MODEL 1
REMARK VINA RESULT:      -7.1      0.000      0.000
REMARK  Name = 5281698_sexangularetin.pdbqt.pdb
REMARK  6 active torsions:
REMARK  status: ('A' for Active; 'I' for Inactive)
REMARK    1  A    between atoms: C_5  and  C_12
REMARK    2  A    between atoms: C_6  and  O_20
REMARK    3  A    between atoms: C_8  and  O_22
REMARK    4  A    between atoms: C_9  and  O_24
REMARK    5  A    between atoms: C_10  and  O_26
REMARK    6  A    between atoms: C_17  and  O_18
REMARK                            x       y       z     vdW  Elec       q    Type
REMARK                         _______ _______ _______ _____ _____    ______ ____
ROOT
ATOM      1  O   UNL     1      19.950   9.699  19.471  0.00  0.00    +0.000 OA
ATOM      2  O   UNL     1      22.291   9.341  16.183  0.00  0.00    +0.000 OA
ATOM      3  C   UNL     1      21.304  10.770  17.772  0.00  0.00    +0.000 A 
ATOM      4  C   UNL     1      20.482  10.826  18.896  0.00  0.00    +0.000 A 
ATOM      5  C   UNL     1      20.180   8.455  18.892  0.00  0.00    +0.000 A 
ATOM      6  C   UNL     1      20.196  12.067  19.483  0.00  0.00    +0.000 A 
ATOM      7  C   UNL     1      21.572   9.462  17.173  0.00  0.00    +0.000 A 
ATOM      8  C   UNL     1      20.951   8.276  17.803  0.00  0.00    +0.000 A 
ATOM      9  C   UNL     1      21.862  11.940  17.245  0.00  0.00    +0.000 A 
ATOM     10  C   UNL     1      20.791  13.226  18.973  0.00  0.00    +0.000 A 
ATOM     11  C   UNL     1      21.612  13.168  17.850  0.00  0.00    +0.000 A 
ENDROOT
BRANCH   5  12
ATOM     12  C   UNL     1      19.507   7.354  19.611  0.00  0.00    +0.000 A 
ATOM     13  C   UNL     1      18.973   7.583  20.885  0.00  0.00    +0.000 A 
ATOM     14  C   UNL     1      19.322   6.095  19.032  0.00  0.00    +0.000 A 
ATOM     15  C   UNL     1      18.294   6.579  21.572  0.00  0.00    +0.000 A 
ATOM     16  C   UNL     1      18.647   5.081  19.710  0.00  0.00    +0.000 A 
ATOM     17  C   UNL     1      18.137   5.333  20.977  0.00  0.00    +0.000 A 
BRANCH  17  18
ATOM     18  O   UNL     1      17.478   4.329  21.624  0.00  0.00    +0.000 OA
ATOM     19  H   UNL     1      18.128   3.827  22.147  0.00  0.00    +0.000 HD
ENDBRANCH  17  18
ENDBRANCH   5  12
BRANCH   6  20
ATOM     20  O   UNL     1      19.416  12.161  20.609  0.00  0.00    +0.000 OA
ATOM     21  C   UNL     1      20.195  12.049  21.777  0.00  0.00    +0.000 C 
ENDBRANCH   6  20
BRANCH   8  22
ATOM     22  O   UNL     1      21.227   7.047  17.234  0.00  0.00    +0.000 OA
ATOM     23  H   UNL     1      20.502   6.452  17.522  0.00  0.00    +0.000 HD
ENDBRANCH   8  22
BRANCH   9  24
ATOM     24  O   UNL     1      22.678  11.953  16.147  0.00  0.00    +0.000 OA
ATOM     25  H   UNL     1      22.138  12.157  15.351  0.00  0.00    +0.000 HD
ENDBRANCH   9  24
BRANCH  10  26
ATOM     26  O   UNL     1      20.580  14.427  19.590  0.00  0.00    +0.000 OA
ATOM     27  H   UNL     1      20.166  14.264  20.458  0.00  0.00    +0.000 HD
ENDBRANCH  10  26
TORSDOF 6
ENDMDL
MODEL 2
REMARK VINA RESULT:      -6.9      1.637      3.661
REMARK  Name = 5281698_sexangularetin.pdbqt.pdb
REMARK  6 active torsions:
REMARK  status: ('A' for Active; 'I' for Inactive)
REMARK    1  A    between atoms: C_5  and  C_12
REMARK    2  A    between atoms: C_6  and  O_20
REMARK    3  A    between atoms: C_8  and  O_22
REMARK    4  A    between atoms: C_9  and  O_24
REMARK    5  A    between atoms: C_10  and  O_26
REMARK    6  A    between atoms: C_17  and  O_18
REMARK                            x       y       z     vdW  Elec       q    Type
REMARK                         _______ _______ _______ _____ _____    ______ ____
ROOT
ATOM      1  O   UNL     1      19.583   8.731  18.767  0.00  0.00    +0.000 OA
ATOM      2  O   UNL     1      18.686  10.689  22.199  0.00  0.00    +0.000 OA
ATOM      3  C   UNL     1      19.681  10.773  20.068  0.00  0.00    +0.000 A 
ATOM      4  C   UNL     1      19.969  10.040  18.918  0.00  0.00    +0.000 A 
ATOM      5  C   UNL     1      18.933   8.080  19.810  0.00  0.00    +0.000 A 
ATOM      6  C   UNL     1      20.658  10.654  17.862  0.00  0.00    +0.000 A 
ATOM      7  C   UNL     1      18.974  10.101  21.159  0.00  0.00    +0.000 A 
ATOM      8  C   UNL     1      18.607   8.680  20.970  0.00  0.00    +0.000 A 
ATOM      9  C   UNL     1      20.054  12.118  20.162  0.00  0.00    +0.000 A 
ATOM     10  C   UNL     1      20.991  12.010  17.949  0.00  0.00    +0.000 A 
ATOM     11  C   UNL     1      20.702  12.739  19.099  0.00  0.00    +0.000 A 
ENDROOT
BRANCH   5  12
ATOM     12  C   UNL     1      18.621   6.670  19.500  0.00  0.00    +0.000 A 
ATOM     13  C   UNL     1      19.663   5.746  19.356  0.00  0.00    +0.000 A 
ATOM     14  C   UNL     1      17.306   6.203  19.411  0.00  0.00    +0.000 A 
ATOM     15  C   UNL     1      19.404   4.400  19.106  0.00  0.00    +0.000 A 
ATOM     16  C   UNL     1      17.033   4.860  19.160  0.00  0.00    +0.000 A 
ATOM     17  C   UNL     1      18.087   3.968  19.010  0.00  0.00    +0.000 A 
BRANCH  17  18
ATOM     18  O   UNL     1      17.799   2.656  18.766  0.00  0.00    +0.000 OA
ATOM     19  H   UNL     1      17.532   2.573  17.834  0.00  0.00    +0.000 HD
ENDBRANCH  17  18
ENDBRANCH   5  12
BRANCH   6  20
ATOM     20  O   UNL     1      20.934   9.975  16.700  0.00  0.00    +0.000 OA
ATOM     21  C   UNL     1      22.232   9.430  16.726  0.00  0.00    +0.000 C 
ENDBRANCH   6  20
BRANCH   8  22
ATOM     22  O   UNL     1      17.926   8.065  22.004  0.00  0.00    +0.000 OA
ATOM     23  H   UNL     1      16.975   8.158  21.788  0.00  0.00    +0.000 HD
ENDBRANCH   8  22
BRANCH   9  24
ATOM     24  O   UNL     1      19.799  12.892  21.260  0.00  0.00    +0.000 OA
ATOM     25  H   UNL     1      20.649  13.089  21.716  0.00  0.00    +0.000 HD
ENDBRANCH   9  24
BRANCH  10  26
ATOM     26  O   UNL     1      21.591  12.633  16.891  0.00  0.00    +0.000 OA
ATOM     27  H   UNL     1      22.483  12.919  17.161  0.00  0.00    +0.000 HD
ENDBRANCH  10  26
TORSDOF 6
ENDMDL
MODEL 3
REMARK VINA RESULT:      -6.8     17.215     19.150
REMARK  Name = 5281698_sexangularetin.pdbqt.pdb
REMARK  6 active torsions:
REMARK  status: ('A' for Active; 'I' for Inactive)
REMARK    1  A    between atoms: C_5  and  C_12
REMARK    2  A    between atoms: C_6  and  O_20
REMARK    3  A    between atoms: C_8  and  O_22
REMARK    4  A    between atoms: C_9  and  O_24
REMARK    5  A    between atoms: C_10  and  O_26
REMARK    6  A    between atoms: C_17  and  O_18
REMARK                            x       y       z     vdW  Elec       q    Type
REMARK                         _______ _______ _______ _____ _____    ______ ____
ROOT
ATOM      1  O   UNL     1      28.045   0.984   4.518  0.00  0.00    +0.000 OA
ATOM      2  O   UNL     1      31.235  -1.464   4.019  0.00  0.00    +0.000 OA
ATOM      3  C   UNL     1      30.373   0.723   3.902  0.00  0.00    +0.000 A 
ATOM      4  C   UNL     1      29.235   1.509   4.082  0.00  0.00    +0.000 A 
ATOM      5  C   UNL     1      27.934  -0.385   4.737  0.00  0.00    +0.000 A 
ATOM      6  C   UNL     1      29.301   2.887   3.833  0.00  0.00    +0.000 A 
ATOM      7  C   UNL     1      30.270  -0.715   4.155  0.00  0.00    +0.000 A 
ATOM      8  C   UNL     1      28.959  -1.245   4.590  0.00  0.00    +0.000 A 
ATOM      9  C   UNL     1      31.579   1.307   3.499  0.00  0.00    +0.000 A 
ATOM     10  C   UNL     1      30.522   3.467   3.469  0.00  0.00    +0.000 A 
ATOM     11  C   UNL     1      31.656   2.680   3.290  0.00  0.00    +0.000 A 
ENDROOT
BRANCH   5  12
ATOM     12  C   UNL     1      26.579  -0.789   5.165  0.00  0.00    +0.000 A 
ATOM     13  C   UNL     1      25.697  -1.353   4.235  0.00  0.00    +0.000 A 
ATOM     14  C   UNL     1      26.162  -0.692   6.497  0.00  0.00    +0.000 A 
ATOM     15  C   UNL     1      24.429  -1.785   4.614  0.00  0.00    +0.000 A 
ATOM     16  C   UNL     1      24.895  -1.118   6.889  0.00  0.00    +0.000 A 
ATOM     17  C   UNL     1      24.037  -1.663   5.942  0.00  0.00    +0.000 A 
BRANCH  17  18
ATOM     18  O   UNL     1      22.801  -2.077   6.346  0.00  0.00    +0.000 OA
ATOM     19  H   UNL     1      22.497  -2.768   5.733  0.00  0.00    +0.000 HD
ENDBRANCH  17  18
ENDBRANCH   5  12
BRANCH   6  20
ATOM     20  O   UNL     1      28.212   3.700   4.028  0.00  0.00    +0.000 OA
ATOM     21  C   UNL     1      27.449   3.819   2.850  0.00  0.00    +0.000 C 
ENDBRANCH   6  20
BRANCH   8  22
ATOM     22  O   UNL     1      28.883  -2.602   4.840  0.00  0.00    +0.000 OA
ATOM     23  H   UNL     1      29.507  -3.023   4.211  0.00  0.00    +0.000 HD
ENDBRANCH   8  22
BRANCH   9  24
ATOM     24  O   UNL     1      32.730   0.593   3.307  0.00  0.00    +0.000 OA
ATOM     25  H   UNL     1      33.215   0.533   4.161  0.00  0.00    +0.000 HD
ENDBRANCH   9  24
BRANCH  10  26
ATOM     26  O   UNL     1      30.610   4.821   3.304  0.00  0.00    +0.000 OA
ATOM     27  H   UNL     1      29.926   5.247   3.854  0.00  0.00    +0.000 HD
ENDBRANCH  10  26
TORSDOF 6
ENDMDL
MODEL 4
REMARK VINA RESULT:      -6.7     17.673     20.689
REMARK  Name = 5281698_sexangularetin.pdbqt.pdb
REMARK  6 active torsions:
REMARK  status: ('A' for Active; 'I' for Inactive)
REMARK    1  A    between atoms: C_5  and  C_12
REMARK    2  A    between atoms: C_6  and  O_20
REMARK    3  A    between atoms: C_8  and  O_22
REMARK    4  A    between atoms: C_9  and  O_24
REMARK    5  A    between atoms: C_10  and  O_26
REMARK    6  A    between atoms: C_17  and  O_18
REMARK                            x       y       z     vdW  Elec       q    Type
REMARK                         _______ _______ _______ _____ _____    ______ ____
ROOT
ATOM      1  O   UNL     1      30.002   2.205   4.070  0.00  0.00    +0.000 OA
ATOM      2  O   UNL     1      30.811  -1.730   3.548  0.00  0.00    +0.000 OA
ATOM      3  C   UNL     1      29.338  -0.101   4.396  0.00  0.00    +0.000 A 
ATOM      4  C   UNL     1      29.125   1.267   4.553  0.00  0.00    +0.000 A 
ATOM      5  C   UNL     1      31.178   1.796   3.452  0.00  0.00    +0.000 A 
ATOM      6  C   UNL     1      27.968   1.715   5.206  0.00  0.00    +0.000 A 
ATOM      7  C   UNL     1      30.562  -0.539   3.723  0.00  0.00    +0.000 A 
ATOM      8  C   UNL     1      31.498   0.504   3.248  0.00  0.00    +0.000 A 
ATOM      9  C   UNL     1      28.395  -1.023   4.864  0.00  0.00    +0.000 A 
ATOM     10  C   UNL     1      27.012   0.787   5.635  0.00  0.00    +0.000 A 
ATOM     11  C   UNL     1      27.228  -0.579   5.476  0.00  0.00    +0.000 A 
ENDROOT
BRANCH   5  12
ATOM     12  C   UNL     1      32.027   2.927   3.026  0.00  0.00    +0.000 A 
ATOM     13  C   UNL     1      31.480   4.214   2.952  0.00  0.00    +0.000 A 
ATOM     14  C   UNL     1      33.390   2.772   2.755  0.00  0.00    +0.000 A 
ATOM     15  C   UNL     1      32.262   5.311   2.595  0.00  0.00    +0.000 A 
ATOM     16  C   UNL     1      34.183   3.860   2.395  0.00  0.00    +0.000 A 
ATOM     17  C   UNL     1      33.610   5.123   2.318  0.00  0.00    +0.000 A 
BRANCH  17  18
ATOM     18  O   UNL     1      34.404   6.176   1.966  0.00  0.00    +0.000 OA
ATOM     19  H   UNL     1      33.914   6.998   2.145  0.00  0.00    +0.000 HD
ENDBRANCH  17  18
ENDBRANCH   5  12
BRANCH   6  20
ATOM     20  O   UNL     1      27.705   3.055   5.354  0.00  0.00    +0.000 OA
ATOM     21  C   UNL     1      27.025   3.566   4.231  0.00  0.00    +0.000 C 
ENDBRANCH   6  20
BRANCH   8  22
ATOM     22  O   UNL     1      32.641   0.074   2.602  0.00  0.00    +0.000 OA
ATOM     23  H   UNL     1      33.067   0.883   2.249  0.00  0.00    +0.000 HD
ENDBRANCH   8  22
BRANCH   9  24
ATOM     24  O   UNL     1      28.544  -2.377   4.739  0.00  0.00    +0.000 OA
ATOM     25  H   UNL     1      27.843  -2.721   4.140  0.00  0.00    +0.000 HD
ENDBRANCH   9  24
BRANCH  10  26
ATOM     26  O   UNL     1      25.846   1.222   6.199  0.00  0.00    +0.000 OA
ATOM     27  H   UNL     1      25.732   0.780   7.061  0.00  0.00    +0.000 HD
ENDBRANCH  10  26
TORSDOF 6
ENDMDL
MODEL 5
REMARK VINA RESULT:      -6.6     16.362     19.083
REMARK  Name = 5281698_sexangularetin.pdbqt.pdb
REMARK  6 active torsions:
REMARK  status: ('A' for Active; 'I' for Inactive)
REMARK    1  A    between atoms: C_5  and  C_12
REMARK    2  A    between atoms: C_6  and  O_20
REMARK    3  A    between atoms: C_8  and  O_22
REMARK    4  A    between atoms: C_9  and  O_24
REMARK    5  A    between atoms: C_10  and  O_26
REMARK    6  A    between atoms: C_17  and  O_18
REMARK                            x       y       z     vdW  Elec       q    Type
REMARK                         _______ _______ _______ _____ _____    ______ ____
ROOT
ATOM      1  O   UNL     1      27.892   0.762   4.885  0.00  0.00    +0.000 OA
ATOM      2  O   UNL     1      27.548   4.704   4.015  0.00  0.00    +0.000 OA
ATOM      3  C   UNL     1      26.483   2.725   4.715  0.00  0.00    +0.000 A 
ATOM      4  C   UNL     1      26.667   1.370   4.988  0.00  0.00    +0.000 A 
ATOM      5  C   UNL     1      28.989   1.491   4.438  0.00  0.00    +0.000 A 
ATOM      6  C   UNL     1      25.574   0.596   5.403  0.00  0.00    +0.000 A 
ATOM      7  C   UNL     1      27.639   3.505   4.269  0.00  0.00    +0.000 A 
ATOM      8  C   UNL     1      28.935   2.802   4.138  0.00  0.00    +0.000 A 
ATOM      9  C   UNL     1      25.225   3.315   4.876  0.00  0.00    +0.000 A 
ATOM     10  C   UNL     1      24.329   1.204   5.600  0.00  0.00    +0.000 A 
ATOM     11  C   UNL     1      24.149   2.557   5.326  0.00  0.00    +0.000 A 
ENDROOT
BRANCH   5  12
ATOM     12  C   UNL     1      30.220   0.680   4.349  0.00  0.00    +0.000 A 
ATOM     13  C   UNL     1      30.139  -0.660   3.949  0.00  0.00    +0.000 A 
ATOM     14  C   UNL     1      31.486   1.224   4.586  0.00  0.00    +0.000 A 
ATOM     15  C   UNL     1      31.285  -1.441   3.813  0.00  0.00    +0.000 A 
ATOM     16  C   UNL     1      32.639   0.453   4.456  0.00  0.00    +0.000 A 
ATOM     17  C   UNL     1      32.528  -0.877   4.069  0.00  0.00    +0.000 A 
BRANCH  17  18
ATOM     18  O   UNL     1      33.669  -1.615   3.945  0.00  0.00    +0.000 OA
ATOM     19  H   UNL     1      33.682  -2.275   4.660  0.00  0.00    +0.000 HD
ENDBRANCH  17  18
ENDBRANCH   5  12
BRANCH   6  20
ATOM     20  O   UNL     1      25.719  -0.735   5.712  0.00  0.00    +0.000 OA
ATOM     21  C   UNL     1      25.489  -1.546   4.583  0.00  0.00    +0.000 C 
ENDBRANCH   6  20
BRANCH   8  22
ATOM     22  O   UNL     1      30.018   3.556   3.730  0.00  0.00    +0.000 OA
ATOM     23  H   UNL     1      30.219   4.159   4.478  0.00  0.00    +0.000 HD
ENDBRANCH   8  22
BRANCH   9  24
ATOM     24  O   UNL     1      24.980   4.638   4.628  0.00  0.00    +0.000 OA
ATOM     25  H   UNL     1      25.387   5.178   5.343  0.00  0.00    +0.000 HD
ENDBRANCH   9  24
BRANCH  10  26
ATOM     26  O   UNL     1      23.282   0.470   6.081  0.00  0.00    +0.000 OA
ATOM     27  H   UNL     1      23.314   0.483   7.056  0.00  0.00    +0.000 HD
ENDBRANCH  10  26
TORSDOF 6
ENDMDL
MODEL 6
REMARK VINA RESULT:      -6.4     32.785     33.838
REMARK  Name = 5281698_sexangularetin.pdbqt.pdb
REMARK  6 active torsions:
REMARK  status: ('A' for Active; 'I' for Inactive)
REMARK    1  A    between atoms: C_5  and  C_12
REMARK    2  A    between atoms: C_6  and  O_20
REMARK    3  A    between atoms: C_8  and  O_22
REMARK    4  A    between atoms: C_9  and  O_24
REMARK    5  A    between atoms: C_10  and  O_26
REMARK    6  A    between atoms: C_17  and  O_18
REMARK                            x       y       z     vdW  Elec       q    Type
REMARK                         _______ _______ _______ _____ _____    ______ ____
ROOT
ATOM      1  O   UNL     1      50.011  -0.629  31.235  0.00  0.00    +0.000 OA
ATOM      2  O   UNL     1      47.353  -3.075  29.400  0.00  0.00    +0.000 OA
ATOM      3  C   UNL     1      48.974  -2.813  31.087  0.00  0.00    +0.000 A 
ATOM      4  C   UNL     1      49.878  -1.925  31.667  0.00  0.00    +0.000 A 
ATOM      5  C   UNL     1      49.269  -0.186  30.146  0.00  0.00    +0.000 A 
ATOM      6  C   UNL     1      50.670  -2.350  32.743  0.00  0.00    +0.000 A 
ATOM      7  C   UNL     1      48.171  -2.345  29.955  0.00  0.00    +0.000 A 
ATOM      8  C   UNL     1      48.370  -0.952  29.499  0.00  0.00    +0.000 A 
ATOM      9  C   UNL     1      48.838  -4.113  31.587  0.00  0.00    +0.000 A 
ATOM     10  C   UNL     1      50.499  -3.638  33.262  0.00  0.00    +0.000 A 
ATOM     11  C   UNL     1      49.595  -4.523  32.680  0.00  0.00    +0.000 A 
ENDROOT
BRANCH   5  12
ATOM     12  C   UNL     1      49.558   1.218  29.788  0.00  0.00    +0.000 A 
ATOM     13  C   UNL     1      50.542   1.501  28.832  0.00  0.00    +0.000 A 
ATOM     14  C   UNL     1      48.830   2.285  30.323  0.00  0.00    +0.000 A 
ATOM     15  C   UNL     1      50.809   2.811  28.440  0.00  0.00    +0.000 A 
ATOM     16  C   UNL     1      49.089   3.600  29.941  0.00  0.00    +0.000 A 
ATOM     17  C   UNL     1      50.079   3.852  29.000  0.00  0.00    +0.000 A 
BRANCH  17  18
ATOM     18  O   UNL     1      50.317   5.145  28.637  0.00  0.00    +0.000 OA
ATOM     19  H   UNL     1      49.487   5.645  28.734  0.00  0.00    +0.000 HD
ENDBRANCH  17  18
ENDBRANCH   5  12
BRANCH   6  20
ATOM     20  O   UNL     1      51.550  -1.496  33.362  0.00  0.00    +0.000 OA
ATOM     21  C   UNL     1      50.890  -0.680  34.301  0.00  0.00    +0.000 C 
ENDBRANCH   6  20
BRANCH   8  22
ATOM     22  O   UNL     1      47.594  -0.522  28.440  0.00  0.00    +0.000 OA
ATOM     23  H   UNL     1      47.709   0.451  28.404  0.00  0.00    +0.000 HD
ENDBRANCH   8  22
BRANCH   9  24
ATOM     24  O   UNL     1      47.969  -5.031  31.065  0.00  0.00    +0.000 OA
ATOM     25  H   UNL     1      48.160  -5.142  30.106  0.00  0.00    +0.000 HD
ENDBRANCH   9  24
BRANCH  10  26
ATOM     26  O   UNL     1      51.210  -4.030  34.361  0.00  0.00    +0.000 OA
ATOM     27  H   UNL     1      51.595  -4.909  34.186  0.00  0.00    +0.000 HD
ENDBRANCH  10  26
TORSDOF 6
ENDMDL
MODEL 7
REMARK VINA RESULT:      -6.3     15.665     18.827
REMARK  Name = 5281698_sexangularetin.pdbqt.pdb
REMARK  6 active torsions:
REMARK  status: ('A' for Active; 'I' for Inactive)
REMARK    1  A    between atoms: C_5  and  C_12
REMARK    2  A    between atoms: C_6  and  O_20
REMARK    3  A    between atoms: C_8  and  O_22
REMARK    4  A    between atoms: C_9  and  O_24
REMARK    5  A    between atoms: C_10  and  O_26
REMARK    6  A    between atoms: C_17  and  O_18
REMARK                            x       y       z     vdW  Elec       q    Type
REMARK                         _______ _______ _______ _____ _____    ______ ____
ROOT
ATOM      1  O   UNL     1      27.215  22.969  28.741  0.00  0.00    +0.000 OA
ATOM      2  O   UNL     1      26.497  21.637  32.499  0.00  0.00    +0.000 OA
ATOM      3  C   UNL     1      28.092  22.267  30.887  0.00  0.00    +0.000 A 
ATOM      4  C   UNL     1      28.272  22.715  29.579  0.00  0.00    +0.000 A 
ATOM      5  C   UNL     1      25.917  22.722  29.173  0.00  0.00    +0.000 A 
ATOM      6  C   UNL     1      29.569  22.937  29.098  0.00  0.00    +0.000 A 
ATOM      7  C   UNL     1      26.726  22.029  31.357  0.00  0.00    +0.000 A 
ATOM      8  C   UNL     1      25.618  22.283  30.410  0.00  0.00    +0.000 A 
ATOM      9  C   UNL     1      29.196  22.063  31.723  0.00  0.00    +0.000 A 
ATOM     10  C   UNL     1      30.664  22.769  29.953  0.00  0.00    +0.000 A 
ATOM     11  C   UNL     1      30.481  22.321  31.259  0.00  0.00    +0.000 A 
ENDROOT
BRANCH   5  12
ATOM     12  C   UNL     1      24.903  23.012  28.139  0.00  0.00    +0.000 A 
ATOM     13  C   UNL     1      24.686  22.094  27.105  0.00  0.00    +0.000 A 
ATOM     14  C   UNL     1      24.094  24.151  28.193  0.00  0.00    +0.000 A 
ATOM     15  C   UNL     1      23.708  22.315  26.138  0.00  0.00    +0.000 A 
ATOM     16  C   UNL     1      23.113  24.386  27.230  0.00  0.00    +0.000 A 
ATOM     17  C   UNL     1      22.928  23.463  26.209  0.00  0.00    +0.000 A 
BRANCH  17  18
ATOM     18  O   UNL     1      21.962  23.709  25.278  0.00  0.00    +0.000 OA
ATOM     19  H   UNL     1      22.294  23.414  24.411  0.00  0.00    +0.000 HD
ENDBRANCH  17  18
ENDBRANCH   5  12
BRANCH   6  20
ATOM     20  O   UNL     1      29.788  23.408  27.826  0.00  0.00    +0.000 OA
ATOM     21  C   UNL     1      29.740  24.815  27.790  0.00  0.00    +0.000 C 
ENDBRANCH   6  20
BRANCH   8  22
ATOM     22  O   UNL     1      24.335  22.068  30.875  0.00  0.00    +0.000 OA
ATOM     23  H   UNL     1      24.397  22.101  31.853  0.00  0.00    +0.000 HD
ENDBRANCH   8  22
BRANCH   9  24
ATOM     24  O   UNL     1      29.087  21.627  33.015  0.00  0.00    +0.000 OA
ATOM     25  H   UNL     1      28.251  21.117  33.111  0.00  0.00    +0.000 HD
ENDBRANCH   9  24
BRANCH  10  26
ATOM     26  O   UNL     1      31.924  23.062  29.513  0.00  0.00    +0.000 OA
ATOM     27  H   UNL     1      31.983  22.838  28.565  0.00  0.00    +0.000 HD
ENDBRANCH  10  26
TORSDOF 6
ENDMDL
MODEL 8
REMARK VINA RESULT:      -6.3     17.141     19.294
REMARK  Name = 5281698_sexangularetin.pdbqt.pdb
REMARK  6 active torsions:
REMARK  status: ('A' for Active; 'I' for Inactive)
REMARK    1  A    between atoms: C_5  and  C_12
REMARK    2  A    between atoms: C_6  and  O_20
REMARK    3  A    between atoms: C_8  and  O_22
REMARK    4  A    between atoms: C_9  and  O_24
REMARK    5  A    between atoms: C_10  and  O_26
REMARK    6  A    between atoms: C_17  and  O_18
REMARK                            x       y       z     vdW  Elec       q    Type
REMARK                         _______ _______ _______ _____ _____    ______ ____
ROOT
ATOM      1  O   UNL     1      24.358  -0.674   4.113  0.00  0.00    +0.000 OA
ATOM      2  O   UNL     1      22.753  -2.187   7.511  0.00  0.00    +0.000 OA
ATOM      3  C   UNL     1      22.441  -1.627   5.246  0.00  0.00    +0.000 A 
ATOM      4  C   UNL     1      23.050  -1.087   4.114  0.00  0.00    +0.000 A 
ATOM      5  C   UNL     1      25.102  -0.735   5.286  0.00  0.00    +0.000 A 
ATOM      6  C   UNL     1      22.317  -0.974   2.924  0.00  0.00    +0.000 A 
ATOM      7  C   UNL     1      23.226  -1.718   6.478  0.00  0.00    +0.000 A 
ATOM      8  C   UNL     1      24.623  -1.230   6.443  0.00  0.00    +0.000 A 
ATOM      9  C   UNL     1      21.117  -2.077   5.191  0.00  0.00    +0.000 A 
ATOM     10  C   UNL     1      21.007  -1.464   2.868  0.00  0.00    +0.000 A 
ATOM     11  C   UNL     1      20.403  -2.002   4.000  0.00  0.00    +0.000 A 
ENDROOT
BRANCH   5  12
ATOM     12  C   UNL     1      26.476  -0.219   5.122  0.00  0.00    +0.000 A 
ATOM     13  C   UNL     1      27.474  -1.056   4.609  0.00  0.00    +0.000 A 
ATOM     14  C   UNL     1      26.808   1.111   5.401  0.00  0.00    +0.000 A 
ATOM     15  C   UNL     1      28.770  -0.590   4.401  0.00  0.00    +0.000 A 
ATOM     16  C   UNL     1      28.101   1.590   5.199  0.00  0.00    +0.000 A 
ATOM     17  C   UNL     1      29.073   0.733   4.700  0.00  0.00    +0.000 A 
BRANCH  17  18
ATOM     18  O   UNL     1      30.333   1.221   4.508  0.00  0.00    +0.000 OA
ATOM     19  H   UNL     1      30.925   0.795   5.152  0.00  0.00    +0.000 HD
ENDBRANCH  17  18
ENDBRANCH   5  12
BRANCH   6  20
ATOM     20  O   UNL     1      22.889  -0.476   1.778  0.00  0.00    +0.000 OA
ATOM     21  C   UNL     1      23.527  -1.496   1.045  0.00  0.00    +0.000 C 
ENDBRANCH   6  20
BRANCH   8  22
ATOM     22  O   UNL     1      25.354  -1.337   7.610  0.00  0.00    +0.000 OA
ATOM     23  H   UNL     1      24.699  -1.510   8.319  0.00  0.00    +0.000 HD
ENDBRANCH   8  22
BRANCH   9  24
ATOM     24  O   UNL     1      20.465  -2.618   6.264  0.00  0.00    +0.000 OA
ATOM     25  H   UNL     1      19.687  -2.056   6.482  0.00  0.00    +0.000 HD
ENDBRANCH   9  24
BRANCH  10  26
ATOM     26  O   UNL     1      20.318  -1.430   1.689  0.00  0.00    +0.000 OA
ATOM     27  H   UNL     1      20.921  -1.687   0.967  0.00  0.00    +0.000 HD
ENDBRANCH  10  26
TORSDOF 6
ENDMDL
MODEL 9
REMARK VINA RESULT:      -6.3     15.418     18.237
REMARK  Name = 5281698_sexangularetin.pdbqt.pdb
REMARK  6 active torsions:
REMARK  status: ('A' for Active; 'I' for Inactive)
REMARK    1  A    between atoms: C_5  and  C_12
REMARK    2  A    between atoms: C_6  and  O_20
REMARK    3  A    between atoms: C_8  and  O_22
REMARK    4  A    between atoms: C_9  and  O_24
REMARK    5  A    between atoms: C_10  and  O_26
REMARK    6  A    between atoms: C_17  and  O_18
REMARK                            x       y       z     vdW  Elec       q    Type
REMARK                         _______ _______ _______ _____ _____    ______ ____
ROOT
ATOM      1  O   UNL     1      25.641  -0.364   5.750  0.00  0.00    +0.000 OA
ATOM      2  O   UNL     1      24.186   3.396   5.357  0.00  0.00    +0.000 OA
ATOM      3  C   UNL     1      23.783   1.169   6.001  0.00  0.00    +0.000 A 
ATOM      4  C   UNL     1      24.340  -0.105   6.101  0.00  0.00    +0.000 A 
ATOM      5  C   UNL     1      26.428   0.652   5.221  0.00  0.00    +0.000 A 
ATOM      6  C   UNL     1      23.563  -1.162   6.595  0.00  0.00    +0.000 A 
ATOM      7  C   UNL     1      24.614   2.250   5.469  0.00  0.00    +0.000 A 
ATOM      8  C   UNL     1      26.000   1.920   5.070  0.00  0.00    +0.000 A 
ATOM      9  C   UNL     1      22.465   1.399   6.412  0.00  0.00    +0.000 A 
ATOM     10  C   UNL     1      22.260  -0.914   7.040  0.00  0.00    +0.000 A 
ATOM     11  C   UNL     1      21.706   0.359   6.939  0.00  0.00    +0.000 A 
ENDROOT
BRANCH   5  12
ATOM     12  C   UNL     1      27.787   0.198   4.862  0.00  0.00    +0.000 A 
ATOM     13  C   UNL     1      28.081  -1.171   4.854  0.00  0.00    +0.000 A 
ATOM     14  C   UNL     1      28.785   1.091   4.458  0.00  0.00    +0.000 A 
ATOM     15  C   UNL     1      29.339  -1.636   4.479  0.00  0.00    +0.000 A 
ATOM     16  C   UNL     1      30.049   0.639   4.082  0.00  0.00    +0.000 A 
ATOM     17  C   UNL     1      30.315  -0.724   4.096  0.00  0.00    +0.000 A 
BRANCH  17  18
ATOM     18  O   UNL     1      31.558  -1.147   3.723  0.00  0.00    +0.000 OA
ATOM     19  H   UNL     1      31.885  -1.763   4.403  0.00  0.00    +0.000 HD
ENDBRANCH  17  18
ENDBRANCH   5  12
BRANCH   6  20
ATOM     20  O   UNL     1      24.084  -2.425   6.738  0.00  0.00    +0.000 OA
ATOM     21  C   UNL     1      23.969  -3.160   5.542  0.00  0.00    +0.000 C 
ENDBRANCH   6  20
BRANCH   8  22
ATOM     22  O   UNL     1      26.776   2.955   4.583  0.00  0.00    +0.000 OA
ATOM     23  H   UNL     1      26.503   3.750   5.087  0.00  0.00    +0.000 HD
ENDBRANCH   8  22
BRANCH   9  24
ATOM     24  O   UNL     1      21.861   2.624   6.343  0.00  0.00    +0.000 OA
ATOM     25  H   UNL     1      22.547   3.309   6.175  0.00  0.00    +0.000 HD
ENDBRANCH   9  24
BRANCH  10  26
ATOM     26  O   UNL     1      21.527  -1.924   7.596  0.00  0.00    +0.000 OA
ATOM     27  H   UNL     1      21.800  -2.033   8.526  0.00  0.00    +0.000 HD
ENDBRANCH  10  26
TORSDOF 6
ENDMDL
