MODEL 1
REMARK VINA RESULT:      -7.6      0.000      0.000
REMARK  Name = 5289155_Peridinin.pdbqt.pdb
REMARK  13 active torsions:
REMARK  status: ('A' for Active; 'I' for Inactive)
REMARK    1  A    between atoms: C_1  and  C_3
REMARK    2  A    between atoms: C_3  and  C_25
REMARK    3  A    between atoms: C_6  and  C_12
REMARK    4  A    between atoms: C_11  and  C_14
REMARK    5  A    between atoms: C_19  and  O_23
REMARK    6  A    between atoms: C_26  and  C_28
REMARK    7  A    between atoms: C_27  and  C_31
REMARK    8  A    between atoms: C_29  and  C_31
REMARK    9  A    between atoms: C_29  and  C_42
REMARK   10  A    between atoms: C_33  and  O_43
REMARK   11  A    between atoms: C_35  and  O_45
REMARK   12  A    between atoms: C_37  and  C_41
REMARK   13  A    between atoms: O_45  and  C_47
REMARK                            x       y       z     vdW  Elec       q    Type
REMARK                         _______ _______ _______ _____ _____    ______ ____
ROOT
ATOM      1  C   UNL     1      41.561   8.711  18.160  0.00  0.00    +0.000 C 
ENDROOT
BRANCH   1   2
ATOM      2  C   UNL     1      40.846   7.700  18.542  0.00  0.00    +0.000 C 
ATOM      3  C   UNL     1      40.783   7.328  19.991  0.00  0.00    +0.000 C 
ATOM      4  O   UNL     1      39.827   6.232  15.412  0.00  0.00    +0.000 OA
ATOM      5  O   UNL     1      39.178   4.749  13.752  0.00  0.00    +0.000 OA
ATOM      6  C   UNL     1      38.309   4.569  15.999  0.00  0.00    +0.000 C 
ATOM      7  C   UNL     1      38.518   5.270  17.054  0.00  0.00    +0.000 C 
ATOM      8  C   UNL     1      39.120   5.148  14.902  0.00  0.00    +0.000 C 
ATOM      9  C   UNL     1      39.400   6.298  16.735  0.00  0.00    +0.000 C 
ATOM     10  C   UNL     1      40.093   6.968  17.597  0.00  0.00    +0.000 C 
BRANCH   6  12
ATOM     11  C   UNL     1      36.734   2.492  15.899  0.00  0.00    +0.000 C 
ATOM     12  C   UNL     1      37.463   3.446  15.948  0.00  0.00    +0.000 C 
BRANCH  11  14
ATOM     13  O   UNL     1      36.582   0.126  16.139  0.00  0.00    +0.000 OA
ATOM     14  C   UNL     1      35.843   1.344  15.838  0.00  0.00    +0.000 C 
ATOM     15  C   UNL     1      35.607   0.501  17.109  0.00  0.00    +0.000 C 
ATOM     16  C   UNL     1      34.782   1.252  14.686  0.00  0.00    +0.000 C 
ATOM     17  C   UNL     1      34.481  -0.377  17.110  0.00  0.00    +0.000 C 
ATOM     18  C   UNL     1      33.846   0.185  15.048  0.00  0.00    +0.000 C 
ATOM     19  C   UNL     1      33.519  -0.661  16.125  0.00  0.00    +0.000 C 
ATOM     20  C   UNL     1      36.203   0.849  18.476  0.00  0.00    +0.000 C 
ATOM     21  C   UNL     1      34.065   2.628  14.666  0.00  0.00    +0.000 C 
ATOM     22  C   UNL     1      35.567   0.970  13.386  0.00  0.00    +0.000 C 
BRANCH  19  23
ATOM     23  O   UNL     1      32.225  -0.962  16.426  0.00  0.00    +0.000 OA
ATOM     24  H   UNL     1      32.106  -1.192  17.365  0.00  0.00    +0.000 HD
ENDBRANCH  19  23
ENDBRANCH  11  14
ENDBRANCH   6  12
ENDBRANCH   1   2
BRANCH   1  25
ATOM     25  C   UNL     1      42.408   9.906  17.707  0.00  0.00    +0.000 C 
ATOM     26  C   UNL     1      43.067  10.845  17.355  0.00  0.00    +0.000 C 
BRANCH  26  28
ATOM     27  C   UNL     1      44.561  12.988  16.557  0.00  0.00    +0.000 C 
ATOM     28  C   UNL     1      43.902  12.049  16.908  0.00  0.00    +0.000 C 
BRANCH  27  29
ATOM     29  C   UNL     1      45.409  14.185  16.110  0.00  0.00    +0.000 C 
BRANCH  29  30
ATOM     30  C   UNL     1      46.125  15.193  15.723  0.00  0.00    +0.000 C 
ATOM     31  C   UNL     1      46.701  15.226  14.339  0.00  0.00    +0.000 C 
BRANCH  30  33
ATOM     32  C   UNL     1      46.658  17.139  17.395  0.00  0.00    +0.000 C 
ATOM     33  C   UNL     1      46.412  16.246  16.628  0.00  0.00    +0.000 C 
BRANCH  32  39
ATOM     34  C   UNL     1      47.043  19.587  17.771  0.00  0.00    +0.000 C 
ATOM     35  C   UNL     1      47.199  17.849  19.701  0.00  0.00    +0.000 C 
ATOM     36  C   UNL     1      47.041  20.505  18.919  0.00  0.00    +0.000 C 
ATOM     37  C   UNL     1      47.058  20.454  20.327  0.00  0.00    +0.000 C 
ATOM     38  C   UNL     1      47.129  19.058  20.514  0.00  0.00    +0.000 C 
ATOM     39  C   UNL     1      46.928  18.122  18.230  0.00  0.00    +0.000 C 
ATOM     40  C   UNL     1      45.819  19.938  16.871  0.00  0.00    +0.000 C 
ATOM     41  C   UNL     1      48.359  19.751  16.965  0.00  0.00    +0.000 C 
ATOM     42  C   UNL     1      48.538  17.129  19.887  0.00  0.00    +0.000 C 
BRANCH  35  43
ATOM     43  O   UNL     1      46.230  16.948  20.191  0.00  0.00    +0.000 OA
ATOM     44  H   UNL     1      46.571  16.767  21.087  0.00  0.00    +0.000 HD
ENDBRANCH  35  43
BRANCH  37  45
ATOM     45  O   UNL     1      47.912  21.301  21.024  0.00  0.00    +0.000 OA
BRANCH  45  47
ATOM     46  O   UNL     1      46.969  21.163  23.167  0.00  0.00    +0.000 OA
ATOM     47  C   UNL     1      47.859  21.021  22.349  0.00  0.00    +0.000 C 
ATOM     48  C   UNL     1      49.117  20.452  22.902  0.00  0.00    +0.000 C 
ENDBRANCH  45  47
ENDBRANCH  37  45
ENDBRANCH  32  39
ENDBRANCH  30  33
ENDBRANCH  29  30
ENDBRANCH  27  29
ENDBRANCH  26  28
ENDBRANCH   1  25
TORSDOF 13
ENDMDL
MODEL 2
REMARK VINA RESULT:      -7.4      1.590      1.879
REMARK  Name = 5289155_Peridinin.pdbqt.pdb
REMARK  13 active torsions:
REMARK  status: ('A' for Active; 'I' for Inactive)
REMARK    1  A    between atoms: C_1  and  C_3
REMARK    2  A    between atoms: C_3  and  C_25
REMARK    3  A    between atoms: C_6  and  C_12
REMARK    4  A    between atoms: C_11  and  C_14
REMARK    5  A    between atoms: C_19  and  O_23
REMARK    6  A    between atoms: C_26  and  C_28
REMARK    7  A    between atoms: C_27  and  C_31
REMARK    8  A    between atoms: C_29  and  C_31
REMARK    9  A    between atoms: C_29  and  C_42
REMARK   10  A    between atoms: C_33  and  O_43
REMARK   11  A    between atoms: C_35  and  O_45
REMARK   12  A    between atoms: C_37  and  C_41
REMARK   13  A    between atoms: O_45  and  C_47
REMARK                            x       y       z     vdW  Elec       q    Type
REMARK                         _______ _______ _______ _____ _____    ______ ____
ROOT
ATOM      1  C   UNL     1      41.449   8.865  17.335  0.00  0.00    +0.000 C 
ENDROOT
BRANCH   1   2
ATOM      2  C   UNL     1      40.742   7.893  17.819  0.00  0.00    +0.000 C 
ATOM      3  C   UNL     1      40.671   7.677  19.299  0.00  0.00    +0.000 C 
ATOM      4  O   UNL     1      39.765   6.085  14.858  0.00  0.00    +0.000 OA
ATOM      5  O   UNL     1      39.147   4.425  13.362  0.00  0.00    +0.000 OA
ATOM      6  C   UNL     1      38.261   4.477  15.609  0.00  0.00    +0.000 C 
ATOM      7  C   UNL     1      38.453   5.289  16.584  0.00  0.00    +0.000 C 
ATOM      8  C   UNL     1      39.075   4.944  14.462  0.00  0.00    +0.000 C 
ATOM      9  C   UNL     1      39.327   6.288  16.163  0.00  0.00    +0.000 C 
ATOM     10  C   UNL     1      40.005   7.055  16.952  0.00  0.00    +0.000 C 
BRANCH   6  12
ATOM     11  C   UNL     1      36.712   2.381  15.719  0.00  0.00    +0.000 C 
ATOM     12  C   UNL     1      37.428   3.345  15.673  0.00  0.00    +0.000 C 
BRANCH  11  14
ATOM     13  O   UNL     1      36.591   0.049  16.199  0.00  0.00    +0.000 OA
ATOM     14  C   UNL     1      35.838   1.220  15.768  0.00  0.00    +0.000 C 
ATOM     15  C   UNL     1      35.602   0.507  17.117  0.00  0.00    +0.000 C 
ATOM     16  C   UNL     1      34.790   0.994  14.623  0.00  0.00    +0.000 C 
ATOM     17  C   UNL     1      34.488  -0.383  17.200  0.00  0.00    +0.000 C 
ATOM     18  C   UNL     1      33.866  -0.045  15.086  0.00  0.00    +0.000 C 
ATOM     19  C   UNL     1      33.541  -0.781  16.241  0.00  0.00    +0.000 C 
ATOM     20  C   UNL     1      36.180   1.002  18.446  0.00  0.00    +0.000 C 
ATOM     21  C   UNL     1      34.053   2.349  14.457  0.00  0.00    +0.000 C 
ATOM     22  C   UNL     1      35.591   0.592  13.366  0.00  0.00    +0.000 C 
BRANCH  19  23
ATOM     23  O   UNL     1      32.248  -1.070  16.560  0.00  0.00    +0.000 OA
ATOM     24  H   UNL     1      31.647  -0.324  16.383  0.00  0.00    +0.000 HD
ENDBRANCH  19  23
ENDBRANCH  11  14
ENDBRANCH   6  12
ENDBRANCH   1   2
BRANCH   1  25
ATOM     25  C   UNL     1      42.287  10.015  16.763  0.00  0.00    +0.000 C 
ATOM     26  C   UNL     1      42.938  10.918  16.316  0.00  0.00    +0.000 C 
BRANCH  26  28
ATOM     27  C   UNL     1      44.414  12.980  15.301  0.00  0.00    +0.000 C 
ATOM     28  C   UNL     1      43.763  12.077  15.747  0.00  0.00    +0.000 C 
BRANCH  27  29
ATOM     29  C   UNL     1      45.252  14.133  14.735  0.00  0.00    +0.000 C 
BRANCH  29  30
ATOM     30  C   UNL     1      45.960  15.102  14.247  0.00  0.00    +0.000 C 
ATOM     31  C   UNL     1      46.712  14.918  12.963  0.00  0.00    +0.000 C 
BRANCH  30  33
ATOM     32  C   UNL     1      46.166  17.362  15.557  0.00  0.00    +0.000 C 
ATOM     33  C   UNL     1      46.071  16.324  14.957  0.00  0.00    +0.000 C 
BRANCH  32  39
ATOM     34  C   UNL     1      45.486  19.763  15.796  0.00  0.00    +0.000 C 
ATOM     35  C   UNL     1      47.216  18.650  17.389  0.00  0.00    +0.000 C 
ATOM     36  C   UNL     1      45.534  20.787  16.848  0.00  0.00    +0.000 C 
ATOM     37  C   UNL     1      46.155  21.011  18.094  0.00  0.00    +0.000 C 
ATOM     38  C   UNL     1      46.936  19.841  18.183  0.00  0.00    +0.000 C 
ATOM     39  C   UNL     1      46.267  18.502  16.210  0.00  0.00    +0.000 C 
ATOM     40  C   UNL     1      43.992  19.384  15.560  0.00  0.00    +0.000 C 
ATOM     41  C   UNL     1      46.105  20.320  14.486  0.00  0.00    +0.000 C 
ATOM     42  C   UNL     1      48.675  18.619  16.924  0.00  0.00    +0.000 C 
BRANCH  35  43
ATOM     43  O   UNL     1      47.079  17.530  18.236  0.00  0.00    +0.000 OA
ATOM     44  H   UNL     1      47.256  17.926  19.109  0.00  0.00    +0.000 HD
ENDBRANCH  35  43
BRANCH  37  45
ATOM     45  O   UNL     1      46.718  22.254  18.354  0.00  0.00    +0.000 OA
BRANCH  45  47
ATOM     46  O   UNL     1      44.930  23.589  19.076  0.00  0.00    +0.000 OA
ATOM     47  C   UNL     1      45.945  22.936  19.233  0.00  0.00    +0.000 C 
ATOM     48  C   UNL     1      46.432  22.887  20.638  0.00  0.00    +0.000 C 
ENDBRANCH  45  47
ENDBRANCH  37  45
ENDBRANCH  32  39
ENDBRANCH  30  33
ENDBRANCH  29  30
ENDBRANCH  27  29
ENDBRANCH  26  28
ENDBRANCH   1  25
TORSDOF 13
ENDMDL
MODEL 3
REMARK VINA RESULT:      -7.1     21.525     23.132
REMARK  Name = 5289155_Peridinin.pdbqt.pdb
REMARK  13 active torsions:
REMARK  status: ('A' for Active; 'I' for Inactive)
REMARK    1  A    between atoms: C_1  and  C_3
REMARK    2  A    between atoms: C_3  and  C_25
REMARK    3  A    between atoms: C_6  and  C_12
REMARK    4  A    between atoms: C_11  and  C_14
REMARK    5  A    between atoms: C_19  and  O_23
REMARK    6  A    between atoms: C_26  and  C_28
REMARK    7  A    between atoms: C_27  and  C_31
REMARK    8  A    between atoms: C_29  and  C_31
REMARK    9  A    between atoms: C_29  and  C_42
REMARK   10  A    between atoms: C_33  and  O_43
REMARK   11  A    between atoms: C_35  and  O_45
REMARK   12  A    between atoms: C_37  and  C_41
REMARK   13  A    between atoms: O_45  and  C_47
REMARK                            x       y       z     vdW  Elec       q    Type
REMARK                         _______ _______ _______ _____ _____    ______ ____
ROOT
ATOM      1  C   UNL     1      19.663  17.463  21.136  0.00  0.00    +0.000 C 
ENDROOT
BRANCH   1   2
ATOM      2  C   UNL     1      19.252  16.465  20.420  0.00  0.00    +0.000 C 
ATOM      3  C   UNL     1      18.946  16.656  18.967  0.00  0.00    +0.000 C 
ATOM      4  O   UNL     1      18.748  13.886  22.887  0.00  0.00    +0.000 OA
ATOM      5  O   UNL     1      17.973  12.039  24.055  0.00  0.00    +0.000 OA
ATOM      6  C   UNL     1      18.272  11.969  21.659  0.00  0.00    +0.000 C 
ATOM      7  C   UNL     1      18.688  12.850  20.824  0.00  0.00    +0.000 C 
ATOM      8  C   UNL     1      18.297  12.576  23.011  0.00  0.00    +0.000 C 
ATOM      9  C   UNL     1      19.014  14.007  21.527  0.00  0.00    +0.000 C 
ATOM     10  C   UNL     1      19.127  15.182  21.000  0.00  0.00    +0.000 C 
BRANCH   6  12
ATOM     11  C   UNL     1      17.497   9.566  21.003  0.00  0.00    +0.000 C 
ATOM     12  C   UNL     1      17.859  10.672  21.302  0.00  0.00    +0.000 C 
BRANCH  11  14
ATOM     13  O   UNL     1      15.725   7.984  21.196  0.00  0.00    +0.000 OA
ATOM     14  C   UNL     1      17.054   8.227  20.650  0.00  0.00    +0.000 C 
ATOM     15  C   UNL     1      15.795   8.053  19.774  0.00  0.00    +0.000 C 
ATOM     16  C   UNL     1      18.069   7.033  20.724  0.00  0.00    +0.000 C 
ATOM     17  C   UNL     1      15.596   6.779  19.161  0.00  0.00    +0.000 C 
ATOM     18  C   UNL     1      17.450   5.899  20.031  0.00  0.00    +0.000 C 
ATOM     19  C   UNL     1      16.338   5.587  19.227  0.00  0.00    +0.000 C 
ATOM     20  C   UNL     1      15.012   9.227  19.177  0.00  0.00    +0.000 C 
ATOM     21  C   UNL     1      19.336   7.513  19.968  0.00  0.00    +0.000 C 
ATOM     22  C   UNL     1      18.332   6.771  22.223  0.00  0.00    +0.000 C 
BRANCH  19  23
ATOM     23  O   UNL     1      16.439   4.724  18.177  0.00  0.00    +0.000 OA
ATOM     24  H   UNL     1      17.214   4.139  18.252  0.00  0.00    +0.000 HD
ENDBRANCH  19  23
ENDBRANCH  11  14
ENDBRANCH   6  12
ENDBRANCH   1   2
BRANCH   1  25
ATOM     25  C   UNL     1      20.150  18.645  21.983  0.00  0.00    +0.000 C 
ATOM     26  C   UNL     1      20.527  19.569  22.649  0.00  0.00    +0.000 C 
BRANCH  26  28
ATOM     27  C   UNL     1      21.377  21.664  24.182  0.00  0.00    +0.000 C 
ATOM     28  C   UNL     1      21.005  20.745  23.506  0.00  0.00    +0.000 C 
BRANCH  27  29
ATOM     29  C   UNL     1      21.847  22.837  25.052  0.00  0.00    +0.000 C 
BRANCH  29  30
ATOM     30  C   UNL     1      22.249  23.820  25.793  0.00  0.00    +0.000 C 
ATOM     31  C   UNL     1      21.696  25.198  25.588  0.00  0.00    +0.000 C 
BRANCH  30  33
ATOM     32  C   UNL     1      24.113  23.426  27.591  0.00  0.00    +0.000 C 
ATOM     33  C   UNL     1      23.258  23.605  26.766  0.00  0.00    +0.000 C 
BRANCH  32  39
ATOM     34  C   UNL     1      24.738  23.203  30.008  0.00  0.00    +0.000 C 
ATOM     35  C   UNL     1      26.508  23.082  28.105  0.00  0.00    +0.000 C 
ATOM     36  C   UNL     1      25.875  22.671  30.774  0.00  0.00    +0.000 C 
ATOM     37  C   UNL     1      27.207  22.261  30.563  0.00  0.00    +0.000 C 
ATOM     38  C   UNL     1      27.324  22.535  29.184  0.00  0.00    +0.000 C 
ATOM     39  C   UNL     1      25.048  23.232  28.501  0.00  0.00    +0.000 C 
ATOM     40  C   UNL     1      23.512  22.274  30.260  0.00  0.00    +0.000 C 
ATOM     41  C   UNL     1      24.415  24.647  30.476  0.00  0.00    +0.000 C 
ATOM     42  C   UNL     1      27.076  24.409  27.594  0.00  0.00    +0.000 C 
BRANCH  35  43
ATOM     43  O   UNL     1      26.603  22.199  27.009  0.00  0.00    +0.000 OA
ATOM     44  H   UNL     1      27.222  21.529  27.354  0.00  0.00    +0.000 HD
ENDBRANCH  35  43
BRANCH  37  45
ATOM     45  O   UNL     1      28.191  22.680  31.448  0.00  0.00    +0.000 OA
BRANCH  45  47
ATOM     46  O   UNL     1      28.419  20.613  32.533  0.00  0.00    +0.000 OA
ATOM     47  C   UNL     1      28.269  21.820  32.493  0.00  0.00    +0.000 C 
ATOM     48  C   UNL     1      28.134  22.468  33.826  0.00  0.00    +0.000 C 
ENDBRANCH  45  47
ENDBRANCH  37  45
ENDBRANCH  32  39
ENDBRANCH  30  33
ENDBRANCH  29  30
ENDBRANCH  27  29
ENDBRANCH  26  28
ENDBRANCH   1  25
TORSDOF 13
ENDMDL
MODEL 4
REMARK VINA RESULT:      -6.7     31.667     34.558
REMARK  Name = 5289155_Peridinin.pdbqt.pdb
REMARK  13 active torsions:
REMARK  status: ('A' for Active; 'I' for Inactive)
REMARK    1  A    between atoms: C_1  and  C_3
REMARK    2  A    between atoms: C_3  and  C_25
REMARK    3  A    between atoms: C_6  and  C_12
REMARK    4  A    between atoms: C_11  and  C_14
REMARK    5  A    between atoms: C_19  and  O_23
REMARK    6  A    between atoms: C_26  and  C_28
REMARK    7  A    between atoms: C_27  and  C_31
REMARK    8  A    between atoms: C_29  and  C_31
REMARK    9  A    between atoms: C_29  and  C_42
REMARK   10  A    between atoms: C_33  and  O_43
REMARK   11  A    between atoms: C_35  and  O_45
REMARK   12  A    between atoms: C_37  and  C_41
REMARK   13  A    between atoms: O_45  and  C_47
REMARK                            x       y       z     vdW  Elec       q    Type
REMARK                         _______ _______ _______ _____ _____    ______ ____
ROOT
ATOM      1  C   UNL     1      37.824 -23.574  29.936  0.00  0.00    +0.000 C 
ENDROOT
BRANCH   1   2
ATOM      2  C   UNL     1      37.456 -24.359  28.973  0.00  0.00    +0.000 C 
ATOM      3  C   UNL     1      36.553 -25.520  29.252  0.00  0.00    +0.000 C 
ATOM      4  O   UNL     1      39.459 -23.200  26.209  0.00  0.00    +0.000 OA
ATOM      5  O   UNL     1      40.697 -23.072  24.254  0.00  0.00    +0.000 OA
ATOM      6  C   UNL     1      38.664 -24.372  24.364  0.00  0.00    +0.000 C 
ATOM      7  C   UNL     1      37.831 -24.576  25.319  0.00  0.00    +0.000 C 
ATOM      8  C   UNL     1      39.733 -23.483  24.875  0.00  0.00    +0.000 C 
ATOM      9  C   UNL     1      38.256 -23.863  26.437  0.00  0.00    +0.000 C 
ATOM     10  C   UNL     1      37.876 -24.099  27.649  0.00  0.00    +0.000 C 
BRANCH   6  12
ATOM     11  C   UNL     1      38.452 -25.421  21.985  0.00  0.00    +0.000 C 
ATOM     12  C   UNL     1      38.548 -24.933  23.079  0.00  0.00    +0.000 C 
BRANCH  11  14
ATOM     13  O   UNL     1      37.904 -27.406  20.783  0.00  0.00    +0.000 OA
ATOM     14  C   UNL     1      38.341 -26.021  20.664  0.00  0.00    +0.000 C 
ATOM     15  C   UNL     1      36.966 -26.522  20.174  0.00  0.00    +0.000 C 
ATOM     16  C   UNL     1      39.443 -25.725  19.588  0.00  0.00    +0.000 C 
ATOM     17  C   UNL     1      36.821 -26.768  18.775  0.00  0.00    +0.000 C 
ATOM     18  C   UNL     1      38.920 -26.189  18.300  0.00  0.00    +0.000 C 
ATOM     19  C   UNL     1      37.735 -26.671  17.712  0.00  0.00    +0.000 C 
ATOM     20  C   UNL     1      35.671 -26.355  20.975  0.00  0.00    +0.000 C 
ATOM     21  C   UNL     1      39.621 -24.183  19.584  0.00  0.00    +0.000 C 
ATOM     22  C   UNL     1      40.716 -26.471  20.043  0.00  0.00    +0.000 C 
BRANCH  19  23
ATOM     23  O   UNL     1      37.364 -26.301  16.454  0.00  0.00    +0.000 OA
ATOM     24  H   UNL     1      36.417 -26.080  16.397  0.00  0.00    +0.000 HD
ENDBRANCH  19  23
ENDBRANCH  11  14
ENDBRANCH   6  12
ENDBRANCH   1   2
BRANCH   1  25
ATOM     25  C   UNL     1      38.260 -22.645  31.076  0.00  0.00    +0.000 C 
ATOM     26  C   UNL     1      38.605 -21.923  31.970  0.00  0.00    +0.000 C 
BRANCH  26  28
ATOM     27  C   UNL     1      39.394 -20.285  34.008  0.00  0.00    +0.000 C 
ATOM     28  C   UNL     1      39.051 -21.006  33.113  0.00  0.00    +0.000 C 
BRANCH  27  29
ATOM     29  C   UNL     1      39.829 -19.359  35.151  0.00  0.00    +0.000 C 
BRANCH  29  30
ATOM     30  C   UNL     1      40.193 -18.567  36.109  0.00  0.00    +0.000 C 
ATOM     31  C   UNL     1      41.437 -18.852  36.895  0.00  0.00    +0.000 C 
BRANCH  30  33
ATOM     32  C   UNL     1      38.697 -16.512  36.746  0.00  0.00    +0.000 C 
ATOM     33  C   UNL     1      39.383 -17.456  36.455  0.00  0.00    +0.000 C 
BRANCH  32  39
ATOM     34  C   UNL     1      37.712 -15.036  38.516  0.00  0.00    +0.000 C 
ATOM     35  C   UNL     1      37.203 -14.693  35.988  0.00  0.00    +0.000 C 
ATOM     36  C   UNL     1      37.100 -13.701  38.576  0.00  0.00    +0.000 C 
ATOM     37  C   UNL     1      36.569 -12.729  37.703  0.00  0.00    +0.000 C 
ATOM     38  C   UNL     1      36.719 -13.406  36.475  0.00  0.00    +0.000 C 
ATOM     39  C   UNL     1      37.942 -15.478  37.059  0.00  0.00    +0.000 C 
ATOM     40  C   UNL     1      39.084 -14.970  39.253  0.00  0.00    +0.000 C 
ATOM     41  C   UNL     1      36.788 -16.073  39.209  0.00  0.00    +0.000 C 
ATOM     42  C   UNL     1      36.067 -15.524  35.384  0.00  0.00    +0.000 C 
BRANCH  35  43
ATOM     43  O   UNL     1      38.080 -14.439  34.912  0.00  0.00    +0.000 OA
ATOM     44  H   UNL     1      38.267 -15.344  34.599  0.00  0.00    +0.000 HD
ENDBRANCH  35  43
BRANCH  37  45
ATOM     45  O   UNL     1      35.365 -12.117  38.026  0.00  0.00    +0.000 OA
BRANCH  45  47
ATOM     46  O   UNL     1      35.861  -9.825  37.953  0.00  0.00    +0.000 OA
ATOM     47  C   UNL     1      35.597 -10.873  38.513  0.00  0.00    +0.000 C 
ATOM     48  C   UNL     1      35.526 -10.776  39.996  0.00  0.00    +0.000 C 
ENDBRANCH  45  47
ENDBRANCH  37  45
ENDBRANCH  32  39
ENDBRANCH  30  33
ENDBRANCH  29  30
ENDBRANCH  27  29
ENDBRANCH  26  28
ENDBRANCH   1  25
TORSDOF 13
ENDMDL
MODEL 5
REMARK VINA RESULT:      -6.6     16.234     20.398
REMARK  Name = 5289155_Peridinin.pdbqt.pdb
REMARK  13 active torsions:
REMARK  status: ('A' for Active; 'I' for Inactive)
REMARK    1  A    between atoms: C_1  and  C_3
REMARK    2  A    between atoms: C_3  and  C_25
REMARK    3  A    between atoms: C_6  and  C_12
REMARK    4  A    between atoms: C_11  and  C_14
REMARK    5  A    between atoms: C_19  and  O_23
REMARK    6  A    between atoms: C_26  and  C_28
REMARK    7  A    between atoms: C_27  and  C_31
REMARK    8  A    between atoms: C_29  and  C_31
REMARK    9  A    between atoms: C_29  and  C_42
REMARK   10  A    between atoms: C_33  and  O_43
REMARK   11  A    between atoms: C_35  and  O_45
REMARK   12  A    between atoms: C_37  and  C_41
REMARK   13  A    between atoms: O_45  and  C_47
REMARK                            x       y       z     vdW  Elec       q    Type
REMARK                         _______ _______ _______ _____ _____    ______ ____
ROOT
ATOM      1  C   UNL     1      33.465  26.626  26.525  0.00  0.00    +0.000 C 
ENDROOT
BRANCH   1   2
ATOM      2  C   UNL     1      32.196  26.638  26.785  0.00  0.00    +0.000 C 
ATOM      3  C   UNL     1      31.351  27.797  26.357  0.00  0.00    +0.000 C 
ATOM      4  O   UNL     1      31.803  23.751  28.907  0.00  0.00    +0.000 OA
ATOM      5  O   UNL     1      31.073  22.250  30.516  0.00  0.00    +0.000 OA
ATOM      6  C   UNL     1      29.506  23.534  29.201  0.00  0.00    +0.000 C 
ATOM      7  C   UNL     1      29.680  24.399  28.269  0.00  0.00    +0.000 C 
ATOM      8  C   UNL     1      30.841  23.072  29.647  0.00  0.00    +0.000 C 
ATOM      9  C   UNL     1      31.047  24.535  28.041  0.00  0.00    +0.000 C 
ATOM     10  C   UNL     1      31.598  25.539  27.442  0.00  0.00    +0.000 C 
BRANCH   6  12
ATOM     11  C   UNL     1      27.168  22.805  30.101  0.00  0.00    +0.000 C 
ATOM     12  C   UNL     1      28.247  23.141  29.691  0.00  0.00    +0.000 C 
BRANCH  11  14
ATOM     13  O   UNL     1      25.945  21.096  31.226  0.00  0.00    +0.000 OA
ATOM     14  C   UNL     1      25.858  22.402  30.588  0.00  0.00    +0.000 C 
ATOM     15  C   UNL     1      25.648  22.181  32.101  0.00  0.00    +0.000 C 
ATOM     16  C   UNL     1      24.592  22.664  29.699  0.00  0.00    +0.000 C 
ATOM     17  C   UNL     1      24.302  22.140  32.574  0.00  0.00    +0.000 C 
ATOM     18  C   UNL     1      23.419  22.452  30.551  0.00  0.00    +0.000 C 
ATOM     19  C   UNL     1      23.073  22.234  31.898  0.00  0.00    +0.000 C 
ATOM     20  C   UNL     1      26.733  22.438  33.150  0.00  0.00    +0.000 C 
ATOM     21  C   UNL     1      24.689  24.149  29.259  0.00  0.00    +0.000 C 
ATOM     22  C   UNL     1      24.677  21.682  28.511  0.00  0.00    +0.000 C 
BRANCH  19  23
ATOM     23  O   UNL     1      21.971  22.813  32.452  0.00  0.00    +0.000 OA
ATOM     24  H   UNL     1      21.150  22.567  31.989  0.00  0.00    +0.000 HD
ENDBRANCH  19  23
ENDBRANCH  11  14
ENDBRANCH   6  12
ENDBRANCH   1   2
BRANCH   1  25
ATOM     25  C   UNL     1      34.967  26.611  26.215  0.00  0.00    +0.000 C 
ATOM     26  C   UNL     1      36.143  26.595  25.977  0.00  0.00    +0.000 C 
BRANCH  26  28
ATOM     27  C   UNL     1      38.822  26.550  25.447  0.00  0.00    +0.000 C 
ATOM     28  C   UNL     1      37.645  26.569  25.677  0.00  0.00    +0.000 C 
BRANCH  27  29
ATOM     29  C   UNL     1      40.328  26.531  25.159  0.00  0.00    +0.000 C 
BRANCH  29  30
ATOM     30  C   UNL     1      41.602  26.512  24.926  0.00  0.00    +0.000 C 
ATOM     31  C   UNL     1      42.278  27.700  24.311  0.00  0.00    +0.000 C 
BRANCH  30  33
ATOM     32  C   UNL     1      42.990  24.350  25.439  0.00  0.00    +0.000 C 
ATOM     33  C   UNL     1      42.354  25.342  25.202  0.00  0.00    +0.000 C 
BRANCH  32  39
ATOM     34  C   UNL     1      45.221  23.258  25.781  0.00  0.00    +0.000 C 
ATOM     35  C   UNL     1      42.994  21.916  25.882  0.00  0.00    +0.000 C 
ATOM     36  C   UNL     1      45.721  22.013  26.381  0.00  0.00    +0.000 C 
ATOM     37  C   UNL     1      45.229  20.769  26.825  0.00  0.00    +0.000 C 
ATOM     38  C   UNL     1      43.865  20.922  26.498  0.00  0.00    +0.000 C 
ATOM     39  C   UNL     1      43.683  23.260  25.700  0.00  0.00    +0.000 C 
ATOM     40  C   UNL     1      45.686  24.445  26.680  0.00  0.00    +0.000 C 
ATOM     41  C   UNL     1      45.793  23.423  24.348  0.00  0.00    +0.000 C 
ATOM     42  C   UNL     1      42.423  21.410  24.553  0.00  0.00    +0.000 C 
BRANCH  35  43
ATOM     43  O   UNL     1      41.873  22.081  26.721  0.00  0.00    +0.000 OA
ATOM     44  H   UNL     1      41.908  23.039  26.904  0.00  0.00    +0.000 HD
ENDBRANCH  35  43
BRANCH  37  45
ATOM     45  O   UNL     1      45.909  19.610  26.475  0.00  0.00    +0.000 OA
BRANCH  45  47
ATOM     46  O   UNL     1      45.757  19.902  24.152  0.00  0.00    +0.000 OA
ATOM     47  C   UNL     1      46.350  19.702  25.196  0.00  0.00    +0.000 C 
ATOM     48  C   UNL     1      47.818  19.511  25.043  0.00  0.00    +0.000 C 
ENDBRANCH  45  47
ENDBRANCH  37  45
ENDBRANCH  32  39
ENDBRANCH  30  33
ENDBRANCH  29  30
ENDBRANCH  27  29
ENDBRANCH  26  28
ENDBRANCH   1  25
TORSDOF 13
ENDMDL
MODEL 6
REMARK VINA RESULT:      -6.5      5.055      6.552
REMARK  Name = 5289155_Peridinin.pdbqt.pdb
REMARK  13 active torsions:
REMARK  status: ('A' for Active; 'I' for Inactive)
REMARK    1  A    between atoms: C_1  and  C_3
REMARK    2  A    between atoms: C_3  and  C_25
REMARK    3  A    between atoms: C_6  and  C_12
REMARK    4  A    between atoms: C_11  and  C_14
REMARK    5  A    between atoms: C_19  and  O_23
REMARK    6  A    between atoms: C_26  and  C_28
REMARK    7  A    between atoms: C_27  and  C_31
REMARK    8  A    between atoms: C_29  and  C_31
REMARK    9  A    between atoms: C_29  and  C_42
REMARK   10  A    between atoms: C_33  and  O_43
REMARK   11  A    between atoms: C_35  and  O_45
REMARK   12  A    between atoms: C_37  and  C_41
REMARK   13  A    between atoms: O_45  and  C_47
REMARK                            x       y       z     vdW  Elec       q    Type
REMARK                         _______ _______ _______ _____ _____    ______ ____
ROOT
ATOM      1  C   UNL     1      42.935   7.383  17.853  0.00  0.00    +0.000 C 
ENDROOT
BRANCH   1   2
ATOM      2  C   UNL     1      41.843   7.136  17.200  0.00  0.00    +0.000 C 
ATOM      3  C   UNL     1      40.576   7.851  17.554  0.00  0.00    +0.000 C 
ATOM      4  O   UNL     1      42.784   4.340  15.129  0.00  0.00    +0.000 OA
ATOM      5  O   UNL     1      42.766   2.398  13.863  0.00  0.00    +0.000 OA
ATOM      6  C   UNL     1      40.966   4.003  13.719  0.00  0.00    +0.000 C 
ATOM      7  C   UNL     1      40.774   5.126  14.308  0.00  0.00    +0.000 C 
ATOM      8  C   UNL     1      42.253   3.450  14.201  0.00  0.00    +0.000 C 
ATOM      9  C   UNL     1      41.860   5.381  15.141  0.00  0.00    +0.000 C 
ATOM     10  C   UNL     1      41.854   6.218  16.126  0.00  0.00    +0.000 C 
BRANCH   6  12
ATOM     11  C   UNL     1      39.308   2.947  12.004  0.00  0.00    +0.000 C 
ATOM     12  C   UNL     1      40.071   3.429  12.797  0.00  0.00    +0.000 C 
BRANCH  11  14
ATOM     13  O   UNL     1      37.913   3.407  10.127  0.00  0.00    +0.000 OA
ATOM     14  C   UNL     1      38.382   2.373  11.039  0.00  0.00    +0.000 C 
ATOM     15  C   UNL     1      38.738   2.405   9.538  0.00  0.00    +0.000 C 
ATOM     16  C   UNL     1      37.316   1.328  11.521  0.00  0.00    +0.000 C 
ATOM     17  C   UNL     1      38.003   1.538   8.674  0.00  0.00    +0.000 C 
ATOM     18  C   UNL     1      36.751   0.706  10.320  0.00  0.00    +0.000 C 
ATOM     19  C   UNL     1      36.949   0.644   8.928  0.00  0.00    +0.000 C 
ATOM     20  C   UNL     1      40.065   2.944   8.996  0.00  0.00    +0.000 C 
ATOM     21  C   UNL     1      38.100   0.286  12.361  0.00  0.00    +0.000 C 
ATOM     22  C   UNL     1      36.279   2.110  12.357  0.00  0.00    +0.000 C 
BRANCH  19  23
ATOM     23  O   UNL     1      36.789  -0.520   8.238  0.00  0.00    +0.000 OA
ATOM     24  H   UNL     1      37.618  -0.823   7.826  0.00  0.00    +0.000 HD
ENDBRANCH  19  23
ENDBRANCH  11  14
ENDBRANCH   6  12
ENDBRANCH   1   2
BRANCH   1  25
ATOM     25  C   UNL     1      44.225   7.675  18.627  0.00  0.00    +0.000 C 
ATOM     26  C   UNL     1      45.237   7.908  19.229  0.00  0.00    +0.000 C 
BRANCH  26  28
ATOM     27  C   UNL     1      47.547   8.447  20.583  0.00  0.00    +0.000 C 
ATOM     28  C   UNL     1      46.531   8.210  19.991  0.00  0.00    +0.000 C 
BRANCH  27  29
ATOM     29  C   UNL     1      48.850   8.747  21.335  0.00  0.00    +0.000 C 
BRANCH  29  30
ATOM     30  C   UNL     1      49.955   9.001  21.960  0.00  0.00    +0.000 C 
ATOM     31  C   UNL     1      50.767   7.887  22.548  0.00  0.00    +0.000 C 
BRANCH  30  33
ATOM     32  C   UNL     1      50.729  11.484  22.286  0.00  0.00    +0.000 C 
ATOM     33  C   UNL     1      50.373  10.345  22.138  0.00  0.00    +0.000 C 
BRANCH  32  39
ATOM     34  C   UNL     1      51.113  13.751  21.289  0.00  0.00    +0.000 C 
ATOM     35  C   UNL     1      51.644  13.229  23.781  0.00  0.00    +0.000 C 
ATOM     36  C   UNL     1      51.287  15.122  21.787  0.00  0.00    +0.000 C 
ATOM     37  C   UNL     1      51.549  15.793  22.999  0.00  0.00    +0.000 C 
ATOM     38  C   UNL     1      51.685  14.685  23.859  0.00  0.00    +0.000 C 
ATOM     39  C   UNL     1      51.115  12.734  22.444  0.00  0.00    +0.000 C 
ATOM     40  C   UNL     1      49.743  13.678  20.547  0.00  0.00    +0.000 C 
ATOM     41  C   UNL     1      52.265  13.393  20.311  0.00  0.00    +0.000 C 
ATOM     42  C   UNL     1      53.012  12.614  24.090  0.00  0.00    +0.000 C 
BRANCH  35  43
ATOM     43  O   UNL     1      50.797  12.770  24.812  0.00  0.00    +0.000 OA
ATOM     44  H   UNL     1      51.301  12.006  25.150  0.00  0.00    +0.000 HD
ENDBRANCH  35  43
BRANCH  37  45
ATOM     45  O   UNL     1      52.489  16.816  23.015  0.00  0.00    +0.000 OA
BRANCH  45  47
ATOM     46  O   UNL     1      50.866  18.135  24.076  0.00  0.00    +0.000 OA
ATOM     47  C   UNL     1      51.941  17.938  23.543  0.00  0.00    +0.000 C 
ATOM     48  C   UNL     1      52.806  19.144  23.439  0.00  0.00    +0.000 C 
ENDBRANCH  45  47
ENDBRANCH  37  45
ENDBRANCH  32  39
ENDBRANCH  30  33
ENDBRANCH  29  30
ENDBRANCH  27  29
ENDBRANCH  26  28
ENDBRANCH   1  25
TORSDOF 13
ENDMDL
MODEL 7
REMARK VINA RESULT:      -6.4     16.708     21.296
REMARK  Name = 5289155_Peridinin.pdbqt.pdb
REMARK  13 active torsions:
REMARK  status: ('A' for Active; 'I' for Inactive)
REMARK    1  A    between atoms: C_1  and  C_3
REMARK    2  A    between atoms: C_3  and  C_25
REMARK    3  A    between atoms: C_6  and  C_12
REMARK    4  A    between atoms: C_11  and  C_14
REMARK    5  A    between atoms: C_19  and  O_23
REMARK    6  A    between atoms: C_26  and  C_28
REMARK    7  A    between atoms: C_27  and  C_31
REMARK    8  A    between atoms: C_29  and  C_31
REMARK    9  A    between atoms: C_29  and  C_42
REMARK   10  A    between atoms: C_33  and  O_43
REMARK   11  A    between atoms: C_35  and  O_45
REMARK   12  A    between atoms: C_37  and  C_41
REMARK   13  A    between atoms: O_45  and  C_47
REMARK                            x       y       z     vdW  Elec       q    Type
REMARK                         _______ _______ _______ _____ _____    ______ ____
ROOT
ATOM      1  C   UNL     1      32.180  26.992  25.486  0.00  0.00    +0.000 C 
ENDROOT
BRANCH   1   2
ATOM      2  C   UNL     1      31.185  26.982  26.317  0.00  0.00    +0.000 C 
ATOM      3  C   UNL     1      30.202  28.111  26.329  0.00  0.00    +0.000 C 
ATOM      4  O   UNL     1      31.934  24.137  28.400  0.00  0.00    +0.000 OA
ATOM      5  O   UNL     1      32.101  22.659  30.178  0.00  0.00    +0.000 OA
ATOM      6  C   UNL     1      30.058  23.876  29.750  0.00  0.00    +0.000 C 
ATOM      7  C   UNL     1      29.744  24.722  28.839  0.00  0.00    +0.000 C 
ATOM      8  C   UNL     1      31.459  23.454  29.515  0.00  0.00    +0.000 C 
ATOM      9  C   UNL     1      30.834  24.883  27.988  0.00  0.00    +0.000 C 
ATOM     10  C   UNL     1      31.004  25.886  27.190  0.00  0.00    +0.000 C 
BRANCH   6  12
ATOM     11  C   UNL     1      28.454  23.125  31.666  0.00  0.00    +0.000 C 
ATOM     12  C   UNL     1      29.195  23.466  30.783  0.00  0.00    +0.000 C 
BRANCH  11  14
ATOM     13  O   UNL     1      28.078  21.534  33.400  0.00  0.00    +0.000 OA
ATOM     14  C   UNL     1      27.558  22.723  32.738  0.00  0.00    +0.000 C 
ATOM     15  C   UNL     1      28.074  22.719  34.193  0.00  0.00    +0.000 C 
ATOM     16  C   UNL     1      26.008  22.773  32.507  0.00  0.00    +0.000 C 
ATOM     17  C   UNL     1      27.096  22.669  35.233  0.00  0.00    +0.000 C 
ATOM     18  C   UNL     1      25.373  22.622  33.819  0.00  0.00    +0.000 C 
ATOM     19  C   UNL     1      25.693  22.587  35.190  0.00  0.00    +0.000 C 
ATOM     20  C   UNL     1      29.473  23.193  34.595  0.00  0.00    +0.000 C 
ATOM     21  C   UNL     1      25.717  24.178  31.916  0.00  0.00    +0.000 C 
ATOM     22  C   UNL     1      25.672  21.631  31.524  0.00  0.00    +0.000 C 
BRANCH  19  23
ATOM     23  O   UNL     1      24.893  23.176  36.122  0.00  0.00    +0.000 OA
ATOM     24  H   UNL     1      24.324  22.534  36.582  0.00  0.00    +0.000 HD
ENDBRANCH  19  23
ENDBRANCH  11  14
ENDBRANCH   6  12
ENDBRANCH   1   2
BRANCH   1  25
ATOM     25  C   UNL     1      33.355  27.003  24.502  0.00  0.00    +0.000 C 
ATOM     26  C   UNL     1      34.279  27.012  23.736  0.00  0.00    +0.000 C 
BRANCH  26  28
ATOM     27  C   UNL     1      36.387  27.026  21.999  0.00  0.00    +0.000 C 
ATOM     28  C   UNL     1      35.463  27.022  22.764  0.00  0.00    +0.000 C 
BRANCH  27  29
ATOM     29  C   UNL     1      37.566  27.026  21.018  0.00  0.00    +0.000 C 
BRANCH  29  30
ATOM     30  C   UNL     1      38.569  27.028  20.198  0.00  0.00    +0.000 C 
ATOM     31  C   UNL     1      39.615  28.099  20.284  0.00  0.00    +0.000 C 
BRANCH  30  33
ATOM     32  C   UNL     1      38.719  25.211  18.316  0.00  0.00    +0.000 C 
ATOM     33  C   UNL     1      38.650  26.046  19.179  0.00  0.00    +0.000 C 
BRANCH  32  39
ATOM     34  C   UNL     1      37.984  24.399  16.061  0.00  0.00    +0.000 C 
ATOM     35  C   UNL     1      39.630  23.043  17.551  0.00  0.00    +0.000 C 
ATOM     36  C   UNL     1      38.465  23.433  15.065  0.00  0.00    +0.000 C 
ATOM     37  C   UNL     1      39.383  22.367  14.966  0.00  0.00    +0.000 C 
ATOM     38  C   UNL     1      39.858  22.339  16.294  0.00  0.00    +0.000 C 
ATOM     39  C   UNL     1      38.787  24.295  17.371  0.00  0.00    +0.000 C 
ATOM     40  C   UNL     1      38.159  25.830  15.467  0.00  0.00    +0.000 C 
ATOM     41  C   UNL     1      36.487  24.135  16.375  0.00  0.00    +0.000 C 
ATOM     42  C   UNL     1      39.017  22.117  18.606  0.00  0.00    +0.000 C 
BRANCH  35  43
ATOM     43  O   UNL     1      40.891  23.405  18.072  0.00  0.00    +0.000 OA
ATOM     44  H   UNL     1      41.309  22.531  18.187  0.00  0.00    +0.000 HD
ENDBRANCH  35  43
BRANCH  37  45
ATOM     45  O   UNL     1      38.990  21.193  14.336  0.00  0.00    +0.000 OA
BRANCH  45  47
ATOM     46  O   UNL     1      40.756  21.538  12.832  0.00  0.00    +0.000 OA
ATOM     47  C   UNL     1      39.749  20.985  13.233  0.00  0.00    +0.000 C 
ATOM     48  C   UNL     1      39.256  19.893  12.351  0.00  0.00    +0.000 C 
ENDBRANCH  45  47
ENDBRANCH  37  45
ENDBRANCH  32  39
ENDBRANCH  30  33
ENDBRANCH  29  30
ENDBRANCH  27  29
ENDBRANCH  26  28
ENDBRANCH   1  25
TORSDOF 13
ENDMDL
MODEL 8
REMARK VINA RESULT:      -6.3     21.421     27.568
REMARK  Name = 5289155_Peridinin.pdbqt.pdb
REMARK  13 active torsions:
REMARK  status: ('A' for Active; 'I' for Inactive)
REMARK    1  A    between atoms: C_1  and  C_3
REMARK    2  A    between atoms: C_3  and  C_25
REMARK    3  A    between atoms: C_6  and  C_12
REMARK    4  A    between atoms: C_11  and  C_14
REMARK    5  A    between atoms: C_19  and  O_23
REMARK    6  A    between atoms: C_26  and  C_28
REMARK    7  A    between atoms: C_27  and  C_31
REMARK    8  A    between atoms: C_29  and  C_31
REMARK    9  A    between atoms: C_29  and  C_42
REMARK   10  A    between atoms: C_33  and  O_43
REMARK   11  A    between atoms: C_35  and  O_45
REMARK   12  A    between atoms: C_37  and  C_41
REMARK   13  A    between atoms: O_45  and  C_47
REMARK                            x       y       z     vdW  Elec       q    Type
REMARK                         _______ _______ _______ _____ _____    ______ ____
ROOT
ATOM      1  C   UNL     1      22.336   3.468   4.602  0.00  0.00    +0.000 C 
ENDROOT
BRANCH   1   2
ATOM      2  C   UNL     1      23.467   3.571   3.978  0.00  0.00    +0.000 C 
ATOM      3  C   UNL     1      23.675   4.660   2.971  0.00  0.00    +0.000 C 
ATOM      4  O   UNL     1      25.204   0.585   5.004  0.00  0.00    +0.000 OA
ATOM      5  O   UNL     1      26.591  -1.271   5.083  0.00  0.00    +0.000 OA
ATOM      6  C   UNL     1      27.355   0.822   4.150  0.00  0.00    +0.000 C 
ATOM      7  C   UNL     1      26.775   1.958   4.013  0.00  0.00    +0.000 C 
ATOM      8  C   UNL     1      26.394  -0.105   4.793  0.00  0.00    +0.000 C 
ATOM      9  C   UNL     1      25.490   1.866   4.542  0.00  0.00    +0.000 C 
ATOM     10  C   UNL     1      24.522   2.679   4.273  0.00  0.00    +0.000 C 
BRANCH   6  12
ATOM     11  C   UNL     1      29.794   0.309   3.380  0.00  0.00    +0.000 C 
ATOM     12  C   UNL     1      28.670   0.547   3.730  0.00  0.00    +0.000 C 
BRANCH  11  14
ATOM     13  O   UNL     1      31.901  -0.561   4.078  0.00  0.00    +0.000 OA
ATOM     14  C   UNL     1      31.159   0.021   2.967  0.00  0.00    +0.000 C 
ATOM     15  C   UNL     1      31.661  -1.438   2.980  0.00  0.00    +0.000 C 
ATOM     16  C   UNL     1      31.931   1.058   2.078  0.00  0.00    +0.000 C 
ATOM     17  C   UNL     1      32.853  -1.725   2.247  0.00  0.00    +0.000 C 
ATOM     18  C   UNL     1      33.127   0.381   1.570  0.00  0.00    +0.000 C 
ATOM     19  C   UNL     1      33.716  -0.896   1.511  0.00  0.00    +0.000 C 
ATOM     20  C   UNL     1      30.772  -2.634   3.332  0.00  0.00    +0.000 C 
ATOM     21  C   UNL     1      30.966   1.412   0.915  0.00  0.00    +0.000 C 
ATOM     22  C   UNL     1      32.244   2.269   2.984  0.00  0.00    +0.000 C 
BRANCH  19  23
ATOM     23  O   UNL     1      34.374  -1.325   0.397  0.00  0.00    +0.000 OA
ATOM     24  H   UNL     1      34.954  -2.086   0.578  0.00  0.00    +0.000 HD
ENDBRANCH  19  23
ENDBRANCH  11  14
ENDBRANCH   6  12
ENDBRANCH   1   2
BRANCH   1  25
ATOM     25  C   UNL     1      20.998   3.346   5.339  0.00  0.00    +0.000 C 
ATOM     26  C   UNL     1      19.953   3.250   5.921  0.00  0.00    +0.000 C 
BRANCH  26  28
ATOM     27  C   UNL     1      17.583   3.031   7.261  0.00  0.00    +0.000 C 
ATOM     28  C   UNL     1      18.623   3.125   6.670  0.00  0.00    +0.000 C 
BRANCH  27  29
ATOM     29  C   UNL     1      16.257   2.912   8.024  0.00  0.00    +0.000 C 
BRANCH  29  30
ATOM     30  C   UNL     1      15.141   2.802   8.672  0.00  0.00    +0.000 C 
ATOM     31  C   UNL     1      13.835   3.029   7.973  0.00  0.00    +0.000 C 
BRANCH  30  33
ATOM     32  C   UNL     1      15.169   2.284  11.240  0.00  0.00    +0.000 C 
ATOM     33  C   UNL     1      15.155   2.520  10.061  0.00  0.00    +0.000 C 
BRANCH  32  39
ATOM     34  C   UNL     1      15.634   0.674  13.104  0.00  0.00    +0.000 C 
ATOM     35  C   UNL     1      14.681   3.055  13.539  0.00  0.00    +0.000 C 
ATOM     36  C   UNL     1      15.842   0.751  14.556  0.00  0.00    +0.000 C 
ATOM     37  C   UNL     1      15.665   1.667  15.613  0.00  0.00    +0.000 C 
ATOM     38  C   UNL     1      15.089   2.740  14.904  0.00  0.00    +0.000 C 
ATOM     39  C   UNL     1      15.179   2.029  12.533  0.00  0.00    +0.000 C 
ATOM     40  C   UNL     1      16.988   0.270  12.444  0.00  0.00    +0.000 C 
ATOM     41  C   UNL     1      14.549  -0.389  12.781  0.00  0.00    +0.000 C 
ATOM     42  C   UNL     1      13.162   3.229  13.437  0.00  0.00    +0.000 C 
BRANCH  35  43
ATOM     43  O   UNL     1      15.215   4.319  13.214  0.00  0.00    +0.000 OA
ATOM     44  H   UNL     1      14.430   4.891  13.311  0.00  0.00    +0.000 HD
ENDBRANCH  35  43
BRANCH  37  45
ATOM     45  O   UNL     1      15.098   1.225  16.802  0.00  0.00    +0.000 OA
BRANCH  45  47
ATOM     46  O   UNL     1      17.122   1.570  17.935  0.00  0.00    +0.000 OA
ATOM     47  C   UNL     1      15.910   1.532  17.843  0.00  0.00    +0.000 C 
ATOM     48  C   UNL     1      15.187   1.871  19.099  0.00  0.00    +0.000 C 
ENDBRANCH  45  47
ENDBRANCH  37  45
ENDBRANCH  32  39
ENDBRANCH  30  33
ENDBRANCH  29  30
ENDBRANCH  27  29
ENDBRANCH  26  28
ENDBRANCH   1  25
TORSDOF 13
ENDMDL
MODEL 9
REMARK VINA RESULT:      -6.3     34.030     37.513
REMARK  Name = 5289155_Peridinin.pdbqt.pdb
REMARK  13 active torsions:
REMARK  status: ('A' for Active; 'I' for Inactive)
REMARK    1  A    between atoms: C_1  and  C_3
REMARK    2  A    between atoms: C_3  and  C_25
REMARK    3  A    between atoms: C_6  and  C_12
REMARK    4  A    between atoms: C_11  and  C_14
REMARK    5  A    between atoms: C_19  and  O_23
REMARK    6  A    between atoms: C_26  and  C_28
REMARK    7  A    between atoms: C_27  and  C_31
REMARK    8  A    between atoms: C_29  and  C_31
REMARK    9  A    between atoms: C_29  and  C_42
REMARK   10  A    between atoms: C_33  and  O_43
REMARK   11  A    between atoms: C_35  and  O_45
REMARK   12  A    between atoms: C_37  and  C_41
REMARK   13  A    between atoms: O_45  and  C_47
REMARK                            x       y       z     vdW  Elec       q    Type
REMARK                         _______ _______ _______ _____ _____    ______ ____
ROOT
ATOM      1  C   UNL     1      21.924  -9.052  44.951  0.00  0.00    +0.000 C 
ENDROOT
BRANCH   1   2
ATOM      2  C   UNL     1      20.790  -8.541  44.584  0.00  0.00    +0.000 C 
ATOM      3  C   UNL     1      19.689  -8.356  45.582  0.00  0.00    +0.000 C 
ATOM      4  O   UNL     1      21.139  -8.353  41.001  0.00  0.00    +0.000 OA
ATOM      5  O   UNL     1      20.724  -8.312  38.721  0.00  0.00    +0.000 OA
ATOM      6  C   UNL     1      19.258  -7.191  40.279  0.00  0.00    +0.000 C 
ATOM      7  C   UNL     1      19.296  -7.077  41.556  0.00  0.00    +0.000 C 
ATOM      8  C   UNL     1      20.428  -7.997  39.859  0.00  0.00    +0.000 C 
ATOM      9  C   UNL     1      20.429  -7.736  42.026  0.00  0.00    +0.000 C 
ATOM     10  C   UNL     1      20.603  -8.122  43.247  0.00  0.00    +0.000 C 
BRANCH   6  12
ATOM     11  C   UNL     1      17.393  -6.167  38.769  0.00  0.00    +0.000 C 
ATOM     12  C   UNL     1      18.250  -6.643  39.464  0.00  0.00    +0.000 C 
BRANCH  11  14
ATOM     13  O   UNL     1      16.906  -5.256  36.621  0.00  0.00    +0.000 OA
ATOM     14  C   UNL     1      16.359  -5.580  37.932  0.00  0.00    +0.000 C 
ATOM     15  C   UNL     1      15.936  -6.300  36.634  0.00  0.00    +0.000 C 
ATOM     16  C   UNL     1      15.365  -4.537  38.552  0.00  0.00    +0.000 C 
ATOM     17  C   UNL     1      14.703  -5.900  36.036  0.00  0.00    +0.000 C 
ATOM     18  C   UNL     1      14.272  -4.362  37.591  0.00  0.00    +0.000 C 
ATOM     19  C   UNL     1      13.771  -4.912  36.396  0.00  0.00    +0.000 C 
ATOM     20  C   UNL     1      16.494  -7.660  36.203  0.00  0.00    +0.000 C 
ATOM     21  C   UNL     1      14.844  -5.183  39.863  0.00  0.00    +0.000 C 
ATOM     22  C   UNL     1      16.177  -3.248  38.803  0.00  0.00    +0.000 C 
BRANCH  19  23
ATOM     23  O   UNL     1      12.432  -5.051  36.183  0.00  0.00    +0.000 OA
ATOM     24  H   UNL     1      11.928  -5.107  37.015  0.00  0.00    +0.000 HD
ENDBRANCH  19  23
ENDBRANCH  11  14
ENDBRANCH   6  12
ENDBRANCH   1   2
BRANCH   1  25
ATOM     25  C   UNL     1      23.264  -9.657  45.384  0.00  0.00    +0.000 C 
ATOM     26  C   UNL     1      24.315 -10.130  45.717  0.00  0.00    +0.000 C 
BRANCH  26  28
ATOM     27  C   UNL     1      26.709 -11.213  46.463  0.00  0.00    +0.000 C 
ATOM     28  C   UNL     1      25.659 -10.735  46.136  0.00  0.00    +0.000 C 
BRANCH  27  29
ATOM     29  C   UNL     1      28.048 -11.831  46.885  0.00  0.00    +0.000 C 
BRANCH  29  30
ATOM     30  C   UNL     1      29.181 -12.344  47.247  0.00  0.00    +0.000 C 
ATOM     31  C   UNL     1      29.251 -13.761  47.730  0.00  0.00    +0.000 C 
BRANCH  30  33
ATOM     32  C   UNL     1      31.345 -10.866  47.236  0.00  0.00    +0.000 C 
ATOM     33  C   UNL     1      30.352 -11.545  47.240  0.00  0.00    +0.000 C 
BRANCH  32  39
ATOM     34  C   UNL     1      33.433 -10.122  46.067  0.00  0.00    +0.000 C 
ATOM     35  C   UNL     1      32.794  -9.261  48.437  0.00  0.00    +0.000 C 
ATOM     36  C   UNL     1      34.377  -9.001  46.175  0.00  0.00    +0.000 C 
ATOM     37  C   UNL     1      34.712  -7.970  47.076  0.00  0.00    +0.000 C 
ATOM     38  C   UNL     1      33.814  -8.268  48.122  0.00  0.00    +0.000 C 
ATOM     39  C   UNL     1      32.433 -10.123  47.237  0.00  0.00    +0.000 C 
ATOM     40  C   UNL     1      32.650  -9.963  44.727  0.00  0.00    +0.000 C 
ATOM     41  C   UNL     1      34.206 -11.467  46.073  0.00  0.00    +0.000 C 
ATOM     42  C   UNL     1      33.208 -10.128  49.630  0.00  0.00    +0.000 C 
BRANCH  35  43
ATOM     43  O   UNL     1      31.644  -8.569  48.871  0.00  0.00    +0.000 OA
ATOM     44  H   UNL     1      31.984  -8.105  49.659  0.00  0.00    +0.000 HD
ENDBRANCH  35  43
BRANCH  37  45
ATOM     45  O   UNL     1      36.051  -7.720  47.349  0.00  0.00    +0.000 OA
BRANCH  45  47
ATOM     46  O   UNL     1      36.164  -5.384  47.527  0.00  0.00    +0.000 OA
ATOM     47  C   UNL     1      36.368  -6.454  46.984  0.00  0.00    +0.000 C 
ATOM     48  C   UNL     1      37.082  -6.356  45.682  0.00  0.00    +0.000 C 
ENDBRANCH  45  47
ENDBRANCH  37  45
ENDBRANCH  32  39
ENDBRANCH  30  33
ENDBRANCH  29  30
ENDBRANCH  27  29
ENDBRANCH  26  28
ENDBRANCH   1  25
TORSDOF 13
ENDMDL
