MODEL 1
REMARK VINA RESULT:      -7.1      0.000      0.000
REMARK  Name = 5318517_Andrographolide.pdbqt.pdb
REMARK  6 active torsions:
REMARK  status: ('A' for Active; 'I' for Inactive)
REMARK    1  A    between atoms: C_3  and  C_16
REMARK    2  A    between atoms: C_4  and  C_19
REMARK    3  A    between atoms: C_6  and  O_14
REMARK    4  A    between atoms: C_16  and  O_17
REMARK    5  A    between atoms: C_22  and  C_23
REMARK    6  A    between atoms: C_24  and  O_27
REMARK                            x       y       z     vdW  Elec       q    Type
REMARK                         _______ _______ _______ _____ _____    ______ ____
ROOT
ATOM      1  C   UNL     1      19.351   8.557  20.614  0.00  0.00    +0.000 C 
ATOM      2  C   UNL     1      19.480  10.086  20.343  0.00  0.00    +0.000 C 
ATOM      3  C   UNL     1      18.651  11.135  21.104  0.00  0.00    +0.000 C 
ATOM      4  C   UNL     1      19.650   7.602  19.423  0.00  0.00    +0.000 C 
ATOM      5  C   UNL     1      17.973   8.377  21.063  0.00  0.00    +0.000 C 
ATOM      6  C   UNL     1      17.296  10.664  21.714  0.00  0.00    +0.000 C 
ATOM      7  C   UNL     1      20.396  10.405  19.300  0.00  0.00    +0.000 C 
ATOM      8  C   UNL     1      16.940   9.308  21.600  0.00  0.00    +0.000 C 
ATOM      9  C   UNL     1      20.349   8.207  21.760  0.00  0.00    +0.000 C 
ATOM     10  C   UNL     1      20.936   9.377  18.358  0.00  0.00    +0.000 C 
ATOM     11  C   UNL     1      20.599   8.008  18.377  0.00  0.00    +0.000 C 
ATOM     12  C   UNL     1      18.282  12.281  20.093  0.00  0.00    +0.000 C 
ATOM     13  C   UNL     1      20.969   7.259  17.337  0.00  0.00    +0.000 C 
ENDROOT
BRANCH   6  14
ATOM     14  O   UNL     1      16.553  11.505  22.524  0.00  0.00    +0.000 OA
ATOM     15  H   UNL     1      17.105  12.178  22.961  0.00  0.00    +0.000 HD
ENDBRANCH   6  14
BRANCH   4  16
ATOM     16  C   UNL     1      19.101   6.276  19.405  0.00  0.00    +0.000 C 
ATOM     17  C   UNL     1      18.524   4.857  19.393  0.00  0.00    +0.000 C 
BRANCH  17  20
ATOM     18  O   UNL     1      17.094   1.708  20.243  0.00  0.00    +0.000 OA
ATOM     19  O   UNL     1      17.969   3.204  21.803  0.00  0.00    +0.000 OA
ATOM     20  C   UNL     1      18.031   3.658  19.391  0.00  0.00    +0.000 C 
ATOM     21  C   UNL     1      17.594   2.888  18.255  0.00  0.00    +0.000 C 
ATOM     22  C   UNL     1      17.722   2.880  20.655  0.00  0.00    +0.000 C 
ATOM     23  C   UNL     1      17.051   1.787  18.921  0.00  0.00    +0.000 C 
BRANCH  21  24
ATOM     24  O   UNL     1      17.014   3.507  17.184  0.00  0.00    +0.000 OA
ATOM     25  H   UNL     1      16.057   3.628  17.311  0.00  0.00    +0.000 HD
ENDBRANCH  21  24
ENDBRANCH  17  20
ENDBRANCH   4  16
BRANCH   3  26
ATOM     26  C   UNL     1      19.502  11.673  22.203  0.00  0.00    +0.000 C 
BRANCH  26  27
ATOM     27  O   UNL     1      20.270  12.144  23.190  0.00  0.00    +0.000 OA
ATOM     28  H   UNL     1      19.723  12.430  23.944  0.00  0.00    +0.000 HD
ENDBRANCH  26  27
ENDBRANCH   3  26
TORSDOF 6
ENDMDL
MODEL 2
REMARK VINA RESULT:      -6.9     20.290     22.675
REMARK  Name = 5318517_Andrographolide.pdbqt.pdb
REMARK  6 active torsions:
REMARK  status: ('A' for Active; 'I' for Inactive)
REMARK    1  A    between atoms: C_3  and  C_16
REMARK    2  A    between atoms: C_4  and  C_19
REMARK    3  A    between atoms: C_6  and  O_14
REMARK    4  A    between atoms: C_16  and  O_17
REMARK    5  A    between atoms: C_22  and  C_23
REMARK    6  A    between atoms: C_24  and  O_27
REMARK                            x       y       z     vdW  Elec       q    Type
REMARK                         _______ _______ _______ _____ _____    ______ ____
ROOT
ATOM      1  C   UNL     1      39.622   1.680  11.519  0.00  0.00    +0.000 C 
ATOM      2  C   UNL     1      39.833   2.617  10.292  0.00  0.00    +0.000 C 
ATOM      3  C   UNL     1      40.408   4.038  10.424  0.00  0.00    +0.000 C 
ATOM      4  C   UNL     1      38.472   0.638  11.420  0.00  0.00    +0.000 C 
ATOM      5  C   UNL     1      39.378   2.586  12.637  0.00  0.00    +0.000 C 
ATOM      6  C   UNL     1      40.239   4.748  11.802  0.00  0.00    +0.000 C 
ATOM      7  C   UNL     1      39.401   2.049   9.060  0.00  0.00    +0.000 C 
ATOM      8  C   UNL     1      39.641   4.037  12.858  0.00  0.00    +0.000 C 
ATOM      9  C   UNL     1      40.952   0.894  11.732  0.00  0.00    +0.000 C 
ATOM     10  C   UNL     1      38.551   0.821   8.991  0.00  0.00    +0.000 C 
ATOM     11  C   UNL     1      38.073   0.106  10.108  0.00  0.00    +0.000 C 
ATOM     12  C   UNL     1      39.667   4.955   9.385  0.00  0.00    +0.000 C 
ATOM     13  C   UNL     1      37.137  -0.822   9.904  0.00  0.00    +0.000 C 
ENDROOT
BRANCH   6  14
ATOM     14  O   UNL     1      40.841   5.970  12.048  0.00  0.00    +0.000 OA
ATOM     15  H   UNL     1      41.502   5.919  12.760  0.00  0.00    +0.000 HD
ENDBRANCH   6  14
BRANCH   4  16
ATOM     16  C   UNL     1      37.882   0.096  12.611  0.00  0.00    +0.000 C 
ATOM     17  C   UNL     1      37.244  -0.486  13.876  0.00  0.00    +0.000 C 
BRANCH  17  20
ATOM     18  O   UNL     1      35.031  -1.560  16.452  0.00  0.00    +0.000 OA
ATOM     19  O   UNL     1      34.448  -0.035  14.786  0.00  0.00    +0.000 OA
ATOM     20  C   UNL     1      36.706  -0.987  14.944  0.00  0.00    +0.000 C 
ATOM     21  C   UNL     1      37.302  -1.902  15.884  0.00  0.00    +0.000 C 
ATOM     22  C   UNL     1      35.258  -0.763  15.333  0.00  0.00    +0.000 C 
ATOM     23  C   UNL     1      36.189  -2.159  16.688  0.00  0.00    +0.000 C 
BRANCH  21  24
ATOM     24  O   UNL     1      38.183  -2.854  15.455  0.00  0.00    +0.000 OA
ATOM     25  H   UNL     1      37.835  -3.754  15.587  0.00  0.00    +0.000 HD
ENDBRANCH  21  24
ENDBRANCH  17  20
ENDBRANCH   4  16
BRANCH   3  26
ATOM     26  C   UNL     1      41.862   3.968  10.104  0.00  0.00    +0.000 C 
BRANCH  26  27
ATOM     27  O   UNL     1      43.169   3.912   9.828  0.00  0.00    +0.000 OA
ATOM     28  H   UNL     1      43.323   4.035   8.873  0.00  0.00    +0.000 HD
ENDBRANCH  26  27
ENDBRANCH   3  26
TORSDOF 6
ENDMDL
MODEL 3
REMARK VINA RESULT:      -6.6     18.217     20.358
REMARK  Name = 5318517_Andrographolide.pdbqt.pdb
REMARK  6 active torsions:
REMARK  status: ('A' for Active; 'I' for Inactive)
REMARK    1  A    between atoms: C_3  and  C_16
REMARK    2  A    between atoms: C_4  and  C_19
REMARK    3  A    between atoms: C_6  and  O_14
REMARK    4  A    between atoms: C_16  and  O_17
REMARK    5  A    between atoms: C_22  and  C_23
REMARK    6  A    between atoms: C_24  and  O_27
REMARK                            x       y       z     vdW  Elec       q    Type
REMARK                         _______ _______ _______ _____ _____    ______ ____
ROOT
ATOM      1  C   UNL     1      28.396   1.148   3.848  0.00  0.00    +0.000 C 
ATOM      2  C   UNL     1      29.726   1.502   3.116  0.00  0.00    +0.000 C 
ATOM      3  C   UNL     1      29.849   2.696   2.153  0.00  0.00    +0.000 C 
ATOM      4  C   UNL     1      28.163  -0.348   4.201  0.00  0.00    +0.000 C 
ATOM      5  C   UNL     1      27.345   1.617   2.949  0.00  0.00    +0.000 C 
ATOM      6  C   UNL     1      28.541   3.192   1.466  0.00  0.00    +0.000 C 
ATOM      7  C   UNL     1      30.786   0.592   3.390  0.00  0.00    +0.000 C 
ATOM      8  C   UNL     1      27.323   2.579   1.810  0.00  0.00    +0.000 C 
ATOM      9  C   UNL     1      28.375   1.955   5.182  0.00  0.00    +0.000 C 
ATOM     10  C   UNL     1      30.566  -0.730   4.052  0.00  0.00    +0.000 C 
ATOM     11  C   UNL     1      29.311  -1.230   4.459  0.00  0.00    +0.000 C 
ATOM     12  C   UNL     1      30.805   2.270   0.980  0.00  0.00    +0.000 C 
ATOM     13  C   UNL     1      29.235  -2.513   4.814  0.00  0.00    +0.000 C 
ENDROOT
BRANCH   6  14
ATOM     14  O   UNL     1      28.539   4.339   0.691  0.00  0.00    +0.000 OA
ATOM     15  H   UNL     1      28.298   5.131   1.204  0.00  0.00    +0.000 HD
ENDBRANCH   6  14
BRANCH   4  16
ATOM     16  C   UNL     1      26.831  -0.845   4.403  0.00  0.00    +0.000 C 
ATOM     17  C   UNL     1      25.413  -1.384   4.612  0.00  0.00    +0.000 C 
BRANCH  17  20
ATOM     18  O   UNL     1      22.141  -2.743   4.245  0.00  0.00    +0.000 OA
ATOM     19  O   UNL     1      23.415  -1.919   2.473  0.00  0.00    +0.000 OA
ATOM     20  C   UNL     1      24.216  -1.847   4.793  0.00  0.00    +0.000 C 
ATOM     21  C   UNL     1      23.608  -2.256   6.034  0.00  0.00    +0.000 C 
ATOM     22  C   UNL     1      23.255  -2.147   3.659  0.00  0.00    +0.000 C 
ATOM     23  C   UNL     1      22.410  -2.777   5.541  0.00  0.00    +0.000 C 
BRANCH  21  24
ATOM     24  O   UNL     1      24.363  -2.841   7.011  0.00  0.00    +0.000 OA
ATOM     25  H   UNL     1      23.880  -2.901   7.854  0.00  0.00    +0.000 HD
ENDBRANCH  21  24
ENDBRANCH  17  20
ENDBRANCH   4  16
BRANCH   3  26
ATOM     26  C   UNL     1      30.443   3.831   2.915  0.00  0.00    +0.000 C 
BRANCH  26  27
ATOM     27  O   UNL     1      30.981   4.852   3.588  0.00  0.00    +0.000 OA
ATOM     28  H   UNL     1      30.757   5.700   3.162  0.00  0.00    +0.000 HD
ENDBRANCH  26  27
ENDBRANCH   3  26
TORSDOF 6
ENDMDL
MODEL 4
REMARK VINA RESULT:      -6.5      4.017      8.722
REMARK  Name = 5318517_Andrographolide.pdbqt.pdb
REMARK  6 active torsions:
REMARK  status: ('A' for Active; 'I' for Inactive)
REMARK    1  A    between atoms: C_3  and  C_16
REMARK    2  A    between atoms: C_4  and  C_19
REMARK    3  A    between atoms: C_6  and  O_14
REMARK    4  A    between atoms: C_16  and  O_17
REMARK    5  A    between atoms: C_22  and  C_23
REMARK    6  A    between atoms: C_24  and  O_27
REMARK                            x       y       z     vdW  Elec       q    Type
REMARK                         _______ _______ _______ _____ _____    ______ ____
ROOT
ATOM      1  C   UNL     1      19.603  10.817  18.628  0.00  0.00    +0.000 C 
ATOM      2  C   UNL     1      19.618   9.345  19.140  0.00  0.00    +0.000 C 
ATOM      3  C   UNL     1      18.777   8.878  20.342  0.00  0.00    +0.000 C 
ATOM      4  C   UNL     1      20.898  11.337  17.942  0.00  0.00    +0.000 C 
ATOM      5  C   UNL     1      19.311  11.618  19.813  0.00  0.00    +0.000 C 
ATOM      6  C   UNL     1      18.371   9.960  21.388  0.00  0.00    +0.000 C 
ATOM      7  C   UNL     1      20.513   8.501  18.424  0.00  0.00    +0.000 C 
ATOM      8  C   UNL     1      18.727  11.299  21.148  0.00  0.00    +0.000 C 
ATOM      9  C   UNL     1      18.443  10.931  17.591  0.00  0.00    +0.000 C 
ATOM     10  C   UNL     1      21.553   9.033  17.491  0.00  0.00    +0.000 C 
ATOM     11  C   UNL     1      21.780  10.400  17.230  0.00  0.00    +0.000 C 
ATOM     12  C   UNL     1      19.624   7.820  21.138  0.00  0.00    +0.000 C 
ATOM     13  C   UNL     1      22.888  10.735  16.567  0.00  0.00    +0.000 C 
ENDROOT
BRANCH   6  14
ATOM     14  O   UNL     1      17.507   9.653  22.425  0.00  0.00    +0.000 OA
ATOM     15  H   UNL     1      16.788   9.060  22.143  0.00  0.00    +0.000 HD
ENDBRANCH   6  14
BRANCH   4  16
ATOM     16  C   UNL     1      21.174  12.745  17.890  0.00  0.00    +0.000 C 
ATOM     17  C   UNL     1      21.465  14.248  17.846  0.00  0.00    +0.000 C 
BRANCH  17  20
ATOM     18  O   UNL     1      21.642  17.718  17.060  0.00  0.00    +0.000 OA
ATOM     19  O   UNL     1      20.801  16.095  15.610  0.00  0.00    +0.000 OA
ATOM     20  C   UNL     1      21.719  15.519  17.813  0.00  0.00    +0.000 C 
ATOM     21  C   UNL     1      22.314  16.325  18.849  0.00  0.00    +0.000 C 
ATOM     22  C   UNL     1      21.312  16.423  16.666  0.00  0.00    +0.000 C 
ATOM     23  C   UNL     1      22.176  17.585  18.265  0.00  0.00    +0.000 C 
BRANCH  21  24
ATOM     24  O   UNL     1      22.066  16.049  20.164  0.00  0.00    +0.000 OA
ATOM     25  H   UNL     1      22.889  15.922  20.668  0.00  0.00    +0.000 HD
ENDBRANCH  21  24
ENDBRANCH  17  20
ENDBRANCH   4  16
BRANCH   3  26
ATOM     26  C   UNL     1      17.537   8.248  19.807  0.00  0.00    +0.000 C 
BRANCH  26  27
ATOM     27  O   UNL     1      16.423   7.678  19.339  0.00  0.00    +0.000 OA
ATOM     28  H   UNL     1      15.895   7.306  20.068  0.00  0.00    +0.000 HD
ENDBRANCH  26  27
ENDBRANCH   3  26
TORSDOF 6
ENDMDL
MODEL 5
REMARK VINA RESULT:      -6.3     27.912     30.813
REMARK  Name = 5318517_Andrographolide.pdbqt.pdb
REMARK  6 active torsions:
REMARK  status: ('A' for Active; 'I' for Inactive)
REMARK    1  A    between atoms: C_3  and  C_16
REMARK    2  A    between atoms: C_4  and  C_19
REMARK    3  A    between atoms: C_6  and  O_14
REMARK    4  A    between atoms: C_16  and  O_17
REMARK    5  A    between atoms: C_22  and  C_23
REMARK    6  A    between atoms: C_24  and  O_27
REMARK                            x       y       z     vdW  Elec       q    Type
REMARK                         _______ _______ _______ _____ _____    ______ ____
ROOT
ATOM      1  C   UNL     1      46.057  -3.569   9.582  0.00  0.00    +0.000 C 
ATOM      2  C   UNL     1      46.819  -4.830   9.073  0.00  0.00    +0.000 C 
ATOM      3  C   UNL     1      47.309  -4.972   7.621  0.00  0.00    +0.000 C 
ATOM      4  C   UNL     1      45.048  -3.778  10.747  0.00  0.00    +0.000 C 
ATOM      5  C   UNL     1      45.360  -3.060   8.404  0.00  0.00    +0.000 C 
ATOM      6  C   UNL     1      46.557  -4.146   6.534  0.00  0.00    +0.000 C 
ATOM      7  C   UNL     1      46.971  -5.842  10.063  0.00  0.00    +0.000 C 
ATOM      8  C   UNL     1      45.532  -3.272   6.939  0.00  0.00    +0.000 C 
ATOM      9  C   UNL     1      47.130  -2.547  10.067  0.00  0.00    +0.000 C 
ATOM     10  C   UNL     1      46.213  -5.832  11.351  0.00  0.00    +0.000 C 
ATOM     11  C   UNL     1      45.267  -4.855  11.724  0.00  0.00    +0.000 C 
ATOM     12  C   UNL     1      47.136  -6.477   7.201  0.00  0.00    +0.000 C 
ATOM     13  C   UNL     1      44.499  -5.101  12.787  0.00  0.00    +0.000 C 
ENDROOT
BRANCH   6  14
ATOM     14  O   UNL     1      47.015  -4.112   5.228  0.00  0.00    +0.000 OA
ATOM     15  H   UNL     1      47.248  -4.997   4.896  0.00  0.00    +0.000 HD
ENDBRANCH   6  14
BRANCH   4  16
ATOM     16  C   UNL     1      43.973  -2.848  10.949  0.00  0.00    +0.000 C 
ATOM     17  C   UNL     1      42.825  -1.860  11.174  0.00  0.00    +0.000 C 
BRANCH  17  20
ATOM     18  O   UNL     1      40.809   1.036  11.659  0.00  0.00    +0.000 OA
ATOM     19  O   UNL     1      43.138   1.035  11.785  0.00  0.00    +0.000 OA
ATOM     20  C   UNL     1      41.858  -1.020  11.372  0.00  0.00    +0.000 C 
ATOM     21  C   UNL     1      40.442  -1.271  11.286  0.00  0.00    +0.000 C 
ATOM     22  C   UNL     1      42.076   0.458  11.631  0.00  0.00    +0.000 C 
ATOM     23  C   UNL     1      39.969   0.032  11.455  0.00  0.00    +0.000 C 
BRANCH  21  24
ATOM     24  O   UNL     1      39.954  -2.159  10.370  0.00  0.00    +0.000 OA
ATOM     25  H   UNL     1      40.041  -1.824   9.460  0.00  0.00    +0.000 HD
ENDBRANCH  21  24
ENDBRANCH  17  20
ENDBRANCH   4  16
BRANCH   3  26
ATOM     26  C   UNL     1      48.750  -4.592   7.592  0.00  0.00    +0.000 C 
BRANCH  26  27
ATOM     27  O   UNL     1      50.044  -4.258   7.575  0.00  0.00    +0.000 OA
ATOM     28  H   UNL     1      50.181  -3.397   8.010  0.00  0.00    +0.000 HD
ENDBRANCH  26  27
ENDBRANCH   3  26
TORSDOF 6
ENDMDL
MODEL 6
REMARK VINA RESULT:      -6.2     20.339     23.036
REMARK  Name = 5318517_Andrographolide.pdbqt.pdb
REMARK  6 active torsions:
REMARK  status: ('A' for Active; 'I' for Inactive)
REMARK    1  A    between atoms: C_3  and  C_16
REMARK    2  A    between atoms: C_4  and  C_19
REMARK    3  A    between atoms: C_6  and  O_14
REMARK    4  A    between atoms: C_16  and  O_17
REMARK    5  A    between atoms: C_22  and  C_23
REMARK    6  A    between atoms: C_24  and  O_27
REMARK                            x       y       z     vdW  Elec       q    Type
REMARK                         _______ _______ _______ _____ _____    ______ ____
ROOT
ATOM      1  C   UNL     1      39.189   1.335   9.952  0.00  0.00    +0.000 C 
ATOM      2  C   UNL     1      39.596   1.607   8.472  0.00  0.00    +0.000 C 
ATOM      3  C   UNL     1      40.274   2.915   8.026  0.00  0.00    +0.000 C 
ATOM      4  C   UNL     1      37.970   0.398  10.185  0.00  0.00    +0.000 C 
ATOM      5  C   UNL     1      38.915   2.657  10.507  0.00  0.00    +0.000 C 
ATOM      6  C   UNL     1      40.032   4.177   8.909  0.00  0.00    +0.000 C 
ATOM      7  C   UNL     1      39.239   0.556   7.580  0.00  0.00    +0.000 C 
ATOM      8  C   UNL     1      39.278   4.041  10.088  0.00  0.00    +0.000 C 
ATOM      9  C   UNL     1      40.421   0.690  10.656  0.00  0.00    +0.000 C 
ATOM     10  C   UNL     1      38.299  -0.542   7.961  0.00  0.00    +0.000 C 
ATOM     11  C   UNL     1      37.657  -0.657   9.211  0.00  0.00    +0.000 C 
ATOM     12  C   UNL     1      39.717   3.284   6.603  0.00  0.00    +0.000 C 
ATOM     13  C   UNL     1      36.670  -1.547   9.327  0.00  0.00    +0.000 C 
ENDROOT
BRANCH   6  14
ATOM     14  O   UNL     1      40.709   5.358   8.656  0.00  0.00    +0.000 OA
ATOM     15  H   UNL     1      41.666   5.219   8.550  0.00  0.00    +0.000 HD
ENDBRANCH   6  14
BRANCH   4  16
ATOM     16  C   UNL     1      37.224   0.474  11.410  0.00  0.00    +0.000 C 
ATOM     17  C   UNL     1      36.436   0.563  12.720  0.00  0.00    +0.000 C 
BRANCH  17  20
ATOM     18  O   UNL     1      35.261   0.333  16.074  0.00  0.00    +0.000 OA
ATOM     19  O   UNL     1      36.997  -0.964  15.211  0.00  0.00    +0.000 OA
ATOM     20  C   UNL     1      35.765   0.647  13.826  0.00  0.00    +0.000 C 
ATOM     21  C   UNL     1      34.656   1.519  14.120  0.00  0.00    +0.000 C 
ATOM     22  C   UNL     1      36.127  -0.120  15.082  0.00  0.00    +0.000 C 
ATOM     23  C   UNL     1      34.494   1.232  15.477  0.00  0.00    +0.000 C 
BRANCH  21  24
ATOM     24  O   UNL     1      34.606   2.774  13.582  0.00  0.00    +0.000 OA
ATOM     25  H   UNL     1      33.818   3.263  13.879  0.00  0.00    +0.000 HD
ENDBRANCH  21  24
ENDBRANCH  17  20
ENDBRANCH   4  16
BRANCH   3  26
ATOM     26  C   UNL     1      41.741   2.662   7.955  0.00  0.00    +0.000 C 
BRANCH  26  27
ATOM     27  O   UNL     1      43.056   2.438   7.879  0.00  0.00    +0.000 OA
ATOM     28  H   UNL     1      43.246   1.718   7.251  0.00  0.00    +0.000 HD
ENDBRANCH  26  27
ENDBRANCH   3  26
TORSDOF 6
ENDMDL
MODEL 7
REMARK VINA RESULT:      -6.2     30.684     33.076
REMARK  Name = 5318517_Andrographolide.pdbqt.pdb
REMARK  6 active torsions:
REMARK  status: ('A' for Active; 'I' for Inactive)
REMARK    1  A    between atoms: C_3  and  C_16
REMARK    2  A    between atoms: C_4  and  C_19
REMARK    3  A    between atoms: C_6  and  O_14
REMARK    4  A    between atoms: C_16  and  O_17
REMARK    5  A    between atoms: C_22  and  C_23
REMARK    6  A    between atoms: C_24  and  O_27
REMARK                            x       y       z     vdW  Elec       q    Type
REMARK                         _______ _______ _______ _____ _____    ______ ____
ROOT
ATOM      1  C   UNL     1      35.894 -13.100  38.806  0.00  0.00    +0.000 C 
ATOM      2  C   UNL     1      35.528 -13.981  37.573  0.00  0.00    +0.000 C 
ATOM      3  C   UNL     1      35.956 -13.618  36.140  0.00  0.00    +0.000 C 
ATOM      4  C   UNL     1      34.908 -13.130  40.009  0.00  0.00    +0.000 C 
ATOM      5  C   UNL     1      35.990 -11.744  38.274  0.00  0.00    +0.000 C 
ATOM      6  C   UNL     1      36.240 -12.114  35.843  0.00  0.00    +0.000 C 
ATOM      7  C   UNL     1      34.730 -15.114  37.898  0.00  0.00    +0.000 C 
ATOM      8  C   UNL     1      36.161 -11.190  36.901  0.00  0.00    +0.000 C 
ATOM      9  C   UNL     1      37.282 -13.585  39.323  0.00  0.00    +0.000 C 
ATOM     10  C   UNL     1      34.052 -15.272  39.221  0.00  0.00    +0.000 C 
ATOM     11  C   UNL     1      34.107 -14.334  40.273  0.00  0.00    +0.000 C 
ATOM     12  C   UNL     1      34.787 -14.024  35.172  0.00  0.00    +0.000 C 
ATOM     13  C   UNL     1      33.267 -14.493  41.297  0.00  0.00    +0.000 C 
ENDROOT
BRANCH   6  14
ATOM     14  O   UNL     1      36.756 -11.719  34.621  0.00  0.00    +0.000 OA
ATOM     15  H   UNL     1      36.066 -11.387  34.019  0.00  0.00    +0.000 HD
ENDBRANCH   6  14
BRANCH   4  16
ATOM     16  C   UNL     1      34.869 -12.036  40.938  0.00  0.00    +0.000 C 
ATOM     17  C   UNL     1      34.834 -10.864  41.923  0.00  0.00    +0.000 C 
BRANCH  17  20
ATOM     18  O   UNL     1      34.145  -8.615  44.598  0.00  0.00    +0.000 OA
ATOM     19  O   UNL     1      32.809 -10.452  44.064  0.00  0.00    +0.000 OA
ATOM     20  C   UNL     1      34.800  -9.867  42.751  0.00  0.00    +0.000 C 
ATOM     21  C   UNL     1      35.744  -8.783  42.864  0.00  0.00    +0.000 C 
ATOM     22  C   UNL     1      33.771  -9.733  43.856  0.00  0.00    +0.000 C 
ATOM     23  C   UNL     1      35.234  -8.155  44.002  0.00  0.00    +0.000 C 
BRANCH  21  24
ATOM     24  O   UNL     1      37.072  -8.999  42.628  0.00  0.00    +0.000 OA
ATOM     25  H   UNL     1      37.613  -8.229  42.877  0.00  0.00    +0.000 HD
ENDBRANCH  21  24
ENDBRANCH  17  20
ENDBRANCH   4  16
BRANCH   3  26
ATOM     26  C   UNL     1      37.183 -14.402  35.823  0.00  0.00    +0.000 C 
BRANCH  26  27
ATOM     27  O   UNL     1      38.277 -15.115  35.541  0.00  0.00    +0.000 OA
ATOM     28  H   UNL     1      39.036 -14.803  36.066  0.00  0.00    +0.000 HD
ENDBRANCH  26  27
ENDBRANCH   3  26
TORSDOF 6
ENDMDL
MODEL 8
REMARK VINA RESULT:      -6.1     25.014     28.631
REMARK  Name = 5318517_Andrographolide.pdbqt.pdb
REMARK  6 active torsions:
REMARK  status: ('A' for Active; 'I' for Inactive)
REMARK    1  A    between atoms: C_3  and  C_16
REMARK    2  A    between atoms: C_4  and  C_19
REMARK    3  A    between atoms: C_6  and  O_14
REMARK    4  A    between atoms: C_16  and  O_17
REMARK    5  A    between atoms: C_22  and  C_23
REMARK    6  A    between atoms: C_24  and  O_27
REMARK                            x       y       z     vdW  Elec       q    Type
REMARK                         _______ _______ _______ _____ _____    ______ ____
ROOT
ATOM      1  C   UNL     1      19.072 -10.531  40.777  0.00  0.00    +0.000 C 
ATOM      2  C   UNL     1      18.103 -10.193  39.604  0.00  0.00    +0.000 C 
ATOM      3  C   UNL     1      18.600  -9.674  38.243  0.00  0.00    +0.000 C 
ATOM      4  C   UNL     1      18.515 -10.367  42.220  0.00  0.00    +0.000 C 
ATOM      5  C   UNL     1      20.214  -9.642  40.580  0.00  0.00    +0.000 C 
ATOM      6  C   UNL     1      19.978  -8.945  38.220  0.00  0.00    +0.000 C 
ATOM      7  C   UNL     1      16.729 -10.365  39.932  0.00  0.00    +0.000 C 
ATOM      8  C   UNL     1      20.718  -8.863  39.413  0.00  0.00    +0.000 C 
ATOM      9  C   UNL     1      19.502 -12.020  40.604  0.00  0.00    +0.000 C 
ATOM     10  C   UNL     1      16.250 -10.545  41.337  0.00  0.00    +0.000 C 
ATOM     11  C   UNL     1      17.079 -10.549  42.478  0.00  0.00    +0.000 C 
ATOM     12  C   UNL     1      17.558  -8.620  37.721  0.00  0.00    +0.000 C 
ATOM     13  C   UNL     1      16.495 -10.480  43.675  0.00  0.00    +0.000 C 
ENDROOT
BRANCH   6  14
ATOM     14  O   UNL     1      20.559  -8.567  37.022  0.00  0.00    +0.000 OA
ATOM     15  H   UNL     1      19.901  -8.446  36.315  0.00  0.00    +0.000 HD
ENDBRANCH   6  14
BRANCH   4  16
ATOM     16  C   UNL     1      19.412 -10.166  43.323  0.00  0.00    +0.000 C 
ATOM     17  C   UNL     1      20.376  -9.946  44.493  0.00  0.00    +0.000 C 
BRANCH  17  20
ATOM     18  O   UNL     1      23.048 -10.061  46.844  0.00  0.00    +0.000 OA
ATOM     19  O   UNL     1      22.615 -11.738  45.282  0.00  0.00    +0.000 OA
ATOM     20  C   UNL     1      21.188  -9.750  45.483  0.00  0.00    +0.000 C 
ATOM     21  C   UNL     1      21.233  -8.619  46.375  0.00  0.00    +0.000 C 
ATOM     22  C   UNL     1      22.345 -10.673  45.810  0.00  0.00    +0.000 C 
ATOM     23  C   UNL     1      22.387  -8.940  47.093  0.00  0.00    +0.000 C 
BRANCH  21  24
ATOM     24  O   UNL     1      20.929  -7.368  45.918  0.00  0.00    +0.000 OA
ATOM     25  H   UNL     1      20.000  -7.136  46.090  0.00  0.00    +0.000 HD
ENDBRANCH  21  24
ENDBRANCH  17  20
ENDBRANCH   4  16
BRANCH   3  26
ATOM     26  C   UNL     1      18.665 -10.837  37.313  0.00  0.00    +0.000 C 
BRANCH  26  27
ATOM     27  O   UNL     1      18.713 -11.877  36.475  0.00  0.00    +0.000 OA
ATOM     28  H   UNL     1      18.886 -11.576  35.565  0.00  0.00    +0.000 HD
ENDBRANCH  26  27
ENDBRANCH   3  26
TORSDOF 6
ENDMDL
MODEL 9
REMARK VINA RESULT:      -6.0      6.820      9.221
REMARK  Name = 5318517_Andrographolide.pdbqt.pdb
REMARK  6 active torsions:
REMARK  status: ('A' for Active; 'I' for Inactive)
REMARK    1  A    between atoms: C_3  and  C_16
REMARK    2  A    between atoms: C_4  and  C_19
REMARK    3  A    between atoms: C_6  and  O_14
REMARK    4  A    between atoms: C_16  and  O_17
REMARK    5  A    between atoms: C_22  and  C_23
REMARK    6  A    between atoms: C_24  and  O_27
REMARK                            x       y       z     vdW  Elec       q    Type
REMARK                         _______ _______ _______ _____ _____    ______ ____
ROOT
ATOM      1  C   UNL     1      19.744  12.318  15.105  0.00  0.00    +0.000 C 
ATOM      2  C   UNL     1      19.793  11.967  16.623  0.00  0.00    +0.000 C 
ATOM      3  C   UNL     1      21.084  11.511  17.326  0.00  0.00    +0.000 C 
ATOM      4  C   UNL     1      18.392  12.087  14.373  0.00  0.00    +0.000 C 
ATOM      5  C   UNL     1      20.784  11.490  14.502  0.00  0.00    +0.000 C 
ATOM      6  C   UNL     1      22.181  10.850  16.439  0.00  0.00    +0.000 C 
ATOM      7  C   UNL     1      18.529  12.064  17.272  0.00  0.00    +0.000 C 
ATOM      8  C   UNL     1      21.968  10.769  15.051  0.00  0.00    +0.000 C 
ATOM      9  C   UNL     1      20.101  13.830  14.970  0.00  0.00    +0.000 C 
ATOM     10  C   UNL     1      17.242  12.182  16.520  0.00  0.00    +0.000 C 
ATOM     11  C   UNL     1      17.127  12.193  15.115  0.00  0.00    +0.000 C 
ATOM     12  C   UNL     1      20.692  10.424  18.392  0.00  0.00    +0.000 C 
ATOM     13  C   UNL     1      15.909  12.063  14.587  0.00  0.00    +0.000 C 
ENDROOT
BRANCH   6  14
ATOM     14  O   UNL     1      23.421  10.533  16.965  0.00  0.00    +0.000 OA
ATOM     15  H   UNL     1      23.472  10.705  17.922  0.00  0.00    +0.000 HD
ENDBRANCH   6  14
BRANCH   4  16
ATOM     16  C   UNL     1      18.363  11.898  12.950  0.00  0.00    +0.000 C 
ATOM     17  C   UNL     1      18.341  11.703  11.431  0.00  0.00    +0.000 C 
BRANCH  17  20
ATOM     18  O   UNL     1      19.120  10.944   8.039  0.00  0.00    +0.000 OA
ATOM     19  O   UNL     1      20.708  11.067   9.744  0.00  0.00    +0.000 OA
ATOM     20  C   UNL     1      18.331  11.533  10.146  0.00  0.00    +0.000 C 
ATOM     21  C   UNL     1      17.191  11.554   9.264  0.00  0.00    +0.000 C 
ATOM     22  C   UNL     1      19.561  11.161   9.342  0.00  0.00    +0.000 C 
ATOM     23  C   UNL     1      17.815  11.169   8.076  0.00  0.00    +0.000 C 
BRANCH  21  24
ATOM     24  O   UNL     1      15.981  11.084   9.691  0.00  0.00    +0.000 OA
ATOM     25  H   UNL     1      15.622  11.619  10.420  0.00  0.00    +0.000 HD
ENDBRANCH  21  24
ENDBRANCH  17  20
ENDBRANCH   4  16
BRANCH   3  26
ATOM     26  C   UNL     1      21.675  12.702  18.000  0.00  0.00    +0.000 C 
BRANCH  26  27
ATOM     27  O   UNL     1      22.195  13.772  18.609  0.00  0.00    +0.000 OA
ATOM     28  H   UNL     1      23.030  14.038  18.183  0.00  0.00    +0.000 HD
ENDBRANCH  26  27
ENDBRANCH   3  26
TORSDOF 6
ENDMDL
