MODEL 1
REMARK VINA RESULT:      -8.1      0.000      0.000
REMARK  Name = 5326018_Caulerpin.pdbqt.pdb
REMARK  4 active torsions:
REMARK  status: ('A' for Active; 'I' for Inactive)
REMARK    1  A    between atoms: C_11  and  C_26
REMARK    2  A    between atoms: C_12  and  C_30
REMARK    3  A    between atoms: C_26  and  O_27
REMARK    4  A    between atoms: C_30  and  O_31
REMARK                            x       y       z     vdW  Elec       q    Type
REMARK                         _______ _______ _______ _____ _____    ______ ____
ROOT
ATOM      1  N   UNL     1      20.246   6.775  18.341  0.00  0.00    +0.000 N 
ATOM      2  N   UNL     1      18.339  12.816  19.937  0.00  0.00    +0.000 N 
ATOM      3  C   UNL     1      19.191   8.081  19.788  0.00  0.00    +0.000 C 
ATOM      4  C   UNL     1      19.702  11.541  18.743  0.00  0.00    +0.000 C 
ATOM      5  C   UNL     1      20.127   8.085  18.756  0.00  0.00    +0.000 C 
ATOM      6  C   UNL     1      18.876  11.548  19.863  0.00  0.00    +0.000 C 
ATOM      7  C   UNL     1      18.792   6.747  20.044  0.00  0.00    +0.000 A 
ATOM      8  C   UNL     1      19.717  12.836  18.171  0.00  0.00    +0.000 A 
ATOM      9  C   UNL     1      19.471   5.947  19.126  0.00  0.00    +0.000 A 
ATOM     10  C   UNL     1      18.857  13.618  18.942  0.00  0.00    +0.000 A 
ATOM     11  C   UNL     1      20.831   9.153  18.098  0.00  0.00    +0.000 C 
ATOM     12  C   UNL     1      18.495  10.511  20.787  0.00  0.00    +0.000 C 
ATOM     13  C   UNL     1      20.379  10.366  18.287  0.00  0.00    +0.000 C 
ATOM     14  C   UNL     1      18.737   9.278  20.426  0.00  0.00    +0.000 C 
ATOM     15  C   UNL     1      17.906   6.138  20.951  0.00  0.00    +0.000 A 
ATOM     16  C   UNL     1      20.360  13.422  17.065  0.00  0.00    +0.000 A 
ATOM     17  C   UNL     1      19.314   4.558  19.070  0.00  0.00    +0.000 A 
ATOM     18  C   UNL     1      18.608  14.967  18.666  0.00  0.00    +0.000 A 
ATOM     19  C   UNL     1      17.742   4.752  20.914  0.00  0.00    +0.000 A 
ATOM     20  C   UNL     1      20.127  14.768  16.779  0.00  0.00    +0.000 A 
ATOM     21  C   UNL     1      18.436   3.979  19.989  0.00  0.00    +0.000 A 
ATOM     22  C   UNL     1      19.267  15.525  17.568  0.00  0.00    +0.000 A 
ATOM     23  H   UNL     1      20.804   6.433  17.569  0.00  0.00    +0.000 HD
ATOM     24  H   UNL     1      17.652  13.146  20.604  0.00  0.00    +0.000 HD
ENDROOT
BRANCH  11  26
ATOM     25  O   UNL     1      23.118   8.513  17.804  0.00  0.00    +0.000 OA
ATOM     26  C   UNL     1      22.102   9.007  17.330  0.00  0.00    +0.000 C 
BRANCH  26  27
ATOM     27  O   UNL     1      21.908   9.481  16.065  0.00  0.00    +0.000 OA
ATOM     28  C   UNL     1      22.844  10.388  15.546  0.00  0.00    +0.000 C 
ENDBRANCH  26  27
ENDBRANCH  11  26
BRANCH  12  30
ATOM     29  O   UNL     1      16.971  10.176  22.602  0.00  0.00    +0.000 OA
ATOM     30  C   UNL     1      17.972  10.732  22.167  0.00  0.00    +0.000 C 
BRANCH  30  31
ATOM     31  O   UNL     1      18.797  11.605  22.815  0.00  0.00    +0.000 OA
ATOM     32  C   UNL     1      18.213  12.638  23.565  0.00  0.00    +0.000 C 
ENDBRANCH  30  31
ENDBRANCH  12  30
TORSDOF 4
ENDMDL
MODEL 2
REMARK VINA RESULT:      -8.0     19.689     23.656
REMARK  Name = 5326018_Caulerpin.pdbqt.pdb
REMARK  4 active torsions:
REMARK  status: ('A' for Active; 'I' for Inactive)
REMARK    1  A    between atoms: C_11  and  C_26
REMARK    2  A    between atoms: C_12  and  C_30
REMARK    3  A    between atoms: C_26  and  O_27
REMARK    4  A    between atoms: C_30  and  O_31
REMARK                            x       y       z     vdW  Elec       q    Type
REMARK                         _______ _______ _______ _____ _____    ______ ____
ROOT
ATOM      1  N   UNL     1      38.073   2.798  14.210  0.00  0.00    +0.000 N 
ATOM      2  N   UNL     1      40.191  -1.716   9.989  0.00  0.00    +0.000 N 
ATOM      3  C   UNL     1      37.552   1.219  12.745  0.00  0.00    +0.000 C 
ATOM      4  C   UNL     1      40.646   0.116  11.151  0.00  0.00    +0.000 C 
ATOM      5  C   UNL     1      38.573   2.078  13.145  0.00  0.00    +0.000 C 
ATOM      6  C   UNL     1      39.603  -0.655  10.645  0.00  0.00    +0.000 C 
ATOM      7  C   UNL     1      36.403   1.468  13.533  0.00  0.00    +0.000 A 
ATOM      8  C   UNL     1      41.878  -0.449  10.742  0.00  0.00    +0.000 A 
ATOM      9  C   UNL     1      36.755   2.466  14.441  0.00  0.00    +0.000 A 
ATOM     10  C   UNL     1      41.565  -1.594  10.011  0.00  0.00    +0.000 A 
ATOM     11  C   UNL     1      39.933   2.233  12.700  0.00  0.00    +0.000 C 
ATOM     12  C   UNL     1      38.173  -0.545  10.771  0.00  0.00    +0.000 C 
ATOM     13  C   UNL     1      40.430   1.269  11.968  0.00  0.00    +0.000 C 
ATOM     14  C   UNL     1      37.720   0.247  11.709  0.00  0.00    +0.000 C 
ATOM     15  C   UNL     1      35.103   0.934  13.580  0.00  0.00    +0.000 A 
ATOM     16  C   UNL     1      43.231  -0.114  10.933  0.00  0.00    +0.000 A 
ATOM     17  C   UNL     1      35.865   2.966  15.399  0.00  0.00    +0.000 A 
ATOM     18  C   UNL     1      42.541  -2.426   9.452  0.00  0.00    +0.000 A 
ATOM     19  C   UNL     1      34.200   1.426  14.525  0.00  0.00    +0.000 A 
ATOM     20  C   UNL     1      44.218  -0.930  10.377  0.00  0.00    +0.000 A 
ATOM     21  C   UNL     1      34.578   2.425  15.417  0.00  0.00    +0.000 A 
ATOM     22  C   UNL     1      43.876  -2.064   9.649  0.00  0.00    +0.000 A 
ATOM     23  H   UNL     1      38.575   3.473  14.773  0.00  0.00    +0.000 HD
ATOM     24  H   UNL     1      39.718  -2.497   9.552  0.00  0.00    +0.000 HD
ENDROOT
BRANCH  11  26
ATOM     25  O   UNL     1      41.300   4.055  11.966  0.00  0.00    +0.000 OA
ATOM     26  C   UNL     1      40.772   3.451  12.892  0.00  0.00    +0.000 C 
BRANCH  26  27
ATOM     27  O   UNL     1      40.809   3.754  14.222  0.00  0.00    +0.000 OA
ATOM     28  C   UNL     1      41.828   3.188  15.004  0.00  0.00    +0.000 C 
ENDBRANCH  26  27
ENDBRANCH  11  26
BRANCH  12  30
ATOM     29  O   UNL     1      37.139  -2.349   9.586  0.00  0.00    +0.000 OA
ATOM     30  C   UNL     1      37.173  -1.152   9.844  0.00  0.00    +0.000 C 
BRANCH  30  31
ATOM     31  O   UNL     1      36.342  -0.169   9.390  0.00  0.00    +0.000 OA
ATOM     32  C   UNL     1      36.633   0.427   8.154  0.00  0.00    +0.000 C 
ENDBRANCH  30  31
ENDBRANCH  12  30
TORSDOF 4
ENDMDL
MODEL 3
REMARK VINA RESULT:      -7.9     19.685     23.373
REMARK  Name = 5326018_Caulerpin.pdbqt.pdb
REMARK  4 active torsions:
REMARK  status: ('A' for Active; 'I' for Inactive)
REMARK    1  A    between atoms: C_11  and  C_26
REMARK    2  A    between atoms: C_12  and  C_30
REMARK    3  A    between atoms: C_26  and  O_27
REMARK    4  A    between atoms: C_30  and  O_31
REMARK                            x       y       z     vdW  Elec       q    Type
REMARK                         _______ _______ _______ _____ _____    ______ ____
ROOT
ATOM      1  N   UNL     1      40.133  -1.682   9.898  0.00  0.00    +0.000 N 
ATOM      2  N   UNL     1      38.070   2.741  14.242  0.00  0.00    +0.000 N 
ATOM      3  C   UNL     1      40.604   0.122  11.097  0.00  0.00    +0.000 C 
ATOM      4  C   UNL     1      37.530   1.196  12.747  0.00  0.00    +0.000 C 
ATOM      5  C   UNL     1      39.553  -0.635  10.584  0.00  0.00    +0.000 C 
ATOM      6  C   UNL     1      38.556   2.043  13.156  0.00  0.00    +0.000 C 
ATOM      7  C   UNL     1      41.830  -0.436  10.662  0.00  0.00    +0.000 A 
ATOM      8  C   UNL     1      36.389   1.430  13.553  0.00  0.00    +0.000 A 
ATOM      9  C   UNL     1      41.507  -1.564   9.908  0.00  0.00    +0.000 A 
ATOM     10  C   UNL     1      36.753   2.406  14.479  0.00  0.00    +0.000 A 
ATOM     11  C   UNL     1      38.125  -0.524  10.727  0.00  0.00    +0.000 C 
ATOM     12  C   UNL     1      39.912   2.205  12.700  0.00  0.00    +0.000 C 
ATOM     13  C   UNL     1      37.685   0.248  11.687  0.00  0.00    +0.000 C 
ATOM     14  C   UNL     1      40.400   1.257  11.942  0.00  0.00    +0.000 C 
ATOM     15  C   UNL     1      43.186  -0.108  10.847  0.00  0.00    +0.000 A 
ATOM     16  C   UNL     1      35.087   0.899  13.601  0.00  0.00    +0.000 A 
ATOM     17  C   UNL     1      42.475  -2.385   9.320  0.00  0.00    +0.000 A 
ATOM     18  C   UNL     1      35.875   2.886  15.457  0.00  0.00    +0.000 A 
ATOM     19  C   UNL     1      44.165  -0.914  10.262  0.00  0.00    +0.000 A 
ATOM     20  C   UNL     1      34.196   1.370  14.566  0.00  0.00    +0.000 A 
ATOM     21  C   UNL     1      43.812  -2.031   9.512  0.00  0.00    +0.000 A 
ATOM     22  C   UNL     1      34.586   2.348  15.476  0.00  0.00    +0.000 A 
ATOM     23  H   UNL     1      39.652  -2.451   9.449  0.00  0.00    +0.000 HD
ATOM     24  H   UNL     1      38.579   3.402  14.816  0.00  0.00    +0.000 HD
ENDROOT
BRANCH  11  26
ATOM     25  O   UNL     1      37.026  -2.308   9.573  0.00  0.00    +0.000 OA
ATOM     26  C   UNL     1      37.115  -1.107   9.798  0.00  0.00    +0.000 C 
BRANCH  26  27
ATOM     27  O   UNL     1      36.342  -0.099   9.299  0.00  0.00    +0.000 OA
ATOM     28  C   UNL     1      36.725   0.493   8.086  0.00  0.00    +0.000 C 
ENDBRANCH  26  27
ENDBRANCH  11  26
BRANCH  12  30
ATOM     29  O   UNL     1      41.103   4.160  12.000  0.00  0.00    +0.000 OA
ATOM     30  C   UNL     1      40.757   3.417  12.911  0.00  0.00    +0.000 C 
BRANCH  30  31
ATOM     31  O   UNL     1      41.028   3.538  14.243  0.00  0.00    +0.000 OA
ATOM     32  C   UNL     1      42.318   3.938  14.624  0.00  0.00    +0.000 C 
ENDBRANCH  30  31
ENDBRANCH  12  30
TORSDOF 4
ENDMDL
MODEL 4
REMARK VINA RESULT:      -7.7     18.801     21.201
REMARK  Name = 5326018_Caulerpin.pdbqt.pdb
REMARK  4 active torsions:
REMARK  status: ('A' for Active; 'I' for Inactive)
REMARK    1  A    between atoms: C_11  and  C_26
REMARK    2  A    between atoms: C_12  and  C_30
REMARK    3  A    between atoms: C_26  and  O_27
REMARK    4  A    between atoms: C_30  and  O_31
REMARK                            x       y       z     vdW  Elec       q    Type
REMARK                         _______ _______ _______ _____ _____    ______ ____
ROOT
ATOM      1  N   UNL     1      36.500  -0.085  13.684  0.00  0.00    +0.000 N 
ATOM      2  N   UNL     1      39.478   5.553  12.260  0.00  0.00    +0.000 N 
ATOM      3  C   UNL     1      37.260   1.865  14.416  0.00  0.00    +0.000 C 
ATOM      4  C   UNL     1      39.063   3.458  11.670  0.00  0.00    +0.000 C 
ATOM      5  C   UNL     1      37.373   0.939  13.380  0.00  0.00    +0.000 C 
ATOM      6  C   UNL     1      39.070   4.331  12.754  0.00  0.00    +0.000 C 
ATOM      7  C   UNL     1      36.359   1.364  15.386  0.00  0.00    +0.000 A 
ATOM      8  C   UNL     1      39.533   4.141  10.522  0.00  0.00    +0.000 A 
ATOM      9  C   UNL     1      35.900   0.138  14.906  0.00  0.00    +0.000 A 
ATOM     10  C   UNL     1      39.791   5.452  10.920  0.00  0.00    +0.000 A 
ATOM     11  C   UNL     1      38.126   0.952  12.154  0.00  0.00    +0.000 C 
ATOM     12  C   UNL     1      38.680   4.165  14.129  0.00  0.00    +0.000 C 
ATOM     13  C   UNL     1      38.614   2.103  11.771  0.00  0.00    +0.000 C 
ATOM     14  C   UNL     1      37.957   3.113  14.417  0.00  0.00    +0.000 C 
ATOM     15  C   UNL     1      35.872   1.837  16.618  0.00  0.00    +0.000 A 
ATOM     16  C   UNL     1      39.750   3.784   9.179  0.00  0.00    +0.000 A 
ATOM     17  C   UNL     1      34.976  -0.650  15.601  0.00  0.00    +0.000 A 
ATOM     18  C   UNL     1      40.263   6.432  10.040  0.00  0.00    +0.000 A 
ATOM     19  C   UNL     1      34.953   1.060  17.328  0.00  0.00    +0.000 A 
ATOM     20  C   UNL     1      40.226   4.747   8.288  0.00  0.00    +0.000 A 
ATOM     21  C   UNL     1      34.516  -0.161  16.825  0.00  0.00    +0.000 A 
ATOM     22  C   UNL     1      40.478   6.047   8.715  0.00  0.00    +0.000 A 
ATOM     23  H   UNL     1      36.294  -0.894  13.112  0.00  0.00    +0.000 HD
ATOM     24  H   UNL     1      39.541   6.424  12.773  0.00  0.00    +0.000 HD
ENDROOT
BRANCH  11  26
ATOM     25  O   UNL     1      39.627  -0.738  11.371  0.00  0.00    +0.000 OA
ATOM     26  C   UNL     1      38.503  -0.252  11.359  0.00  0.00    +0.000 C 
BRANCH  26  27
ATOM     27  O   UNL     1      37.405  -0.692  10.678  0.00  0.00    +0.000 OA
ATOM     28  C   UNL     1      37.604  -1.456   9.519  0.00  0.00    +0.000 C 
ENDBRANCH  26  27
ENDBRANCH  11  26
BRANCH  12  30
ATOM     29  O   UNL     1      39.800   6.035  15.118  0.00  0.00    +0.000 OA
ATOM     30  C   UNL     1      39.137   5.015  15.267  0.00  0.00    +0.000 C 
BRANCH  30  31
ATOM     31  O   UNL     1      38.675   4.476  16.432  0.00  0.00    +0.000 OA
ATOM     32  C   UNL     1      38.537   5.319  17.545  0.00  0.00    +0.000 C 
ENDBRANCH  30  31
ENDBRANCH  12  30
TORSDOF 4
ENDMDL
MODEL 5
REMARK VINA RESULT:      -7.4     18.608     22.066
REMARK  Name = 5326018_Caulerpin.pdbqt.pdb
REMARK  4 active torsions:
REMARK  status: ('A' for Active; 'I' for Inactive)
REMARK    1  A    between atoms: C_11  and  C_26
REMARK    2  A    between atoms: C_12  and  C_30
REMARK    3  A    between atoms: C_26  and  O_27
REMARK    4  A    between atoms: C_30  and  O_31
REMARK                            x       y       z     vdW  Elec       q    Type
REMARK                         _______ _______ _______ _____ _____    ______ ____
ROOT
ATOM      1  N   UNL     1      37.674   5.311  17.493  0.00  0.00    +0.000 N 
ATOM      2  N   UNL     1      40.233   2.350  12.262  0.00  0.00    +0.000 N 
ATOM      3  C   UNL     1      39.491   4.836  16.316  0.00  0.00    +0.000 C 
ATOM      4  C   UNL     1      38.528   2.516  13.668  0.00  0.00    +0.000 C 
ATOM      5  C   UNL     1      38.176   4.440  16.549  0.00  0.00    +0.000 C 
ATOM      6  C   UNL     1      39.881   2.804  13.516  0.00  0.00    +0.000 C 
ATOM      7  C   UNL     1      39.807   5.915  17.176  0.00  0.00    +0.000 A 
ATOM      8  C   UNL     1      38.071   1.822  12.521  0.00  0.00    +0.000 A 
ATOM      9  C   UNL     1      38.652   6.190  17.907  0.00  0.00    +0.000 A 
ATOM     10  C   UNL     1      39.161   1.726  11.657  0.00  0.00    +0.000 A 
ATOM     11  C   UNL     1      37.356   3.421  15.948  0.00  0.00    +0.000 C 
ATOM     12  C   UNL     1      40.820   3.499  14.358  0.00  0.00    +0.000 C 
ATOM     13  C   UNL     1      37.777   2.911  14.819  0.00  0.00    +0.000 C 
ATOM     14  C   UNL     1      40.323   4.218  15.331  0.00  0.00    +0.000 C 
ATOM     15  C   UNL     1      40.953   6.700  17.396  0.00  0.00    +0.000 A 
ATOM     16  C   UNL     1      36.837   1.278  12.120  0.00  0.00    +0.000 A 
ATOM     17  C   UNL     1      38.583   7.214  18.858  0.00  0.00    +0.000 A 
ATOM     18  C   UNL     1      39.083   1.107  10.404  0.00  0.00    +0.000 A 
ATOM     19  C   UNL     1      40.904   7.723  18.347  0.00  0.00    +0.000 A 
ATOM     20  C   UNL     1      36.742   0.652  10.877  0.00  0.00    +0.000 A 
ATOM     21  C   UNL     1      39.738   7.972  19.063  0.00  0.00    +0.000 A 
ATOM     22  C   UNL     1      37.848   0.569  10.037  0.00  0.00    +0.000 A 
ATOM     23  H   UNL     1      36.726   5.338  17.848  0.00  0.00    +0.000 HD
ATOM     24  H   UNL     1      41.134   2.450  11.811  0.00  0.00    +0.000 HD
ENDROOT
BRANCH  11  26
ATOM     25  O   UNL     1      35.361   3.441  17.269  0.00  0.00    +0.000 OA
ATOM     26  C   UNL     1      36.143   2.812  16.566  0.00  0.00    +0.000 C 
BRANCH  26  27
ATOM     27  O   UNL     1      36.072   1.500  16.195  0.00  0.00    +0.000 OA
ATOM     28  C   UNL     1      35.851   0.539  17.192  0.00  0.00    +0.000 C 
ENDBRANCH  26  27
ENDBRANCH  11  26
BRANCH  12  30
ATOM     29  O   UNL     1      42.869   2.456  13.694  0.00  0.00    +0.000 OA
ATOM     30  C   UNL     1      42.305   3.362  14.294  0.00  0.00    +0.000 C 
BRANCH  30  31
ATOM     31  O   UNL     1      42.871   4.400  14.977  0.00  0.00    +0.000 OA
ATOM     32  C   UNL     1      43.708   5.278  14.273  0.00  0.00    +0.000 C 
ENDBRANCH  30  31
ENDBRANCH  12  30
TORSDOF 4
ENDMDL
MODEL 6
REMARK VINA RESULT:      -7.4     15.741     18.630
REMARK  Name = 5326018_Caulerpin.pdbqt.pdb
REMARK  4 active torsions:
REMARK  status: ('A' for Active; 'I' for Inactive)
REMARK    1  A    between atoms: C_11  and  C_26
REMARK    2  A    between atoms: C_12  and  C_30
REMARK    3  A    between atoms: C_26  and  O_27
REMARK    4  A    between atoms: C_30  and  O_31
REMARK                            x       y       z     vdW  Elec       q    Type
REMARK                         _______ _______ _______ _____ _____    ______ ____
ROOT
ATOM      1  N   UNL     1      18.270   4.604  37.852  0.00  0.00    +0.000 N 
ATOM      2  N   UNL     1      20.886  10.571  37.364  0.00  0.00    +0.000 N 
ATOM      3  C   UNL     1      19.413   6.230  38.833  0.00  0.00    +0.000 C 
ATOM      4  C   UNL     1      20.102   8.782  36.316  0.00  0.00    +0.000 C 
ATOM      5  C   UNL     1      19.031   5.725  37.592  0.00  0.00    +0.000 C 
ATOM      6  C   UNL     1      20.609   9.230  37.532  0.00  0.00    +0.000 C 
ATOM      7  C   UNL     1      18.934   5.369  39.849  0.00  0.00    +0.000 A 
ATOM      8  C   UNL     1      20.132   9.847  35.383  0.00  0.00    +0.000 A 
ATOM      9  C   UNL     1      18.224   4.355  39.207  0.00  0.00    +0.000 A 
ATOM     10  C   UNL     1      20.632  10.956  36.064  0.00  0.00    +0.000 A 
ATOM     11  C   UNL     1      19.234   6.207  36.251  0.00  0.00    +0.000 C 
ATOM     12  C   UNL     1      20.785   8.577  38.803  0.00  0.00    +0.000 C 
ATOM     13  C   UNL     1      19.622   7.449  36.121  0.00  0.00    +0.000 C 
ATOM     14  C   UNL     1      20.153   7.445  38.980  0.00  0.00    +0.000 C 
ATOM     15  C   UNL     1      19.016   5.357  41.254  0.00  0.00    +0.000 A 
ATOM     16  C   UNL     1      19.768   9.987  34.031  0.00  0.00    +0.000 A 
ATOM     17  C   UNL     1      17.591   3.318  39.901  0.00  0.00    +0.000 A 
ATOM     18  C   UNL     1      20.794  12.207  35.458  0.00  0.00    +0.000 A 
ATOM     19  C   UNL     1      18.394   4.326  41.962  0.00  0.00    +0.000 A 
ATOM     20  C   UNL     1      19.928  11.227  33.409  0.00  0.00    +0.000 A 
ATOM     21  C   UNL     1      17.696   3.326  41.294  0.00  0.00    +0.000 A 
ATOM     22  C   UNL     1      20.434  12.315  34.114  0.00  0.00    +0.000 A 
ATOM     23  H   UNL     1      17.789   4.028  37.173  0.00  0.00    +0.000 HD
ATOM     24  H   UNL     1      21.217  11.215  38.071  0.00  0.00    +0.000 HD
ENDROOT
BRANCH  11  26
ATOM     25  O   UNL     1      18.621   4.279  34.974  0.00  0.00    +0.000 OA
ATOM     26  C   UNL     1      19.165   5.376  35.015  0.00  0.00    +0.000 C 
BRANCH  26  27
ATOM     27  O   UNL     1      19.771   6.052  33.996  0.00  0.00    +0.000 OA
ATOM     28  C   UNL     1      20.730   5.375  33.228  0.00  0.00    +0.000 C 
ENDBRANCH  26  27
ENDBRANCH  11  26
BRANCH  12  30
ATOM     29  O   UNL     1      22.844   8.539  40.023  0.00  0.00    +0.000 OA
ATOM     30  C   UNL     1      21.723   9.013  39.878  0.00  0.00    +0.000 C 
BRANCH  30  31
ATOM     31  O   UNL     1      21.128  10.002  40.606  0.00  0.00    +0.000 OA
ATOM     32  C   UNL     1      21.898  11.121  40.958  0.00  0.00    +0.000 C 
ENDBRANCH  30  31
ENDBRANCH  12  30
TORSDOF 4
ENDMDL
MODEL 7
REMARK VINA RESULT:      -7.3     15.248     17.967
REMARK  Name = 5326018_Caulerpin.pdbqt.pdb
REMARK  4 active torsions:
REMARK  status: ('A' for Active; 'I' for Inactive)
REMARK    1  A    between atoms: C_11  and  C_26
REMARK    2  A    between atoms: C_12  and  C_30
REMARK    3  A    between atoms: C_26  and  O_27
REMARK    4  A    between atoms: C_30  and  O_31
REMARK                            x       y       z     vdW  Elec       q    Type
REMARK                         _______ _______ _______ _____ _____    ______ ____
ROOT
ATOM      1  N   UNL     1      17.986   3.739  35.487  0.00  0.00    +0.000 N 
ATOM      2  N   UNL     1      19.956   9.416  38.054  0.00  0.00    +0.000 N 
ATOM      3  C   UNL     1      18.537   4.876  37.308  0.00  0.00    +0.000 C 
ATOM      4  C   UNL     1      19.780   8.141  36.248  0.00  0.00    +0.000 C 
ATOM      5  C   UNL     1      18.665   4.859  35.921  0.00  0.00    +0.000 C 
ATOM      6  C   UNL     1      19.783   8.111  37.640  0.00  0.00    +0.000 C 
ATOM      7  C   UNL     1      17.830   3.721  37.720  0.00  0.00    +0.000 A 
ATOM      8  C   UNL     1      20.018   9.468  35.815  0.00  0.00    +0.000 A 
ATOM      9  C   UNL     1      17.500   3.023  36.560  0.00  0.00    +0.000 A 
ATOM     10  C   UNL     1      20.129  10.246  36.966  0.00  0.00    +0.000 A 
ATOM     11  C   UNL     1      19.268   5.783  34.997  0.00  0.00    +0.000 C 
ATOM     12  C   UNL     1      19.575   7.042  38.582  0.00  0.00    +0.000 C 
ATOM     13  C   UNL     1      19.542   6.979  35.449  0.00  0.00    +0.000 C 
ATOM     14  C   UNL     1      19.046   5.939  38.118  0.00  0.00    +0.000 C 
ATOM     15  C   UNL     1      17.420   3.206  38.964  0.00  0.00    +0.000 A 
ATOM     16  C   UNL     1      20.133  10.092  34.559  0.00  0.00    +0.000 A 
ATOM     17  C   UNL     1      16.780   1.824  36.577  0.00  0.00    +0.000 A 
ATOM     18  C   UNL     1      20.356  11.627  36.928  0.00  0.00    +0.000 A 
ATOM     19  C   UNL     1      16.706   2.007  38.999  0.00  0.00    +0.000 A 
ATOM     20  C   UNL     1      20.366  11.467  34.503  0.00  0.00    +0.000 A 
ATOM     21  C   UNL     1      16.393   1.330  37.825  0.00  0.00    +0.000 A 
ATOM     22  C   UNL     1      20.476  12.218  35.669  0.00  0.00    +0.000 A 
ATOM     23  H   UNL     1      17.835   3.458  34.526  0.00  0.00    +0.000 HD
ATOM     24  H   UNL     1      19.950   9.755  39.007  0.00  0.00    +0.000 HD
ENDROOT
BRANCH  11  26
ATOM     25  O   UNL     1      20.861   5.660  33.216  0.00  0.00    +0.000 OA
ATOM     26  C   UNL     1      19.722   5.451  33.615  0.00  0.00    +0.000 C 
BRANCH  26  27
ATOM     27  O   UNL     1      18.685   4.881  32.936  0.00  0.00    +0.000 OA
ATOM     28  C   UNL     1      17.566   5.675  32.644  0.00  0.00    +0.000 C 
ENDBRANCH  26  27
ENDBRANCH  11  26
BRANCH  12  30
ATOM     29  O   UNL     1      20.650   6.111  40.508  0.00  0.00    +0.000 OA
ATOM     30  C   UNL     1      20.030   7.040  40.003  0.00  0.00    +0.000 C 
BRANCH  30  31
ATOM     31  O   UNL     1      19.662   8.219  40.584  0.00  0.00    +0.000 OA
ATOM     32  C   UNL     1      18.718   8.181  41.621  0.00  0.00    +0.000 C 
ENDBRANCH  30  31
ENDBRANCH  12  30
TORSDOF 4
ENDMDL
MODEL 8
REMARK VINA RESULT:      -7.3     15.787     19.865
REMARK  Name = 5326018_Caulerpin.pdbqt.pdb
REMARK  4 active torsions:
REMARK  status: ('A' for Active; 'I' for Inactive)
REMARK    1  A    between atoms: C_11  and  C_26
REMARK    2  A    between atoms: C_12  and  C_30
REMARK    3  A    between atoms: C_26  and  O_27
REMARK    4  A    between atoms: C_30  and  O_31
REMARK                            x       y       z     vdW  Elec       q    Type
REMARK                         _______ _______ _______ _____ _____    ______ ____
ROOT
ATOM      1  N   UNL     1      20.661  10.807  37.454  0.00  0.00    +0.000 N 
ATOM      2  N   UNL     1      18.572   4.628  37.830  0.00  0.00    +0.000 N 
ATOM      3  C   UNL     1      20.144   8.940  36.378  0.00  0.00    +0.000 C 
ATOM      4  C   UNL     1      19.466   6.366  38.876  0.00  0.00    +0.000 C 
ATOM      5  C   UNL     1      20.495   9.449  37.626  0.00  0.00    +0.000 C 
ATOM      6  C   UNL     1      19.247   5.813  37.618  0.00  0.00    +0.000 C 
ATOM      7  C   UNL     1      20.162   9.991  35.430  0.00  0.00    +0.000 A 
ATOM      8  C   UNL     1      18.977   5.477  39.864  0.00  0.00    +0.000 A 
ATOM      9  C   UNL     1      20.493  11.151  36.130  0.00  0.00    +0.000 A 
ATOM     10  C   UNL     1      18.425   4.393  39.182  0.00  0.00    +0.000 A 
ATOM     11  C   UNL     1      20.613   8.831  38.921  0.00  0.00    +0.000 C 
ATOM     12  C   UNL     1      19.526   6.294  36.290  0.00  0.00    +0.000 C 
ATOM     13  C   UNL     1      20.074   7.647  39.063  0.00  0.00    +0.000 C 
ATOM     14  C   UNL     1      19.808   7.566  36.169  0.00  0.00    +0.000 C 
ATOM     15  C   UNL     1      19.912  10.079  34.048  0.00  0.00    +0.000 A 
ATOM     16  C   UNL     1      18.930   5.490  41.270  0.00  0.00    +0.000 A 
ATOM     17  C   UNL     1      20.594  12.404  35.515  0.00  0.00    +0.000 A 
ATOM     18  C   UNL     1      17.828   3.310  39.837  0.00  0.00    +0.000 A 
ATOM     19  C   UNL     1      20.013  11.321  33.417  0.00  0.00    +0.000 A 
ATOM     20  C   UNL     1      18.344   4.415  41.940  0.00  0.00    +0.000 A 
ATOM     21  C   UNL     1      20.350  12.460  34.141  0.00  0.00    +0.000 A 
ATOM     22  C   UNL     1      17.805   3.345  41.233  0.00  0.00    +0.000 A 
ATOM     23  H   UNL     1      20.865  11.488  38.175  0.00  0.00    +0.000 HD
ATOM     24  H   UNL     1      18.210   4.001  37.123  0.00  0.00    +0.000 HD
ENDROOT
BRANCH  11  26
ATOM     25  O   UNL     1      20.909   9.641  41.152  0.00  0.00    +0.000 OA
ATOM     26  C   UNL     1      21.404   9.366  40.066  0.00  0.00    +0.000 C 
BRANCH  26  27
ATOM     27  O   UNL     1      22.713   9.460  39.691  0.00  0.00    +0.000 OA
ATOM     28  C   UNL     1      23.670   8.759  40.440  0.00  0.00    +0.000 C 
ENDBRANCH  26  27
ENDBRANCH  11  26
BRANCH  12  30
ATOM     29  O   UNL     1      20.592   5.520  34.292  0.00  0.00    +0.000 OA
ATOM     30  C   UNL     1      19.648   5.445  35.069  0.00  0.00    +0.000 C 
BRANCH  30  31
ATOM     31  O   UNL     1      18.576   4.602  35.011  0.00  0.00    +0.000 OA
ATOM     32  C   UNL     1      17.553   4.894  34.096  0.00  0.00    +0.000 C 
ENDBRANCH  30  31
ENDBRANCH  12  30
TORSDOF 4
ENDMDL
MODEL 9
REMARK VINA RESULT:      -7.1     18.463     22.104
REMARK  Name = 5326018_Caulerpin.pdbqt.pdb
REMARK  4 active torsions:
REMARK  status: ('A' for Active; 'I' for Inactive)
REMARK    1  A    between atoms: C_11  and  C_26
REMARK    2  A    between atoms: C_12  and  C_30
REMARK    3  A    between atoms: C_26  and  O_27
REMARK    4  A    between atoms: C_30  and  O_31
REMARK                            x       y       z     vdW  Elec       q    Type
REMARK                         _______ _______ _______ _____ _____    ______ ____
ROOT
ATOM      1  N   UNL     1      37.330   3.272  16.148  0.00  0.00    +0.000 N 
ATOM      2  N   UNL     1      39.403   2.639   9.984  0.00  0.00    +0.000 N 
ATOM      3  C   UNL     1      38.838   3.817  14.617  0.00  0.00    +0.000 C 
ATOM      4  C   UNL     1      38.166   1.825  11.633  0.00  0.00    +0.000 C 
ATOM      5  C   UNL     1      37.863   2.875  14.939  0.00  0.00    +0.000 C 
ATOM      6  C   UNL     1      39.234   2.672  11.353  0.00  0.00    +0.000 C 
ATOM      7  C   UNL     1      38.939   4.755  15.673  0.00  0.00    +0.000 A 
ATOM      8  C   UNL     1      37.725   1.223  10.429  0.00  0.00    +0.000 A 
ATOM      9  C   UNL     1      37.986   4.388  16.622  0.00  0.00    +0.000 A 
ATOM     10  C   UNL     1      38.521   1.747   9.411  0.00  0.00    +0.000 A 
ATOM     11  C   UNL     1      37.353   1.734  14.226  0.00  0.00    +0.000 C 
ATOM     12  C   UNL     1      40.031   3.530  12.192  0.00  0.00    +0.000 C 
ATOM     13  C   UNL     1      37.635   1.657  12.951  0.00  0.00    +0.000 C 
ATOM     14  C   UNL     1      39.564   3.789  13.386  0.00  0.00    +0.000 C 
ATOM     15  C   UNL     1      39.733   5.892  15.911  0.00  0.00    +0.000 A 
ATOM     16  C   UNL     1      36.719   0.297  10.097  0.00  0.00    +0.000 A 
ATOM     17  C   UNL     1      37.786   5.101  17.809  0.00  0.00    +0.000 A 
ATOM     18  C   UNL     1      38.365   1.388   8.068  0.00  0.00    +0.000 A 
ATOM     19  C   UNL     1      39.551   6.612  17.094  0.00  0.00    +0.000 A 
ATOM     20  C   UNL     1      36.553  -0.076   8.763  0.00  0.00    +0.000 A 
ATOM     21  C   UNL     1      38.594   6.220  18.024  0.00  0.00    +0.000 A 
ATOM     22  C   UNL     1      37.365   0.461   7.768  0.00  0.00    +0.000 A 
ATOM     23  H   UNL     1      36.559   2.839  16.640  0.00  0.00    +0.000 HD
ATOM     24  H   UNL     1      40.061   3.185   9.441  0.00  0.00    +0.000 HD
ENDROOT
BRANCH  11  26
ATOM     25  O   UNL     1      37.055  -0.577  14.769  0.00  0.00    +0.000 OA
ATOM     26  C   UNL     1      36.645   0.575  14.842  0.00  0.00    +0.000 C 
BRANCH  26  27
ATOM     27  O   UNL     1      35.531   1.031  15.485  0.00  0.00    +0.000 OA
ATOM     28  C   UNL     1      34.338   1.135  14.754  0.00  0.00    +0.000 C 
ENDBRANCH  26  27
ENDBRANCH  11  26
BRANCH  12  30
ATOM     29  O   UNL     1      42.110   3.530  11.006  0.00  0.00    +0.000 OA
ATOM     30  C   UNL     1      41.395   4.037  11.863  0.00  0.00    +0.000 C 
BRANCH  30  31
ATOM     31  O   UNL     1      41.659   5.125  12.642  0.00  0.00    +0.000 OA
ATOM     32  C   UNL     1      41.968   6.337  12.006  0.00  0.00    +0.000 C 
ENDBRANCH  30  31
ENDBRANCH  12  30
TORSDOF 4
ENDMDL
