MODEL 1
REMARK VINA RESULT:      -3.9      0.000      0.000
REMARK  Name = 5350_Sulforaphane.pdbqt.pdb
REMARK  3 active torsions:
REMARK  status: ('A' for Active; 'I' for Inactive)
REMARK    1  A    between atoms: C_1  and  C_2
REMARK    2  A    between atoms: C_3  and  N_5
REMARK    3  A    between atoms: C_7  and  S_8
REMARK                            x       y       z     vdW  Elec       q    Type
REMARK                         _______ _______ _______ _____ _____    ______ ____
ROOT
ATOM      1  C   UNL     1      36.280   1.870  14.347  0.00  0.00    +0.000 C 
ATOM      2  C   UNL     1      36.042   2.092  15.844  0.00  0.00    +0.000 C 
ENDROOT
BRANCH   2   3
ATOM      3  S   UNL     1      35.766   2.343  17.566  0.00  0.00    +0.000 S 
ATOM      4  O   UNL     1      34.590   3.236  17.304  0.00  0.00    +0.000 OA
ATOM      5  C   UNL     1      36.871   3.711  17.649  0.00  0.00    +0.000 C 
ENDBRANCH   2   3
BRANCH   1   6
ATOM      6  C   UNL     1      36.516   1.649  12.850  0.00  0.00    +0.000 C 
ATOM      7  C   UNL     1      36.752   1.428  11.351  0.00  0.00    +0.000 C 
BRANCH   7   9
ATOM      8  S   UNL     1      37.207  -1.439   9.410  0.00  0.00    +0.000 S 
ATOM      9  N   UNL     1      36.967   1.245  10.041  0.00  0.00    +0.000 NA
ATOM     10  C   UNL     1      37.065   0.102   9.794  0.00  0.00    +0.000 C 
ENDBRANCH   7   9
ENDBRANCH   1   6
TORSDOF 3
ENDMDL
MODEL 2
REMARK VINA RESULT:      -3.9      2.448      2.612
REMARK  Name = 5350_Sulforaphane.pdbqt.pdb
REMARK  3 active torsions:
REMARK  status: ('A' for Active; 'I' for Inactive)
REMARK    1  A    between atoms: C_1  and  C_2
REMARK    2  A    between atoms: C_3  and  N_5
REMARK    3  A    between atoms: C_7  and  S_8
REMARK                            x       y       z     vdW  Elec       q    Type
REMARK                         _______ _______ _______ _____ _____    ______ ____
ROOT
ATOM      1  C   UNL     1      35.513   0.603  13.934  0.00  0.00    +0.000 C 
ATOM      2  C   UNL     1      34.742   0.128  15.170  0.00  0.00    +0.000 C 
ENDROOT
BRANCH   2   3
ATOM      3  S   UNL     1      33.859  -0.419  16.594  0.00  0.00    +0.000 S 
ATOM      4  O   UNL     1      34.488   0.635  17.456  0.00  0.00    +0.000 OA
ATOM      5  C   UNL     1      35.088  -1.602  17.029  0.00  0.00    +0.000 C 
ENDBRANCH   2   3
BRANCH   1   6
ATOM      6  C   UNL     1      36.283   1.075  12.698  0.00  0.00    +0.000 C 
ATOM      7  C   UNL     1      37.054   1.548  11.459  0.00  0.00    +0.000 C 
BRANCH   7   9
ATOM      8  S   UNL     1      37.071   0.515   8.123  0.00  0.00    +0.000 S 
ATOM      9  N   UNL     1      37.728   1.973  10.382  0.00  0.00    +0.000 NA
ATOM     10  C   UNL     1      37.435   1.343   9.436  0.00  0.00    +0.000 C 
ENDBRANCH   7   9
ENDBRANCH   1   6
TORSDOF 3
ENDMDL
MODEL 3
REMARK VINA RESULT:      -3.8      3.849      6.919
REMARK  Name = 5350_Sulforaphane.pdbqt.pdb
REMARK  3 active torsions:
REMARK  status: ('A' for Active; 'I' for Inactive)
REMARK    1  A    between atoms: C_1  and  C_2
REMARK    2  A    between atoms: C_3  and  N_5
REMARK    3  A    between atoms: C_7  and  S_8
REMARK                            x       y       z     vdW  Elec       q    Type
REMARK                         _______ _______ _______ _____ _____    ______ ____
ROOT
ATOM      1  C   UNL     1      36.827   0.842  11.578  0.00  0.00    +0.000 C 
ATOM      2  C   UNL     1      37.681   0.112  10.536  0.00  0.00    +0.000 C 
ENDROOT
BRANCH   2   3
ATOM      3  S   UNL     1      38.660  -0.726   9.335  0.00  0.00    +0.000 S 
ATOM      4  O   UNL     1      37.898  -2.004   9.525  0.00  0.00    +0.000 OA
ATOM      5  C   UNL     1      39.881  -1.203  10.511  0.00  0.00    +0.000 C 
ENDBRANCH   2   3
BRANCH   1   6
ATOM      6  C   UNL     1      35.973   1.570  12.620  0.00  0.00    +0.000 C 
ATOM      7  C   UNL     1      35.117   2.298  13.664  0.00  0.00    +0.000 C 
BRANCH   7   9
ATOM      8  S   UNL     1      35.483   2.839  17.094  0.00  0.00    +0.000 S 
ATOM      9  N   UNL     1      34.361   2.937  14.566  0.00  0.00    +0.000 NA
ATOM     10  C   UNL     1      34.853   2.884  15.630  0.00  0.00    +0.000 C 
ENDBRANCH   7   9
ENDBRANCH   1   6
TORSDOF 3
ENDMDL
MODEL 4
REMARK VINA RESULT:      -3.8      3.887      7.022
REMARK  Name = 5350_Sulforaphane.pdbqt.pdb
REMARK  3 active torsions:
REMARK  status: ('A' for Active; 'I' for Inactive)
REMARK    1  A    between atoms: C_1  and  C_2
REMARK    2  A    between atoms: C_3  and  N_5
REMARK    3  A    between atoms: C_7  and  S_8
REMARK                            x       y       z     vdW  Elec       q    Type
REMARK                         _______ _______ _______ _____ _____    ______ ____
ROOT
ATOM      1  C   UNL     1      36.212   1.014  13.263  0.00  0.00    +0.000 C 
ATOM      2  C   UNL     1      36.705   0.923  11.815  0.00  0.00    +0.000 C 
ENDROOT
BRANCH   2   3
ATOM      3  S   UNL     1      37.269   0.817  10.149  0.00  0.00    +0.000 S 
ATOM      4  O   UNL     1      36.344  -0.325   9.851  0.00  0.00    +0.000 OA
ATOM      5  C   UNL     1      38.590  -0.274  10.556  0.00  0.00    +0.000 C 
ENDBRANCH   2   3
BRANCH   1   6
ATOM      6  C   UNL     1      35.720   1.102  14.710  0.00  0.00    +0.000 C 
ATOM      7  C   UNL     1      35.227   1.190  16.160  0.00  0.00    +0.000 C 
BRANCH   7   9
ATOM      8  S   UNL     1      36.562   2.698  19.013  0.00  0.00    +0.000 S 
ATOM      9  N   UNL     1      34.794   1.280  17.425  0.00  0.00    +0.000 NA
ATOM     10  C   UNL     1      35.556   1.884  18.081  0.00  0.00    +0.000 C 
ENDBRANCH   7   9
ENDBRANCH   1   6
TORSDOF 3
ENDMDL
MODEL 5
REMARK VINA RESULT:      -3.6     34.610     37.114
REMARK  Name = 5350_Sulforaphane.pdbqt.pdb
REMARK  3 active torsions:
REMARK  status: ('A' for Active; 'I' for Inactive)
REMARK    1  A    between atoms: C_1  and  C_2
REMARK    2  A    between atoms: C_3  and  N_5
REMARK    3  A    between atoms: C_7  and  S_8
REMARK                            x       y       z     vdW  Elec       q    Type
REMARK                         _______ _______ _______ _____ _____    ______ ____
ROOT
ATOM      1  C   UNL     1      21.363  -8.647  44.693  0.00  0.00    +0.000 C 
ATOM      2  C   UNL     1      20.553  -8.550  43.396  0.00  0.00    +0.000 C 
ENDROOT
BRANCH   2   3
ATOM      3  S   UNL     1      19.618  -8.438  41.907  0.00  0.00    +0.000 S 
ATOM      4  O   UNL     1      20.526  -9.400  41.200  0.00  0.00    +0.000 OA
ATOM      5  C   UNL     1      20.524  -7.048  41.320  0.00  0.00    +0.000 C 
ENDBRANCH   2   3
BRANCH   1   6
ATOM      6  C   UNL     1      22.173  -8.746  45.989  0.00  0.00    +0.000 C 
ATOM      7  C   UNL     1      22.983  -8.846  47.287  0.00  0.00    +0.000 C 
BRANCH   7   9
ATOM      8  S   UNL     1      22.419 -10.455  50.335  0.00  0.00    +0.000 S 
ATOM      9  N   UNL     1      23.698  -8.922  48.418  0.00  0.00    +0.000 NA
ATOM     10  C   UNL     1      23.140  -9.575  49.217  0.00  0.00    +0.000 C 
ENDBRANCH   7   9
ENDBRANCH   1   6
TORSDOF 3
ENDMDL
MODEL 6
REMARK VINA RESULT:      -3.6      4.197      5.570
REMARK  Name = 5350_Sulforaphane.pdbqt.pdb
REMARK  3 active torsions:
REMARK  status: ('A' for Active; 'I' for Inactive)
REMARK    1  A    between atoms: C_1  and  C_2
REMARK    2  A    between atoms: C_3  and  N_5
REMARK    3  A    between atoms: C_7  and  S_8
REMARK                            x       y       z     vdW  Elec       q    Type
REMARK                         _______ _______ _______ _____ _____    ______ ____
ROOT
ATOM      1  C   UNL     1      36.142   1.701  14.933  0.00  0.00    +0.000 C 
ATOM      2  C   UNL     1      35.113   0.580  15.116  0.00  0.00    +0.000 C 
ENDROOT
BRANCH   2   3
ATOM      3  S   UNL     1      33.930  -0.708  15.332  0.00  0.00    +0.000 S 
ATOM      4  O   UNL     1      32.783   0.247  15.186  0.00  0.00    +0.000 OA
ATOM      5  C   UNL     1      33.924  -0.551  17.085  0.00  0.00    +0.000 C 
ENDBRANCH   2   3
BRANCH   1   6
ATOM      6  C   UNL     1      37.172   2.819  14.750  0.00  0.00    +0.000 C 
ATOM      7  C   UNL     1      38.203   3.938  14.566  0.00  0.00    +0.000 C 
BRANCH   7   9
ATOM      8  S   UNL     1      39.808   6.049  16.839  0.00  0.00    +0.000 S 
ATOM      9  N   UNL     1      39.097   4.924  14.412  0.00  0.00    +0.000 NA
ATOM     10  C   UNL     1      39.386   5.387  15.451  0.00  0.00    +0.000 C 
ENDBRANCH   7   9
ENDBRANCH   1   6
TORSDOF 3
ENDMDL
MODEL 7
REMARK VINA RESULT:      -3.5     23.020     24.165
REMARK  Name = 5350_Sulforaphane.pdbqt.pdb
REMARK  3 active torsions:
REMARK  status: ('A' for Active; 'I' for Inactive)
REMARK    1  A    between atoms: C_1  and  C_2
REMARK    2  A    between atoms: C_3  and  N_5
REMARK    3  A    between atoms: C_7  and  S_8
REMARK                            x       y       z     vdW  Elec       q    Type
REMARK                         _______ _______ _______ _____ _____    ______ ____
ROOT
ATOM      1  C   UNL     1      46.977 -20.068  14.821  0.00  0.00    +0.000 C 
ATOM      2  C   UNL     1      46.114 -21.267  15.230  0.00  0.00    +0.000 C 
ENDROOT
BRANCH   2   3
ATOM      3  S   UNL     1      45.123 -22.644  15.704  0.00  0.00    +0.000 S 
ATOM      4  O   UNL     1      44.263 -21.790  16.588  0.00  0.00    +0.000 OA
ATOM      5  C   UNL     1      46.182 -23.077  17.042  0.00  0.00    +0.000 C 
ENDBRANCH   2   3
BRANCH   1   6
ATOM      6  C   UNL     1      47.842 -18.872  14.412  0.00  0.00    +0.000 C 
ATOM      7  C   UNL     1      48.708 -17.675  14.003  0.00  0.00    +0.000 C 
BRANCH   7   9
ATOM      8  S   UNL     1      49.580 -14.738  15.679  0.00  0.00    +0.000 S 
ATOM      9  N   UNL     1      49.466 -16.625  13.658  0.00  0.00    +0.000 NA
ATOM     10  C   UNL     1      49.502 -15.837  14.527  0.00  0.00    +0.000 C 
ENDBRANCH   7   9
ENDBRANCH   1   6
TORSDOF 3
ENDMDL
MODEL 8
REMARK VINA RESULT:      -3.2     35.766     37.904
REMARK  Name = 5350_Sulforaphane.pdbqt.pdb
REMARK  3 active torsions:
REMARK  status: ('A' for Active; 'I' for Inactive)
REMARK    1  A    between atoms: C_1  and  C_2
REMARK    2  A    between atoms: C_3  and  N_5
REMARK    3  A    between atoms: C_7  and  S_8
REMARK                            x       y       z     vdW  Elec       q    Type
REMARK                         _______ _______ _______ _____ _____    ______ ____
ROOT
ATOM      1  C   UNL     1      21.605  -9.753  47.052  0.00  0.00    +0.000 C 
ATOM      2  C   UNL     1      21.771 -10.480  48.390  0.00  0.00    +0.000 C 
ENDROOT
BRANCH   2   3
ATOM      3  S   UNL     1      21.964 -11.320  49.927  0.00  0.00    +0.000 S 
ATOM      4  O   UNL     1      20.607 -10.886  50.396  0.00  0.00    +0.000 OA
ATOM      5  C   UNL     1      22.743  -9.943  50.700  0.00  0.00    +0.000 C 
ENDBRANCH   2   3
BRANCH   1   6
ATOM      6  C   UNL     1      21.436  -9.027  45.714  0.00  0.00    +0.000 C 
ATOM      7  C   UNL     1      21.266  -8.300  44.375  0.00  0.00    +0.000 C 
BRANCH   7   9
ATOM      8  S   UNL     1      18.999  -8.648  41.741  0.00  0.00    +0.000 S 
ATOM      9  N   UNL     1      21.125  -7.655  43.209  0.00  0.00    +0.000 NA
ATOM     10  C   UNL     1      20.219  -8.090  42.602  0.00  0.00    +0.000 C 
ENDBRANCH   7   9
ENDBRANCH   1   6
TORSDOF 3
ENDMDL
MODEL 9
REMARK VINA RESULT:      -3.1      4.564      7.098
REMARK  Name = 5350_Sulforaphane.pdbqt.pdb
REMARK  3 active torsions:
REMARK  status: ('A' for Active; 'I' for Inactive)
REMARK    1  A    between atoms: C_1  and  C_2
REMARK    2  A    between atoms: C_3  and  N_5
REMARK    3  A    between atoms: C_7  and  S_8
REMARK                            x       y       z     vdW  Elec       q    Type
REMARK                         _______ _______ _______ _____ _____    ______ ____
ROOT
ATOM      1  C   UNL     1      38.259   3.204  14.272  0.00  0.00    +0.000 C 
ATOM      2  C   UNL     1      37.685   1.949  13.605  0.00  0.00    +0.000 C 
ENDROOT
BRANCH   2   3
ATOM      3  S   UNL     1      37.022   0.507  12.840  0.00  0.00    +0.000 S 
ATOM      4  O   UNL     1      35.653   0.778  13.391  0.00  0.00    +0.000 OA
ATOM      5  C   UNL     1      37.436  -0.530  14.201  0.00  0.00    +0.000 C 
ENDBRANCH   2   3
BRANCH   1   6
ATOM      6  C   UNL     1      38.833   4.456  14.940  0.00  0.00    +0.000 C 
ATOM      7  C   UNL     1      39.409   5.710  15.609  0.00  0.00    +0.000 C 
BRANCH   7   9
ATOM      8  S   UNL     1      38.692   7.303  18.633  0.00  0.00    +0.000 S 
ATOM      9  N   UNL     1      39.901   6.812  16.192  0.00  0.00    +0.000 NA
ATOM     10  C   UNL     1      39.377   7.002  17.225  0.00  0.00    +0.000 C 
ENDBRANCH   7   9
ENDBRANCH   1   6
TORSDOF 3
ENDMDL
