MODEL 1
REMARK VINA RESULT:      -5.9      0.000      0.000
REMARK  Name = 5357283_Methylferulate.pdbqt.pdb
REMARK  5 active torsions:
REMARK  status: ('A' for Active; 'I' for Inactive)
REMARK    1  A    between atoms: C_1  and  C_11
REMARK    2  A    between atoms: C_2  and  O_7
REMARK    3  A    between atoms: C_5  and  O_9
REMARK    4  A    between atoms: C_12  and  C_14
REMARK    5  A    between atoms: C_14  and  O_15
REMARK                            x       y       z     vdW  Elec       q    Type
REMARK                         _______ _______ _______ _____ _____    ______ ____
ROOT
ATOM      1  C   UNL     1      19.837   7.560  19.429  0.00  0.00    +0.000 A 
ATOM      2  C   UNL     1      18.593   5.543  19.946  0.00  0.00    +0.000 A 
ATOM      3  C   UNL     1      19.365   6.301  19.060  0.00  0.00    +0.000 A 
ATOM      4  C   UNL     1      19.541   8.076  20.689  0.00  0.00    +0.000 A 
ATOM      5  C   UNL     1      18.304   6.073  21.206  0.00  0.00    +0.000 A 
ATOM      6  C   UNL     1      18.773   7.332  21.580  0.00  0.00    +0.000 A 
ENDROOT
BRANCH   2   7
ATOM      7  O   UNL     1      18.091   4.296  19.662  0.00  0.00    +0.000 OA
ATOM      8  C   UNL     1      19.047   3.277  19.534  0.00  0.00    +0.000 C 
ENDBRANCH   2   7
BRANCH   5   9
ATOM      9  O   UNL     1      17.551   5.346  22.087  0.00  0.00    +0.000 OA
ATOM     10  H   UNL     1      16.651   5.720  22.112  0.00  0.00    +0.000 HD
ENDBRANCH   5   9
BRANCH   1  11
ATOM     11  C   UNL     1      20.622   8.320  18.513  0.00  0.00    +0.000 C 
ATOM     12  C   UNL     1      21.285   8.961  17.742  0.00  0.00    +0.000 C 
BRANCH  12  14
ATOM     13  O   UNL     1      23.197  10.112  17.144  0.00  0.00    +0.000 OA
ATOM     14  C   UNL     1      22.080   9.735  16.817  0.00  0.00    +0.000 C 
BRANCH  14  15
ATOM     15  O   UNL     1      21.412   9.940  15.643  0.00  0.00    +0.000 OA
ATOM     16  C   UNL     1      21.606  11.164  14.981  0.00  0.00    +0.000 C 
ENDBRANCH  14  15
ENDBRANCH  12  14
ENDBRANCH   1  11
TORSDOF 5
ENDMDL
MODEL 2
REMARK VINA RESULT:      -5.7      1.794      6.353
REMARK  Name = 5357283_Methylferulate.pdbqt.pdb
REMARK  5 active torsions:
REMARK  status: ('A' for Active; 'I' for Inactive)
REMARK    1  A    between atoms: C_1  and  C_11
REMARK    2  A    between atoms: C_2  and  O_7
REMARK    3  A    between atoms: C_5  and  O_9
REMARK    4  A    between atoms: C_12  and  C_14
REMARK    5  A    between atoms: C_14  and  O_15
REMARK                            x       y       z     vdW  Elec       q    Type
REMARK                         _______ _______ _______ _____ _____    ______ ____
ROOT
ATOM      1  C   UNL     1      20.083   7.238  18.706  0.00  0.00    +0.000 A 
ATOM      2  C   UNL     1      20.190   9.641  19.015  0.00  0.00    +0.000 A 
ATOM      3  C   UNL     1      19.685   8.390  19.383  0.00  0.00    +0.000 A 
ATOM      4  C   UNL     1      20.990   7.325  17.652  0.00  0.00    +0.000 A 
ATOM      5  C   UNL     1      21.099   9.712  17.957  0.00  0.00    +0.000 A 
ATOM      6  C   UNL     1      21.499   8.564  17.276  0.00  0.00    +0.000 A 
ENDROOT
BRANCH   2   7
ATOM      7  O   UNL     1      19.851  10.823  19.629  0.00  0.00    +0.000 OA
ATOM      8  C   UNL     1      19.651  10.745  21.016  0.00  0.00    +0.000 C 
ENDBRANCH   2   7
BRANCH   5   9
ATOM      9  O   UNL     1      21.605  10.928  17.582  0.00  0.00    +0.000 OA
ATOM     10  H   UNL     1      22.375  11.132  18.143  0.00  0.00    +0.000 HD
ENDBRANCH   5   9
BRANCH   1  11
ATOM     11  C   UNL     1      19.557   5.971  19.094  0.00  0.00    +0.000 C 
ATOM     12  C   UNL     1      19.115   4.901  19.421  0.00  0.00    +0.000 C 
BRANCH  12  14
ATOM     13  O   UNL     1      18.371   3.377  20.990  0.00  0.00    +0.000 OA
ATOM     14  C   UNL     1      18.585   3.615  19.809  0.00  0.00    +0.000 C 
BRANCH  14  15
ATOM     15  O   UNL     1      18.392   2.812  18.721  0.00  0.00    +0.000 OA
ATOM     16  C   UNL     1      17.229   3.007  17.957  0.00  0.00    +0.000 C 
ENDBRANCH  14  15
ENDBRANCH  12  14
ENDBRANCH   1  11
TORSDOF 5
ENDMDL
MODEL 3
REMARK VINA RESULT:      -5.6     17.798     19.643
REMARK  Name = 5357283_Methylferulate.pdbqt.pdb
REMARK  5 active torsions:
REMARK  status: ('A' for Active; 'I' for Inactive)
REMARK    1  A    between atoms: C_1  and  C_11
REMARK    2  A    between atoms: C_2  and  O_7
REMARK    3  A    between atoms: C_5  and  O_9
REMARK    4  A    between atoms: C_12  and  C_14
REMARK    5  A    between atoms: C_14  and  O_15
REMARK                            x       y       z     vdW  Elec       q    Type
REMARK                         _______ _______ _______ _____ _____    ______ ____
ROOT
ATOM      1  C   UNL     1      29.210  -0.389   4.484  0.00  0.00    +0.000 A 
ATOM      2  C   UNL     1      27.983   1.569   5.222  0.00  0.00    +0.000 A 
ATOM      3  C   UNL     1      29.130   0.990   4.670  0.00  0.00    +0.000 A 
ATOM      4  C   UNL     1      28.142  -1.206   4.848  0.00  0.00    +0.000 A 
ATOM      5  C   UNL     1      26.920   0.737   5.582  0.00  0.00    +0.000 A 
ATOM      6  C   UNL     1      26.994  -0.643   5.398  0.00  0.00    +0.000 A 
ENDROOT
BRANCH   2   7
ATOM      7  O   UNL     1      27.824   2.916   5.438  0.00  0.00    +0.000 OA
ATOM      8  C   UNL     1      27.730   3.705   4.281  0.00  0.00    +0.000 C 
ENDBRANCH   2   7
BRANCH   5   9
ATOM      9  O   UNL     1      25.788   1.284   6.123  0.00  0.00    +0.000 OA
ATOM     10  H   UNL     1      26.000   1.626   7.011  0.00  0.00    +0.000 HD
ENDBRANCH   5   9
BRANCH   1  11
ATOM     11  C   UNL     1      30.387  -0.962   3.920  0.00  0.00    +0.000 C 
ATOM     12  C   UNL     1      31.380  -1.446   3.444  0.00  0.00    +0.000 C 
BRANCH  12  14
ATOM     13  O   UNL     1      33.652  -1.870   3.425  0.00  0.00    +0.000 OA
ATOM     14  C   UNL     1      32.571  -2.032   2.874  0.00  0.00    +0.000 C 
BRANCH  14  15
ATOM     15  O   UNL     1      32.283  -2.722   1.731  0.00  0.00    +0.000 OA
ATOM     16  C   UNL     1      31.566  -3.924   1.852  0.00  0.00    +0.000 C 
ENDBRANCH  14  15
ENDBRANCH  12  14
ENDBRANCH   1  11
TORSDOF 5
ENDMDL
MODEL 4
REMARK VINA RESULT:      -5.3      1.773      6.517
REMARK  Name = 5357283_Methylferulate.pdbqt.pdb
REMARK  5 active torsions:
REMARK  status: ('A' for Active; 'I' for Inactive)
REMARK    1  A    between atoms: C_1  and  C_11
REMARK    2  A    between atoms: C_2  and  O_7
REMARK    3  A    between atoms: C_5  and  O_9
REMARK    4  A    between atoms: C_12  and  C_14
REMARK    5  A    between atoms: C_14  and  O_15
REMARK                            x       y       z     vdW  Elec       q    Type
REMARK                         _______ _______ _______ _____ _____    ______ ____
ROOT
ATOM      1  C   UNL     1      20.630   8.238  18.179  0.00  0.00    +0.000 A 
ATOM      2  C   UNL     1      20.514  10.657  18.039  0.00  0.00    +0.000 A 
ATOM      3  C   UNL     1      19.972   9.437  18.453  0.00  0.00    +0.000 A 
ATOM      4  C   UNL     1      21.839   8.248  17.486  0.00  0.00    +0.000 A 
ATOM      5  C   UNL     1      21.727  10.651  17.346  0.00  0.00    +0.000 A 
ATOM      6  C   UNL     1      22.389   9.456  17.069  0.00  0.00    +0.000 A 
ENDROOT
BRANCH   2   7
ATOM      7  O   UNL     1      19.931  11.880  18.269  0.00  0.00    +0.000 OA
ATOM      8  C   UNL     1      18.529  11.900  18.206  0.00  0.00    +0.000 C 
ENDBRANCH   2   7
BRANCH   5   9
ATOM      9  O   UNL     1      22.275  11.835  16.933  0.00  0.00    +0.000 OA
ATOM     10  H   UNL     1      22.796  12.211  17.666  0.00  0.00    +0.000 HD
ENDBRANCH   5   9
BRANCH   1  11
ATOM     11  C   UNL     1      20.062   7.003  18.608  0.00  0.00    +0.000 C 
ATOM     12  C   UNL     1      19.582   5.962  18.969  0.00  0.00    +0.000 C 
BRANCH  12  14
ATOM     13  O   UNL     1      19.570   3.658  19.156  0.00  0.00    +0.000 OA
ATOM     14  C   UNL     1      19.002   4.713  19.407  0.00  0.00    +0.000 C 
BRANCH  14  15
ATOM     15  O   UNL     1      17.831   4.921  20.077  0.00  0.00    +0.000 OA
ATOM     16  C   UNL     1      17.894   5.549  21.333  0.00  0.00    +0.000 C 
ENDBRANCH  14  15
ENDBRANCH  12  14
ENDBRANCH   1  11
TORSDOF 5
ENDMDL
MODEL 5
REMARK VINA RESULT:      -5.2     29.168     31.246
REMARK  Name = 5357283_Methylferulate.pdbqt.pdb
REMARK  5 active torsions:
REMARK  status: ('A' for Active; 'I' for Inactive)
REMARK    1  A    between atoms: C_1  and  C_11
REMARK    2  A    between atoms: C_2  and  O_7
REMARK    3  A    between atoms: C_5  and  O_9
REMARK    4  A    between atoms: C_12  and  C_14
REMARK    5  A    between atoms: C_14  and  O_15
REMARK                            x       y       z     vdW  Elec       q    Type
REMARK                         _______ _______ _______ _____ _____    ______ ____
ROOT
ATOM      1  C   UNL     1      35.865 -11.373  37.703  0.00  0.00    +0.000 A 
ATOM      2  C   UNL     1      35.361 -13.709  38.122  0.00  0.00    +0.000 A 
ATOM      3  C   UNL     1      35.440 -12.385  38.564  0.00  0.00    +0.000 A 
ATOM      4  C   UNL     1      36.215 -11.676  36.389  0.00  0.00    +0.000 A 
ATOM      5  C   UNL     1      35.715 -13.997  36.801  0.00  0.00    +0.000 A 
ATOM      6  C   UNL     1      36.140 -12.989  35.936  0.00  0.00    +0.000 A 
ENDROOT
BRANCH   2   7
ATOM      7  O   UNL     1      34.954 -14.763  38.904  0.00  0.00    +0.000 OA
ATOM      8  C   UNL     1      35.862 -15.162  39.896  0.00  0.00    +0.000 C 
ENDBRANCH   2   7
BRANCH   5   9
ATOM      9  O   UNL     1      35.644 -15.286  36.349  0.00  0.00    +0.000 OA
ATOM     10  H   UNL     1      35.635 -15.887  37.117  0.00  0.00    +0.000 HD
ENDBRANCH   5   9
BRANCH   1  11
ATOM     11  C   UNL     1      35.940 -10.029  38.171  0.00  0.00    +0.000 C 
ATOM     12  C   UNL     1      36.005  -8.896  38.568  0.00  0.00    +0.000 C 
BRANCH  12  14
ATOM     13  O   UNL     1      36.757  -7.274  40.033  0.00  0.00    +0.000 OA
ATOM     14  C   UNL     1      36.079  -7.535  39.048  0.00  0.00    +0.000 C 
BRANCH  14  15
ATOM     15  O   UNL     1      35.328  -6.697  38.274  0.00  0.00    +0.000 OA
ATOM     16  C   UNL     1      35.126  -5.384  38.732  0.00  0.00    +0.000 C 
ENDBRANCH  14  15
ENDBRANCH  12  14
ENDBRANCH   1  11
TORSDOF 5
ENDMDL
MODEL 6
REMARK VINA RESULT:      -5.0      4.055      6.053
REMARK  Name = 5357283_Methylferulate.pdbqt.pdb
REMARK  5 active torsions:
REMARK  status: ('A' for Active; 'I' for Inactive)
REMARK    1  A    between atoms: C_1  and  C_11
REMARK    2  A    between atoms: C_2  and  O_7
REMARK    3  A    between atoms: C_5  and  O_9
REMARK    4  A    between atoms: C_12  and  C_14
REMARK    5  A    between atoms: C_14  and  O_15
REMARK                            x       y       z     vdW  Elec       q    Type
REMARK                         _______ _______ _______ _____ _____    ______ ____
ROOT
ATOM      1  C   UNL     1      21.636  11.878  17.576  0.00  0.00    +0.000 A 
ATOM      2  C   UNL     1      20.670   9.681  17.925  0.00  0.00    +0.000 A 
ATOM      3  C   UNL     1      20.645  11.064  18.125  0.00  0.00    +0.000 A 
ATOM      4  C   UNL     1      22.662  11.316  16.821  0.00  0.00    +0.000 A 
ATOM      5  C   UNL     1      21.706   9.132  17.165  0.00  0.00    +0.000 A 
ATOM      6  C   UNL     1      22.699   9.941  16.614  0.00  0.00    +0.000 A 
ENDROOT
BRANCH   2   7
ATOM      7  O   UNL     1      19.735   8.809  18.430  0.00  0.00    +0.000 OA
ATOM      8  C   UNL     1      19.249   9.122  19.709  0.00  0.00    +0.000 C 
ENDBRANCH   2   7
BRANCH   5   9
ATOM      9  O   UNL     1      21.747   7.779  16.957  0.00  0.00    +0.000 OA
ATOM     10  H   UNL     1      21.083   7.547  16.282  0.00  0.00    +0.000 HD
ENDBRANCH   5   9
BRANCH   1  11
ATOM     11  C   UNL     1      21.595  13.287  17.792  0.00  0.00    +0.000 C 
ATOM     12  C   UNL     1      21.560  14.475  17.973  0.00  0.00    +0.000 C 
BRANCH  12  14
ATOM     13  O   UNL     1      22.429  16.607  17.775  0.00  0.00    +0.000 OA
ATOM     14  C   UNL     1      21.516  15.903  18.185  0.00  0.00    +0.000 C 
BRANCH  14  15
ATOM     15  O   UNL     1      20.385  16.267  18.858  0.00  0.00    +0.000 OA
ATOM     16  C   UNL     1      20.381  16.138  20.258  0.00  0.00    +0.000 C 
ENDBRANCH  14  15
ENDBRANCH  12  14
ENDBRANCH   1  11
TORSDOF 5
ENDMDL
MODEL 7
REMARK VINA RESULT:      -5.0     35.472     37.154
REMARK  Name = 5357283_Methylferulate.pdbqt.pdb
REMARK  5 active torsions:
REMARK  status: ('A' for Active; 'I' for Inactive)
REMARK    1  A    between atoms: C_1  and  C_11
REMARK    2  A    between atoms: C_2  and  O_7
REMARK    3  A    between atoms: C_5  and  O_9
REMARK    4  A    between atoms: C_12  and  C_14
REMARK    5  A    between atoms: C_14  and  O_15
REMARK                            x       y       z     vdW  Elec       q    Type
REMARK                         _______ _______ _______ _____ _____    ______ ____
ROOT
ATOM      1  C   UNL     1      41.975 -14.590  -1.097  0.00  0.00    +0.000 A 
ATOM      2  C   UNL     1      43.909 -13.969  -2.421  0.00  0.00    +0.000 A 
ATOM      3  C   UNL     1      42.734 -13.620  -1.750  0.00  0.00    +0.000 A 
ATOM      4  C   UNL     1      42.383 -15.921  -1.108  0.00  0.00    +0.000 A 
ATOM      5  C   UNL     1      44.307 -15.309  -2.424  0.00  0.00    +0.000 A 
ATOM      6  C   UNL     1      43.551 -16.283  -1.773  0.00  0.00    +0.000 A 
ENDROOT
BRANCH   2   7
ATOM      7  O   UNL     1      44.714 -13.077  -3.088  0.00  0.00    +0.000 OA
ATOM      8  C   UNL     1      44.235 -12.651  -4.337  0.00  0.00    +0.000 C 
ENDBRANCH   2   7
BRANCH   5   9
ATOM      9  O   UNL     1      45.455 -15.671  -3.074  0.00  0.00    +0.000 OA
ATOM     10  H   UNL     1      46.124 -14.974  -2.940  0.00  0.00    +0.000 HD
ENDBRANCH   5   9
BRANCH   1  11
ATOM     11  C   UNL     1      40.778 -14.216  -0.418  0.00  0.00    +0.000 C 
ATOM     12  C   UNL     1      39.768 -13.901   0.154  0.00  0.00    +0.000 C 
BRANCH  12  14
ATOM     13  O   UNL     1      37.664 -12.948   0.225  0.00  0.00    +0.000 OA
ATOM     14  C   UNL     1      38.552 -13.525   0.837  0.00  0.00    +0.000 C 
BRANCH  14  15
ATOM     15  O   UNL     1      38.588 -13.899   2.150  0.00  0.00    +0.000 OA
ATOM     16  C   UNL     1      37.717 -13.251   3.043  0.00  0.00    +0.000 C 
ENDBRANCH  14  15
ENDBRANCH  12  14
ENDBRANCH   1  11
TORSDOF 5
ENDMDL
MODEL 8
REMARK VINA RESULT:      -5.0     35.439     37.036
REMARK  Name = 5357283_Methylferulate.pdbqt.pdb
REMARK  5 active torsions:
REMARK  status: ('A' for Active; 'I' for Inactive)
REMARK    1  A    between atoms: C_1  and  C_11
REMARK    2  A    between atoms: C_2  and  O_7
REMARK    3  A    between atoms: C_5  and  O_9
REMARK    4  A    between atoms: C_12  and  C_14
REMARK    5  A    between atoms: C_14  and  O_15
REMARK                            x       y       z     vdW  Elec       q    Type
REMARK                         _______ _______ _______ _____ _____    ______ ____
ROOT
ATOM      1  C   UNL     1      41.661 -14.526  -0.902  0.00  0.00    +0.000 A 
ATOM      2  C   UNL     1      43.162 -16.312  -1.565  0.00  0.00    +0.000 A 
ATOM      3  C   UNL     1      42.006 -15.877  -0.910  0.00  0.00    +0.000 A 
ATOM      4  C   UNL     1      42.469 -13.594  -1.549  0.00  0.00    +0.000 A 
ATOM      5  C   UNL     1      43.963 -15.365  -2.210  0.00  0.00    +0.000 A 
ATOM      6  C   UNL     1      43.622 -14.013  -2.204  0.00  0.00    +0.000 A 
ENDROOT
BRANCH   2   7
ATOM      7  O   UNL     1      43.574 -17.621  -1.622  0.00  0.00    +0.000 OA
ATOM      8  C   UNL     1      42.545 -18.572  -1.708  0.00  0.00    +0.000 C 
ENDBRANCH   2   7
BRANCH   5   9
ATOM      9  O   UNL     1      45.099 -15.771  -2.858  0.00  0.00    +0.000 OA
ATOM     10  H   UNL     1      45.873 -15.501  -2.330  0.00  0.00    +0.000 HD
ENDBRANCH   5   9
BRANCH   1  11
ATOM     11  C   UNL     1      40.478 -14.101  -0.228  0.00  0.00    +0.000 C 
ATOM     12  C   UNL     1      39.482 -13.741   0.340  0.00  0.00    +0.000 C 
BRANCH  12  14
ATOM     13  O   UNL     1      37.313 -12.942   0.378  0.00  0.00    +0.000 OA
ATOM     14  C   UNL     1      38.287 -13.305   1.025  0.00  0.00    +0.000 C 
BRANCH  14  15
ATOM     15  O   UNL     1      38.442 -13.372   2.380  0.00  0.00    +0.000 OA
ATOM     16  C   UNL     1      38.722 -14.626   2.950  0.00  0.00    +0.000 C 
ENDBRANCH  14  15
ENDBRANCH  12  14
ENDBRANCH   1  11
TORSDOF 5
ENDMDL
MODEL 9
REMARK VINA RESULT:      -4.9     24.824     28.238
REMARK  Name = 5357283_Methylferulate.pdbqt.pdb
REMARK  5 active torsions:
REMARK  status: ('A' for Active; 'I' for Inactive)
REMARK    1  A    between atoms: C_1  and  C_11
REMARK    2  A    between atoms: C_2  and  O_7
REMARK    3  A    between atoms: C_5  and  O_9
REMARK    4  A    between atoms: C_12  and  C_14
REMARK    5  A    between atoms: C_14  and  O_15
REMARK                            x       y       z     vdW  Elec       q    Type
REMARK                         _______ _______ _______ _____ _____    ______ ____
ROOT
ATOM      1  C   UNL     1      19.715  -8.546  41.370  0.00  0.00    +0.000 A 
ATOM      2  C   UNL     1      18.994  -7.694  39.217  0.00  0.00    +0.000 A 
ATOM      3  C   UNL     1      18.980  -7.634  40.613  0.00  0.00    +0.000 A 
ATOM      4  C   UNL     1      20.472  -9.529  40.737  0.00  0.00    +0.000 A 
ATOM      5  C   UNL     1      19.759  -8.685  38.596  0.00  0.00    +0.000 A 
ATOM      6  C   UNL     1      20.495  -9.599  39.347  0.00  0.00    +0.000 A 
ENDROOT
BRANCH   2   7
ATOM      7  O   UNL     1      18.301  -6.835  38.398  0.00  0.00    +0.000 OA
ATOM      8  C   UNL     1      17.660  -5.769  39.049  0.00  0.00    +0.000 C 
ENDBRANCH   2   7
BRANCH   5   9
ATOM      9  O   UNL     1      19.787  -8.759  37.229  0.00  0.00    +0.000 OA
ATOM     10  H   UNL     1      20.688  -8.546  36.923  0.00  0.00    +0.000 HD
ENDBRANCH   5   9
BRANCH   1  11
ATOM     11  C   UNL     1      19.687  -8.472  42.793  0.00  0.00    +0.000 C 
ATOM     12  C   UNL     1      19.664  -8.407  43.994  0.00  0.00    +0.000 C 
BRANCH  12  14
ATOM     13  O   UNL     1      18.619  -8.627  46.043  0.00  0.00    +0.000 OA
ATOM     14  C   UNL     1      19.638  -8.326  45.436  0.00  0.00    +0.000 C 
BRANCH  14  15
ATOM     15  O   UNL     1      20.837  -7.895  45.927  0.00  0.00    +0.000 OA
ATOM     16  C   UNL     1      21.960  -8.718  45.736  0.00  0.00    +0.000 C 
ENDBRANCH  14  15
ENDBRANCH  12  14
ENDBRANCH   1  11
TORSDOF 5
ENDMDL
