MODEL 1
REMARK VINA RESULT:      -8.0      0.000      0.000
REMARK  Name = 5358691_Yuanhuacine.pdbqt.pdb
REMARK  12 active torsions:
REMARK  status: ('A' for Active; 'I' for Inactive)
REMARK    1  A    between atoms: C_9  and  C_48
REMARK    2  A    between atoms: C_13  and  C_23
REMARK    3  A    between atoms: C_14  and  O_26
REMARK    4  A    between atoms: C_15  and  O_28
REMARK    5  A    between atoms: C_16  and  O_39
REMARK    6  A    between atoms: C_17  and  C_30
REMARK    7  A    between atoms: C_31  and  C_32
REMARK    8  A    between atoms: C_33  and  C_34
REMARK    9  A    between atoms: C_35  and  C_36
REMARK   10  A    between atoms: O_39  and  C_41
REMARK   11  A    between atoms: C_41  and  C_42
REMARK   12  A    between atoms: C_48  and  O_49
REMARK                            x       y       z     vdW  Elec       q    Type
REMARK                         _______ _______ _______ _____ _____    ______ ____
ROOT
ATOM      1  O   UNL     1      41.109   4.248   8.700  0.00  0.00    +0.000 OA
ATOM      2  O   UNL     1      41.303   1.246  10.492  0.00  0.00    +0.000 OA
ATOM      3  O   UNL     1      40.361   0.990   8.329  0.00  0.00    +0.000 OA
ATOM      4  O   UNL     1      39.762  -0.484   9.980  0.00  0.00    +0.000 OA
ATOM      5  O   UNL     1      41.217   6.324  13.475  0.00  0.00    +0.000 OA
ATOM      6  C   UNL     1      39.581   2.711   9.597  0.00  0.00    +0.000 C 
ATOM      7  C   UNL     1      40.322   2.262  10.866  0.00  0.00    +0.000 C 
ATOM      8  C   UNL     1      39.785   3.939   8.883  0.00  0.00    +0.000 C 
ATOM      9  C   UNL     1      40.264   5.280   9.225  0.00  0.00    +0.000 C 
ATOM     10  C   UNL     1      39.187   1.481   8.900  0.00  0.00    +0.000 C 
ATOM     11  C   UNL     1      41.075   3.387  11.508  0.00  0.00    +0.000 C 
ATOM     12  C   UNL     1      39.291   1.620  11.842  0.00  0.00    +0.000 C 
ATOM     13  C   UNL     1      38.588   0.352   9.773  0.00  0.00    +0.000 C 
ATOM     14  C   UNL     1      40.410   4.714  11.796  0.00  0.00    +0.000 C 
ATOM     15  C   UNL     1      40.364   5.686  10.653  0.00  0.00    +0.000 C 
ATOM     16  C   UNL     1      38.261   0.842  11.173  0.00  0.00    +0.000 C 
ATOM     17  C   UNL     1      40.843   0.306   9.491  0.00  0.00    +0.000 C 
ATOM     18  C   UNL     1      42.238   3.282  12.314  0.00  0.00    +0.000 C 
ATOM     19  C   UNL     1      39.413   1.548  13.365  0.00  0.00    +0.000 C 
ATOM     20  C   UNL     1      41.369   5.242  12.913  0.00  0.00    +0.000 C 
ATOM     21  C   UNL     1      42.464   4.244  13.144  0.00  0.00    +0.000 C 
ATOM     22  C   UNL     1      43.803   4.527  13.744  0.00  0.00    +0.000 C 
ENDROOT
BRANCH  13  23
ATOM     23  C   UNL     1      37.460  -0.370   8.999  0.00  0.00    +0.000 C 
ATOM     24  C   UNL     1      36.456   0.337   8.090  0.00  0.00    +0.000 C 
ATOM     25  C   UNL     1      37.068  -1.634   9.260  0.00  0.00    +0.000 C 
ENDBRANCH  13  23
BRANCH  14  26
ATOM     26  O   UNL     1      39.090   4.532  12.265  0.00  0.00    +0.000 OA
ATOM     27  H   UNL     1      38.497   5.015  11.656  0.00  0.00    +0.000 HD
ENDBRANCH  14  26
BRANCH  15  28
ATOM     28  O   UNL     1      40.226   7.037  10.980  0.00  0.00    +0.000 OA
ATOM     29  H   UNL     1      40.770   7.651  10.443  0.00  0.00    +0.000 HD
ENDBRANCH  15  28
BRANCH  17  30
ATOM     30  C   UNL     1      41.953  -0.568   9.122  0.00  0.00    +0.000 C 
ATOM     31  C   UNL     1      42.864  -1.289   8.820  0.00  0.00    +0.000 C 
BRANCH  31  32
ATOM     32  C   UNL     1      44.025  -2.208   8.433  0.00  0.00    +0.000 C 
ATOM     33  C   UNL     1      44.936  -2.929   8.128  0.00  0.00    +0.000 C 
BRANCH  33  34
ATOM     34  C   UNL     1      46.096  -3.850   7.738  0.00  0.00    +0.000 C 
ATOM     35  C   UNL     1      47.256  -4.769   7.348  0.00  0.00    +0.000 C 
BRANCH  35  36
ATOM     36  C   UNL     1      48.418  -5.690   6.959  0.00  0.00    +0.000 C 
ATOM     37  C   UNL     1      49.578  -6.610   6.570  0.00  0.00    +0.000 C 
ATOM     38  C   UNL     1      50.740  -7.530   6.179  0.00  0.00    +0.000 C 
ENDBRANCH  35  36
ENDBRANCH  33  34
ENDBRANCH  31  32
ENDBRANCH  17  30
BRANCH  16  39
ATOM     39  O   UNL     1      37.078   0.566  11.878  0.00  0.00    +0.000 OA
BRANCH  39  41
ATOM     40  O   UNL     1      36.147   2.602  11.356  0.00  0.00    +0.000 OA
ATOM     41  C   UNL     1      36.299   1.662  12.119  0.00  0.00    +0.000 C 
BRANCH  41  42
ATOM     42  C   UNL     1      35.694   1.576  13.460  0.00  0.00    +0.000 A 
ATOM     43  C   UNL     1      34.924   2.615  13.981  0.00  0.00    +0.000 A 
ATOM     44  C   UNL     1      35.908   0.419  14.208  0.00  0.00    +0.000 A 
ATOM     45  C   UNL     1      34.367   2.496  15.253  0.00  0.00    +0.000 A 
ATOM     46  C   UNL     1      35.350   0.302  15.478  0.00  0.00    +0.000 A 
ATOM     47  C   UNL     1      34.581   1.340  15.999  0.00  0.00    +0.000 A 
ENDBRANCH  41  42
ENDBRANCH  39  41
ENDBRANCH  16  39
BRANCH   9  48
ATOM     48  C   UNL     1      40.105   6.335   8.234  0.00  0.00    +0.000 C 
BRANCH  48  49
ATOM     49  O   UNL     1      39.965   7.296   7.325  0.00  0.00    +0.000 OA
ATOM     50  H   UNL     1      39.227   7.092   6.725  0.00  0.00    +0.000 HD
ENDBRANCH  48  49
ENDBRANCH   9  48
TORSDOF 12
ENDMDL
MODEL 2
REMARK VINA RESULT:      -7.1     13.221     19.374
REMARK  Name = 5358691_Yuanhuacine.pdbqt.pdb
REMARK  12 active torsions:
REMARK  status: ('A' for Active; 'I' for Inactive)
REMARK    1  A    between atoms: C_9  and  C_48
REMARK    2  A    between atoms: C_13  and  C_23
REMARK    3  A    between atoms: C_14  and  O_26
REMARK    4  A    between atoms: C_15  and  O_28
REMARK    5  A    between atoms: C_16  and  O_39
REMARK    6  A    between atoms: C_17  and  C_30
REMARK    7  A    between atoms: C_31  and  C_32
REMARK    8  A    between atoms: C_33  and  C_34
REMARK    9  A    between atoms: C_35  and  C_36
REMARK   10  A    between atoms: O_39  and  C_41
REMARK   11  A    between atoms: C_41  and  C_42
REMARK   12  A    between atoms: C_48  and  O_49
REMARK                            x       y       z     vdW  Elec       q    Type
REMARK                         _______ _______ _______ _____ _____    ______ ____
ROOT
ATOM      1  O   UNL     1      22.831   0.388   2.902  0.00  0.00    +0.000 OA
ATOM      2  O   UNL     1      24.509   2.482   5.152  0.00  0.00    +0.000 OA
ATOM      3  O   UNL     1      24.865   3.067   2.880  0.00  0.00    +0.000 OA
ATOM      4  O   UNL     1      26.479   3.586   4.424  0.00  0.00    +0.000 OA
ATOM      5  O   UNL     1      23.029  -2.944   6.900  0.00  0.00    +0.000 OA
ATOM      6  C   UNL     1      25.068   0.867   3.424  0.00  0.00    +0.000 C 
ATOM      7  C   UNL     1      24.973   1.114   4.937  0.00  0.00    +0.000 C 
ATOM      8  C   UNL     1      24.146   0.108   2.627  0.00  0.00    +0.000 C 
ATOM      9  C   UNL     1      23.214  -0.994   2.872  0.00  0.00    +0.000 C 
ATOM     10  C   UNL     1      25.785   2.020   2.867  0.00  0.00    +0.000 C 
ATOM     11  C   UNL     1      23.985   0.203   5.598  0.00  0.00    +0.000 C 
ATOM     12  C   UNL     1      26.398   0.972   5.553  0.00  0.00    +0.000 C 
ATOM     13  C   UNL     1      27.039   2.494   3.641  0.00  0.00    +0.000 C 
ATOM     14  C   UNL     1      24.017  -1.291   5.365  0.00  0.00    +0.000 C 
ATOM     15  C   UNL     1      23.313  -1.778   4.133  0.00  0.00    +0.000 C 
ATOM     16  C   UNL     1      27.456   1.488   4.700  0.00  0.00    +0.000 C 
ATOM     17  C   UNL     1      25.070   3.459   4.242  0.00  0.00    +0.000 C 
ATOM     18  C   UNL     1      23.254   0.458   6.786  0.00  0.00    +0.000 C 
ATOM     19  C   UNL     1      26.723   0.580   6.995  0.00  0.00    +0.000 C 
ATOM     20  C   UNL     1      23.250  -1.763   6.645  0.00  0.00    +0.000 C 
ATOM     21  C   UNL     1      22.836  -0.568   7.450  0.00  0.00    +0.000 C 
ATOM     22  C   UNL     1      21.725  -0.516   8.446  0.00  0.00    +0.000 C 
ENDROOT
BRANCH  13  23
ATOM     23  C   UNL     1      28.127   2.960   2.646  0.00  0.00    +0.000 C 
ATOM     24  C   UNL     1      28.565   2.161   1.419  0.00  0.00    +0.000 C 
ATOM     25  C   UNL     1      28.993   3.962   2.903  0.00  0.00    +0.000 C 
ENDBRANCH  13  23
BRANCH  14  26
ATOM     26  O   UNL     1      25.343  -1.774   5.328  0.00  0.00    +0.000 OA
ATOM     27  H   UNL     1      25.694  -1.590   4.434  0.00  0.00    +0.000 HD
ENDBRANCH  14  26
BRANCH  15  28
ATOM     28  O   UNL     1      22.896  -3.112   4.130  0.00  0.00    +0.000 OA
ATOM     29  H   UNL     1      23.032  -3.590   4.976  0.00  0.00    +0.000 HD
ENDBRANCH  15  28
BRANCH  17  30
ATOM     30  C   UNL     1      24.432   4.749   4.485  0.00  0.00    +0.000 C 
ATOM     31  C   UNL     1      23.905   5.809   4.684  0.00  0.00    +0.000 C 
BRANCH  31  32
ATOM     32  C   UNL     1      23.233   7.160   4.940  0.00  0.00    +0.000 C 
ATOM     33  C   UNL     1      22.705   8.220   5.140  0.00  0.00    +0.000 C 
BRANCH  33  34
ATOM     34  C   UNL     1      22.033   9.572   5.399  0.00  0.00    +0.000 C 
ATOM     35  C   UNL     1      21.360  10.922   5.657  0.00  0.00    +0.000 C 
BRANCH  35  36
ATOM     36  C   UNL     1      20.686  12.274   5.915  0.00  0.00    +0.000 C 
ATOM     37  C   UNL     1      20.013  13.625   6.173  0.00  0.00    +0.000 C 
ATOM     38  C   UNL     1      19.340  14.977   6.432  0.00  0.00    +0.000 C 
ENDBRANCH  35  36
ENDBRANCH  33  34
ENDBRANCH  31  32
ENDBRANCH  17  30
BRANCH  16  39
ATOM     39  O   UNL     1      28.771   1.060   4.946  0.00  0.00    +0.000 OA
BRANCH  39  41
ATOM     40  O   UNL     1      28.280  -1.088   4.295  0.00  0.00    +0.000 OA
ATOM     41  C   UNL     1      29.068  -0.168   4.427  0.00  0.00    +0.000 C 
BRANCH  41  42
ATOM     42  C   UNL     1      30.500  -0.247   4.085  0.00  0.00    +0.000 A 
ATOM     43  C   UNL     1      31.102  -1.456   3.739  0.00  0.00    +0.000 A 
ATOM     44  C   UNL     1      31.251   0.928   4.112  0.00  0.00    +0.000 A 
ATOM     45  C   UNL     1      32.458  -1.489   3.420  0.00  0.00    +0.000 A 
ATOM     46  C   UNL     1      32.605   0.892   3.792  0.00  0.00    +0.000 A 
ATOM     47  C   UNL     1      33.208  -0.316   3.447  0.00  0.00    +0.000 A 
ENDBRANCH  41  42
ENDBRANCH  39  41
ENDBRANCH  16  39
BRANCH   9  48
ATOM     48  C   UNL     1      22.607  -1.645   1.719  0.00  0.00    +0.000 C 
BRANCH  48  49
ATOM     49  O   UNL     1      22.048  -2.243   0.670  0.00  0.00    +0.000 OA
ATOM     50  H   UNL     1      22.025  -1.639  -0.093  0.00  0.00    +0.000 HD
ENDBRANCH  48  49
ENDBRANCH   9  48
TORSDOF 12
ENDMDL
MODEL 3
REMARK VINA RESULT:      -7.0     12.490     18.525
REMARK  Name = 5358691_Yuanhuacine.pdbqt.pdb
REMARK  12 active torsions:
REMARK  status: ('A' for Active; 'I' for Inactive)
REMARK    1  A    between atoms: C_9  and  C_48
REMARK    2  A    between atoms: C_13  and  C_23
REMARK    3  A    between atoms: C_14  and  O_26
REMARK    4  A    between atoms: C_15  and  O_28
REMARK    5  A    between atoms: C_16  and  O_39
REMARK    6  A    between atoms: C_17  and  C_30
REMARK    7  A    between atoms: C_31  and  C_32
REMARK    8  A    between atoms: C_33  and  C_34
REMARK    9  A    between atoms: C_35  and  C_36
REMARK   10  A    between atoms: O_39  and  C_41
REMARK   11  A    between atoms: C_41  and  C_42
REMARK   12  A    between atoms: C_48  and  O_49
REMARK                            x       y       z     vdW  Elec       q    Type
REMARK                         _______ _______ _______ _____ _____    ______ ____
ROOT
ATOM      1  O   UNL     1      23.973   1.189   1.941  0.00  0.00    +0.000 OA
ATOM      2  O   UNL     1      25.604   2.514   4.742  0.00  0.00    +0.000 OA
ATOM      3  O   UNL     1      26.563   3.203   2.683  0.00  0.00    +0.000 OA
ATOM      4  O   UNL     1      27.893   3.108   4.548  0.00  0.00    +0.000 OA
ATOM      5  O   UNL     1      22.498  -2.452   5.360  0.00  0.00    +0.000 OA
ATOM      6  C   UNL     1      26.098   0.988   2.915  0.00  0.00    +0.000 C 
ATOM      7  C   UNL     1      25.752   1.099   4.407  0.00  0.00    +0.000 C 
ATOM      8  C   UNL     1      25.206   0.591   1.862  0.00  0.00    +0.000 C 
ATOM      9  C   UNL     1      24.000  -0.235   1.770  0.00  0.00    +0.000 C 
ATOM     10  C   UNL     1      27.178   1.952   2.675  0.00  0.00    +0.000 C 
ATOM     11  C   UNL     1      24.453   0.430   4.738  0.00  0.00    +0.000 C 
ATOM     12  C   UNL     1      26.935   0.516   5.237  0.00  0.00    +0.000 C 
ATOM     13  C   UNL     1      28.319   1.988   3.720  0.00  0.00    +0.000 C 
ATOM     14  C   UNL     1      24.163  -0.986   4.292  0.00  0.00    +0.000 C 
ATOM     15  C   UNL     1      23.636  -1.138   2.895  0.00  0.00    +0.000 C 
ATOM     16  C   UNL     1      28.242   0.807   4.672  0.00  0.00    +0.000 C 
ATOM     17  C   UNL     1      26.567   3.387   4.103  0.00  0.00    +0.000 C 
ATOM     18  C   UNL     1      23.575   0.755   5.804  0.00  0.00    +0.000 C 
ATOM     19  C   UNL     1      26.843  -0.092   6.637  0.00  0.00    +0.000 C 
ATOM     20  C   UNL     1      23.052  -1.356   5.329  0.00  0.00    +0.000 C 
ATOM     21  C   UNL     1      22.787  -0.179   6.220  0.00  0.00    +0.000 C 
ATOM     22  C   UNL     1      21.539   0.073   7.001  0.00  0.00    +0.000 C 
ENDROOT
BRANCH  13  23
ATOM     23  C   UNL     1      29.672   2.237   3.015  0.00  0.00    +0.000 C 
ATOM     24  C   UNL     1      30.609   3.398   3.343  0.00  0.00    +0.000 C 
ATOM     25  C   UNL     1      30.032   1.638   1.861  0.00  0.00    +0.000 C 
ENDBRANCH  13  23
BRANCH  14  26
ATOM     26  O   UNL     1      25.307  -1.804   4.416  0.00  0.00    +0.000 OA
ATOM     27  H   UNL     1      25.928  -1.345   5.015  0.00  0.00    +0.000 HD
ENDBRANCH  14  26
BRANCH  15  28
ATOM     28  O   UNL     1      22.913  -2.301   2.617  0.00  0.00    +0.000 OA
ATOM     29  H   UNL     1      22.713  -2.861   3.398  0.00  0.00    +0.000 HD
ENDBRANCH  15  28
BRANCH  17  30
ATOM     30  C   UNL     1      26.231   4.771   4.422  0.00  0.00    +0.000 C 
ATOM     31  C   UNL     1      25.954   5.909   4.686  0.00  0.00    +0.000 C 
BRANCH  31  32
ATOM     32  C   UNL     1      25.601   7.359   5.024  0.00  0.00    +0.000 C 
ATOM     33  C   UNL     1      25.324   8.497   5.288  0.00  0.00    +0.000 C 
BRANCH  33  34
ATOM     34  C   UNL     1      24.971   9.950   5.622  0.00  0.00    +0.000 C 
ATOM     35  C   UNL     1      24.617  11.401   5.956  0.00  0.00    +0.000 C 
BRANCH  35  36
ATOM     36  C   UNL     1      24.261  12.854   6.290  0.00  0.00    +0.000 C 
ATOM     37  C   UNL     1      23.906  14.305   6.625  0.00  0.00    +0.000 C 
ATOM     38  C   UNL     1      23.552  15.758   6.961  0.00  0.00    +0.000 C 
ENDBRANCH  35  36
ENDBRANCH  33  34
ENDBRANCH  31  32
ENDBRANCH  17  30
BRANCH  16  39
ATOM     39  O   UNL     1      29.330   0.015   5.078  0.00  0.00    +0.000 OA
BRANCH  39  41
ATOM     40  O   UNL     1      28.499  -2.024   4.419  0.00  0.00    +0.000 OA
ATOM     41  C   UNL     1      29.399  -1.202   4.462  0.00  0.00    +0.000 C 
BRANCH  41  42
ATOM     42  C   UNL     1      30.740  -1.410   3.888  0.00  0.00    +0.000 A 
ATOM     43  C   UNL     1      30.977  -2.386   2.920  0.00  0.00    +0.000 A 
ATOM     44  C   UNL     1      31.783  -0.599   4.335  0.00  0.00    +0.000 A 
ATOM     45  C   UNL     1      32.259  -2.550   2.400  0.00  0.00    +0.000 A 
ATOM     46  C   UNL     1      33.063  -0.765   3.813  0.00  0.00    +0.000 A 
ATOM     47  C   UNL     1      33.300  -1.740   2.847  0.00  0.00    +0.000 A 
ENDBRANCH  41  42
ENDBRANCH  39  41
ENDBRANCH  16  39
BRANCH   9  48
ATOM     48  C   UNL     1      23.508  -0.578   0.443  0.00  0.00    +0.000 C 
BRANCH  48  49
ATOM     49  O   UNL     1      23.052  -0.889  -0.768  0.00  0.00    +0.000 OA
ATOM     50  H   UNL     1      23.777  -0.876  -1.417  0.00  0.00    +0.000 HD
ENDBRANCH  48  49
ENDBRANCH   9  48
TORSDOF 12
ENDMDL
MODEL 4
REMARK VINA RESULT:      -6.9      3.404      7.846
REMARK  Name = 5358691_Yuanhuacine.pdbqt.pdb
REMARK  12 active torsions:
REMARK  status: ('A' for Active; 'I' for Inactive)
REMARK    1  A    between atoms: C_9  and  C_48
REMARK    2  A    between atoms: C_13  and  C_23
REMARK    3  A    between atoms: C_14  and  O_26
REMARK    4  A    between atoms: C_15  and  O_28
REMARK    5  A    between atoms: C_16  and  O_39
REMARK    6  A    between atoms: C_17  and  C_30
REMARK    7  A    between atoms: C_31  and  C_32
REMARK    8  A    between atoms: C_33  and  C_34
REMARK    9  A    between atoms: C_35  and  C_36
REMARK   10  A    between atoms: O_39  and  C_41
REMARK   11  A    between atoms: C_41  and  C_42
REMARK   12  A    between atoms: C_48  and  O_49
REMARK                            x       y       z     vdW  Elec       q    Type
REMARK                         _______ _______ _______ _____ _____    ______ ____
ROOT
ATOM      1  O   UNL     1      44.642   1.692  11.301  0.00  0.00    +0.000 OA
ATOM      2  O   UNL     1      41.664   1.294   9.502  0.00  0.00    +0.000 OA
ATOM      3  O   UNL     1      41.723   3.286  10.792  0.00  0.00    +0.000 OA
ATOM      4  O   UNL     1      39.693   2.328  10.325  0.00  0.00    +0.000 OA
ATOM      5  O   UNL     1      44.855  -3.486  10.787  0.00  0.00    +0.000 OA
ATOM      6  C   UNL     1      42.378   1.367  11.825  0.00  0.00    +0.000 C 
ATOM      7  C   UNL     1      41.934   0.458  10.669  0.00  0.00    +0.000 C 
ATOM      8  C   UNL     1      43.720   1.537  12.305  0.00  0.00    +0.000 C 
ATOM      9  C   UNL     1      44.937   0.723  12.315  0.00  0.00    +0.000 C 
ATOM     10  C   UNL     1      41.407   2.466  11.874  0.00  0.00    +0.000 C 
ATOM     11  C   UNL     1      43.000  -0.518  10.275  0.00  0.00    +0.000 C 
ATOM     12  C   UNL     1      40.613  -0.259  11.081  0.00  0.00    +0.000 C 
ATOM     13  C   UNL     1      39.914   2.078  11.741  0.00  0.00    +0.000 C 
ATOM     14  C   UNL     1      43.700  -1.375  11.306  0.00  0.00    +0.000 C 
ATOM     15  C   UNL     1      44.855  -0.733  12.017  0.00  0.00    +0.000 C 
ATOM     16  C   UNL     1      39.715   0.577  11.861  0.00  0.00    +0.000 C 
ATOM     17  C   UNL     1      41.001   2.547   9.800  0.00  0.00    +0.000 C 
ATOM     18  C   UNL     1      43.184  -1.109   8.999  0.00  0.00    +0.000 C 
ATOM     19  C   UNL     1      40.114  -1.605  10.554  0.00  0.00    +0.000 C 
ATOM     20  C   UNL     1      44.213  -2.523  10.376  0.00  0.00    +0.000 C 
ATOM     21  C   UNL     1      43.814  -2.235   8.959  0.00  0.00    +0.000 C 
ATOM     22  C   UNL     1      44.465  -2.780   7.731  0.00  0.00    +0.000 C 
ENDROOT
BRANCH  13  23
ATOM     23  C   UNL     1      39.052   2.978  12.657  0.00  0.00    +0.000 C 
ATOM     24  C   UNL     1      38.113   4.069  12.148  0.00  0.00    +0.000 C 
ATOM     25  C   UNL     1      39.248   3.091  13.987  0.00  0.00    +0.000 C 
ENDBRANCH  13  23
BRANCH  14  26
ATOM     26  O   UNL     1      42.793  -1.841  12.283  0.00  0.00    +0.000 OA
ATOM     27  H   UNL     1      43.315  -2.078  13.074  0.00  0.00    +0.000 HD
ENDBRANCH  14  26
BRANCH  15  28
ATOM     28  O   UNL     1      45.803  -1.590  12.582  0.00  0.00    +0.000 OA
ATOM     29  H   UNL     1      46.574  -1.790  12.008  0.00  0.00    +0.000 HD
ENDBRANCH  15  28
BRANCH  17  30
ATOM     30  C   UNL     1      40.906   3.332   8.573  0.00  0.00    +0.000 C 
ATOM     31  C   UNL     1      40.825   3.977   7.564  0.00  0.00    +0.000 C 
BRANCH  31  32
ATOM     32  C   UNL     1      40.722   4.800   6.277  0.00  0.00    +0.000 C 
ATOM     33  C   UNL     1      40.640   5.446   5.269  0.00  0.00    +0.000 C 
BRANCH  33  34
ATOM     34  C   UNL     1      40.535   6.272   3.983  0.00  0.00    +0.000 C 
ATOM     35  C   UNL     1      40.430   7.097   2.698  0.00  0.00    +0.000 C 
BRANCH  35  36
ATOM     36  C   UNL     1      40.324   7.921   1.410  0.00  0.00    +0.000 C 
ATOM     37  C   UNL     1      40.219   8.745   0.123  0.00  0.00    +0.000 C 
ATOM     38  C   UNL     1      40.113   9.567  -1.165  0.00  0.00    +0.000 C 
ENDBRANCH  35  36
ENDBRANCH  33  34
ENDBRANCH  31  32
ENDBRANCH  17  30
BRANCH  16  39
ATOM     39  O   UNL     1      38.716  -0.055  12.620  0.00  0.00    +0.000 OA
BRANCH  39  41
ATOM     40  O   UNL     1      37.072   0.204  11.035  0.00  0.00    +0.000 OA
ATOM     41  C   UNL     1      37.443   0.200  12.197  0.00  0.00    +0.000 C 
BRANCH  41  42
ATOM     42  C   UNL     1      36.575   0.517  13.346  0.00  0.00    +0.000 A 
ATOM     43  C   UNL     1      35.599   1.511  13.271  0.00  0.00    +0.000 A 
ATOM     44  C   UNL     1      36.750  -0.206  14.525  0.00  0.00    +0.000 A 
ATOM     45  C   UNL     1      34.797   1.780  14.377  0.00  0.00    +0.000 A 
ATOM     46  C   UNL     1      35.947   0.065  15.629  0.00  0.00    +0.000 A 
ATOM     47  C   UNL     1      34.972   1.057  15.555  0.00  0.00    +0.000 A 
ENDBRANCH  41  42
ENDBRANCH  39  41
ENDBRANCH  16  39
BRANCH   9  48
ATOM     48  C   UNL     1      46.060   1.184  13.120  0.00  0.00    +0.000 C 
BRANCH  48  49
ATOM     49  O   UNL     1      47.090   1.605  13.850  0.00  0.00    +0.000 OA
ATOM     50  H   UNL     1      47.707   2.120  13.302  0.00  0.00    +0.000 HD
ENDBRANCH  48  49
ENDBRANCH   9  48
TORSDOF 12
ENDMDL
MODEL 5
REMARK VINA RESULT:      -6.8     20.391     25.946
REMARK  Name = 5358691_Yuanhuacine.pdbqt.pdb
REMARK  12 active torsions:
REMARK  status: ('A' for Active; 'I' for Inactive)
REMARK    1  A    between atoms: C_9  and  C_48
REMARK    2  A    between atoms: C_13  and  C_23
REMARK    3  A    between atoms: C_14  and  O_26
REMARK    4  A    between atoms: C_15  and  O_28
REMARK    5  A    between atoms: C_16  and  O_39
REMARK    6  A    between atoms: C_17  and  C_30
REMARK    7  A    between atoms: C_31  and  C_32
REMARK    8  A    between atoms: C_33  and  C_34
REMARK    9  A    between atoms: C_35  and  C_36
REMARK   10  A    between atoms: O_39  and  C_41
REMARK   11  A    between atoms: C_41  and  C_42
REMARK   12  A    between atoms: C_48  and  O_49
REMARK                            x       y       z     vdW  Elec       q    Type
REMARK                         _______ _______ _______ _____ _____    ______ ____
ROOT
ATOM      1  O   UNL     1      14.176   3.931  15.896  0.00  0.00    +0.000 OA
ATOM      2  O   UNL     1      16.366   1.256  16.452  0.00  0.00    +0.000 OA
ATOM      3  O   UNL     1      14.458   0.658  15.173  0.00  0.00    +0.000 OA
ATOM      4  O   UNL     1      15.491  -0.950  16.440  0.00  0.00    +0.000 OA
ATOM      5  O   UNL     1      16.460   5.814  20.181  0.00  0.00    +0.000 OA
ATOM      6  C   UNL     1      14.097   1.891  17.051  0.00  0.00    +0.000 C 
ATOM      7  C   UNL     1      15.546   1.773  17.545  0.00  0.00    +0.000 C 
ATOM      8  C   UNL     1      13.419   3.102  16.685  0.00  0.00    +0.000 C 
ATOM      9  C   UNL     1      13.542   4.517  17.041  0.00  0.00    +0.000 C 
ATOM     10  C   UNL     1      13.786   0.616  16.394  0.00  0.00    +0.000 C 
ATOM     11  C   UNL     1      16.120   3.101  17.936  0.00  0.00    +0.000 C 
ATOM     12  C   UNL     1      15.589   0.752  18.722  0.00  0.00    +0.000 C 
ATOM     13  C   UNL     1      14.239  -0.670  17.129  0.00  0.00    +0.000 C 
ATOM     14  C   UNL     1      15.379   4.033  18.868  0.00  0.00    +0.000 C 
ATOM     15  C   UNL     1      14.344   4.912  18.230  0.00  0.00    +0.000 C 
ATOM     16  C   UNL     1      14.685  -0.373  18.550  0.00  0.00    +0.000 C 
ATOM     17  C   UNL     1      15.731   0.221  15.662  0.00  0.00    +0.000 C 
ATOM     18  C   UNL     1      17.488   3.476  17.919  0.00  0.00    +0.000 C 
ATOM     19  C   UNL     1      16.618   0.720  19.853  0.00  0.00    +0.000 C 
ATOM     20  C   UNL     1      16.582   4.897  19.373  0.00  0.00    +0.000 C 
ATOM     21  C   UNL     1      17.843   4.437  18.705  0.00  0.00    +0.000 C 
ATOM     22  C   UNL     1      19.090   5.239  18.526  0.00  0.00    +0.000 C 
ENDROOT
BRANCH  13  23
ATOM     23  C   UNL     1      13.182  -1.783  16.940  0.00  0.00    +0.000 C 
ATOM     24  C   UNL     1      11.675  -1.564  17.063  0.00  0.00    +0.000 C 
ATOM     25  C   UNL     1      13.480  -3.099  16.932  0.00  0.00    +0.000 C 
ENDBRANCH  13  23
BRANCH  14  26
ATOM     26  O   UNL     1      14.756   3.319  19.915  0.00  0.00    +0.000 OA
ATOM     27  H   UNL     1      13.857   3.687  20.023  0.00  0.00    +0.000 HD
ENDBRANCH  14  26
BRANCH  15  28
ATOM     28  O   UNL     1      14.003   6.083  18.913  0.00  0.00    +0.000 OA
ATOM     29  H   UNL     1      13.045   6.194  19.093  0.00  0.00    +0.000 HD
ENDBRANCH  15  28
BRANCH  17  30
ATOM     30  C   UNL     1      16.601  -0.114  14.539  0.00  0.00    +0.000 C 
ATOM     31  C   UNL     1      17.317  -0.391  13.617  0.00  0.00    +0.000 C 
BRANCH  31  32
ATOM     32  C   UNL     1      18.230  -0.747  12.440  0.00  0.00    +0.000 C 
ATOM     33  C   UNL     1      18.946  -1.026  11.518  0.00  0.00    +0.000 C 
BRANCH  33  34
ATOM     34  C   UNL     1      19.862  -1.383  10.343  0.00  0.00    +0.000 C 
ATOM     35  C   UNL     1      20.777  -1.740   9.170  0.00  0.00    +0.000 C 
BRANCH  35  36
ATOM     36  C   UNL     1      21.693  -2.100   7.995  0.00  0.00    +0.000 C 
ATOM     37  C   UNL     1      22.609  -2.459   6.821  0.00  0.00    +0.000 C 
ATOM     38  C   UNL     1      23.526  -2.820   5.648  0.00  0.00    +0.000 C 
ENDBRANCH  35  36
ENDBRANCH  33  34
ENDBRANCH  31  32
ENDBRANCH  17  30
BRANCH  16  39
ATOM     39  O   UNL     1      14.334  -1.120  19.687  0.00  0.00    +0.000 OA
BRANCH  39  41
ATOM     40  O   UNL     1      12.614   0.354  20.072  0.00  0.00    +0.000 OA
ATOM     41  C   UNL     1      13.205  -0.683  20.319  0.00  0.00    +0.000 C 
BRANCH  41  42
ATOM     42  C   UNL     1      12.819  -1.625  21.385  0.00  0.00    +0.000 A 
ATOM     43  C   UNL     1      12.871  -3.005  21.194  0.00  0.00    +0.000 A 
ATOM     44  C   UNL     1      12.395  -1.102  22.606  0.00  0.00    +0.000 A 
ATOM     45  C   UNL     1      12.499  -3.863  22.226  0.00  0.00    +0.000 A 
ATOM     46  C   UNL     1      12.024  -1.962  23.636  0.00  0.00    +0.000 A 
ATOM     47  C   UNL     1      12.076  -3.341  23.446  0.00  0.00    +0.000 A 
ENDBRANCH  41  42
ENDBRANCH  39  41
ENDBRANCH  16  39
BRANCH   9  48
ATOM     48  C   UNL     1      12.489   5.425  16.606  0.00  0.00    +0.000 C 
BRANCH  48  49
ATOM     49  O   UNL     1      11.528   6.252  16.203  0.00  0.00    +0.000 OA
ATOM     50  H   UNL     1      11.520   6.317  15.232  0.00  0.00    +0.000 HD
ENDBRANCH  48  49
ENDBRANCH   9  48
TORSDOF 12
ENDMDL
MODEL 6
REMARK VINA RESULT:      -6.8      3.506      8.847
REMARK  Name = 5358691_Yuanhuacine.pdbqt.pdb
REMARK  12 active torsions:
REMARK  status: ('A' for Active; 'I' for Inactive)
REMARK    1  A    between atoms: C_9  and  C_48
REMARK    2  A    between atoms: C_13  and  C_23
REMARK    3  A    between atoms: C_14  and  O_26
REMARK    4  A    between atoms: C_15  and  O_28
REMARK    5  A    between atoms: C_16  and  O_39
REMARK    6  A    between atoms: C_17  and  C_30
REMARK    7  A    between atoms: C_31  and  C_32
REMARK    8  A    between atoms: C_33  and  C_34
REMARK    9  A    between atoms: C_35  and  C_36
REMARK   10  A    between atoms: O_39  and  C_41
REMARK   11  A    between atoms: C_41  and  C_42
REMARK   12  A    between atoms: C_48  and  O_49
REMARK                            x       y       z     vdW  Elec       q    Type
REMARK                         _______ _______ _______ _____ _____    ______ ____
ROOT
ATOM      1  O   UNL     1      43.118   1.599  11.248  0.00  0.00    +0.000 OA
ATOM      2  O   UNL     1      40.561   3.946  10.778  0.00  0.00    +0.000 OA
ATOM      3  O   UNL     1      41.769   4.264  12.796  0.00  0.00    +0.000 OA
ATOM      4  O   UNL     1      39.588   4.963  12.688  0.00  0.00    +0.000 OA
ATOM      5  O   UNL     1      40.182  -1.244   8.020  0.00  0.00    +0.000 OA
ATOM      6  C   UNL     1      41.100   2.142  12.316  0.00  0.00    +0.000 C 
ATOM      7  C   UNL     1      40.235   2.563  11.119  0.00  0.00    +0.000 C 
ATOM      8  C   UNL     1      42.257   1.293  12.272  0.00  0.00    +0.000 C 
ATOM      9  C   UNL     1      42.737   0.225  11.393  0.00  0.00    +0.000 C 
ATOM     10  C   UNL     1      40.988   3.225  13.301  0.00  0.00    +0.000 C 
ATOM     11  C   UNL     1      40.509   1.732   9.903  0.00  0.00    +0.000 C 
ATOM     12  C   UNL     1      38.737   2.498  11.542  0.00  0.00    +0.000 C 
ATOM     13  C   UNL     1      39.568   3.789  13.549  0.00  0.00    +0.000 C 
ATOM     14  C   UNL     1      40.518   0.222   9.970  0.00  0.00    +0.000 C 
ATOM     15  C   UNL     1      41.803  -0.407  10.422  0.00  0.00    +0.000 C 
ATOM     16  C   UNL     1      38.500   2.915  12.915  0.00  0.00    +0.000 C 
ATOM     17  C   UNL     1      40.779   4.812  11.918  0.00  0.00    +0.000 C 
ATOM     18  C   UNL     1      40.340   2.122   8.549  0.00  0.00    +0.000 C 
ATOM     19  C   UNL     1      37.544   2.277  10.611  0.00  0.00    +0.000 C 
ATOM     20  C   UNL     1      40.263  -0.100   8.460  0.00  0.00    +0.000 C 
ATOM     21  C   UNL     1      40.164   1.180   7.685  0.00  0.00    +0.000 C 
ATOM     22  C   UNL     1      40.394   1.344   6.218  0.00  0.00    +0.000 C 
ENDROOT
BRANCH  13  23
ATOM     23  C   UNL     1      39.395   4.139  15.045  0.00  0.00    +0.000 C 
ATOM     24  C   UNL     1      38.044   4.226  15.754  0.00  0.00    +0.000 C 
ATOM     25  C   UNL     1      40.373   4.676  15.803  0.00  0.00    +0.000 C 
ENDBRANCH  13  23
BRANCH  14  26
ATOM     26  O   UNL     1      39.482  -0.258  10.801  0.00  0.00    +0.000 OA
ATOM     27  H   UNL     1      39.192   0.488  11.362  0.00  0.00    +0.000 HD
ENDBRANCH  14  26
BRANCH  15  28
ATOM     28  O   UNL     1      42.024  -1.733  10.041  0.00  0.00    +0.000 OA
ATOM     29  H   UNL     1      41.354  -2.374  10.363  0.00  0.00    +0.000 HD
ENDBRANCH  15  28
BRANCH  17  30
ATOM     30  C   UNL     1      41.215   6.119  11.439  0.00  0.00    +0.000 C 
ATOM     31  C   UNL     1      41.574   7.196  11.047  0.00  0.00    +0.000 C 
BRANCH  31  32
ATOM     32  C   UNL     1      42.033   8.568  10.548  0.00  0.00    +0.000 C 
ATOM     33  C   UNL     1      42.392   9.645  10.158  0.00  0.00    +0.000 C 
BRANCH  33  34
ATOM     34  C   UNL     1      42.847  11.020   9.659  0.00  0.00    +0.000 C 
ATOM     35  C   UNL     1      43.302  12.395   9.162  0.00  0.00    +0.000 C 
BRANCH  35  36
ATOM     36  C   UNL     1      43.759  13.771   8.666  0.00  0.00    +0.000 C 
ATOM     37  C   UNL     1      44.216  15.145   8.169  0.00  0.00    +0.000 C 
ATOM     38  C   UNL     1      44.674  16.520   7.670  0.00  0.00    +0.000 C 
ENDBRANCH  35  36
ENDBRANCH  33  34
ENDBRANCH  31  32
ENDBRANCH  17  30
BRANCH  16  39
ATOM     39  O   UNL     1      37.298   2.521  13.528  0.00  0.00    +0.000 OA
BRANCH  39  41
ATOM     40  O   UNL     1      38.136   0.387  13.678  0.00  0.00    +0.000 OA
ATOM     41  C   UNL     1      37.245   1.198  13.862  0.00  0.00    +0.000 C 
BRANCH  41  42
ATOM     42  C   UNL     1      35.931   0.870  14.443  0.00  0.00    +0.000 A 
ATOM     43  C   UNL     1      34.838   1.726  14.308  0.00  0.00    +0.000 A 
ATOM     44  C   UNL     1      35.798  -0.331  15.139  0.00  0.00    +0.000 A 
ATOM     45  C   UNL     1      33.612   1.379  14.870  0.00  0.00    +0.000 A 
ATOM     46  C   UNL     1      34.571  -0.675  15.699  0.00  0.00    +0.000 A 
ATOM     47  C   UNL     1      33.479   0.180  15.565  0.00  0.00    +0.000 A 
ENDBRANCH  41  42
ENDBRANCH  39  41
ENDBRANCH  16  39
BRANCH   9  48
ATOM     48  C   UNL     1      43.884  -0.558  11.832  0.00  0.00    +0.000 C 
BRANCH  48  49
ATOM     49  O   UNL     1      44.934  -1.272  12.227  0.00  0.00    +0.000 OA
ATOM     50  H   UNL     1      44.904  -1.420  13.188  0.00  0.00    +0.000 HD
ENDBRANCH  48  49
ENDBRANCH   9  48
TORSDOF 12
ENDMDL
MODEL 7
REMARK VINA RESULT:      -6.7     17.550     21.829
REMARK  Name = 5358691_Yuanhuacine.pdbqt.pdb
REMARK  12 active torsions:
REMARK  status: ('A' for Active; 'I' for Inactive)
REMARK    1  A    between atoms: C_9  and  C_48
REMARK    2  A    between atoms: C_13  and  C_23
REMARK    3  A    between atoms: C_14  and  O_26
REMARK    4  A    between atoms: C_15  and  O_28
REMARK    5  A    between atoms: C_16  and  O_39
REMARK    6  A    between atoms: C_17  and  C_30
REMARK    7  A    between atoms: C_31  and  C_32
REMARK    8  A    between atoms: C_33  and  C_34
REMARK    9  A    between atoms: C_35  and  C_36
REMARK   10  A    between atoms: O_39  and  C_41
REMARK   11  A    between atoms: C_41  and  C_42
REMARK   12  A    between atoms: C_48  and  O_49
REMARK                            x       y       z     vdW  Elec       q    Type
REMARK                         _______ _______ _______ _____ _____    ______ ____
ROOT
ATOM      1  O   UNL     1      19.639   0.067  10.362  0.00  0.00    +0.000 OA
ATOM      2  O   UNL     1      20.400  -1.978   7.624  0.00  0.00    +0.000 OA
ATOM      3  O   UNL     1      20.331   0.331   7.081  0.00  0.00    +0.000 OA
ATOM      4  O   UNL     1      19.864  -1.206   5.445  0.00  0.00    +0.000 OA
ATOM      5  O   UNL     1      17.494  -4.316  12.182  0.00  0.00    +0.000 OA
ATOM      6  C   UNL     1      18.612  -0.488   8.327  0.00  0.00    +0.000 C 
ATOM      7  C   UNL     1      19.044  -1.953   8.167  0.00  0.00    +0.000 C 
ATOM      8  C   UNL     1      18.543   0.248   9.557  0.00  0.00    +0.000 C 
ATOM      9  C   UNL     1      18.349  -0.091  10.968  0.00  0.00    +0.000 C 
ATOM     10  C   UNL     1      18.946   0.175   7.060  0.00  0.00    +0.000 C 
ATOM     11  C   UNL     1      19.081  -2.678   9.477  0.00  0.00    +0.000 C 
ATOM     12  C   UNL     1      18.090  -2.644   7.146  0.00  0.00    +0.000 C 
ATOM     13  C   UNL     1      18.585  -0.589   5.763  0.00  0.00    +0.000 C 
ATOM     14  C   UNL     1      17.909  -2.634  10.432  0.00  0.00    +0.000 C 
ATOM     15  C   UNL     1      17.849  -1.442  11.341  0.00  0.00    +0.000 C 
ATOM     16  C   UNL     1      17.688  -1.781   6.048  0.00  0.00    +0.000 C 
ATOM     17  C   UNL     1      20.659  -0.980   6.607  0.00  0.00    +0.000 C 
ATOM     18  C   UNL     1      19.892  -3.794   9.811  0.00  0.00    +0.000 C 
ATOM     19  C   UNL     1      17.760  -4.136   7.085  0.00  0.00    +0.000 C 
ATOM     20  C   UNL     1      18.208  -3.928  11.260  0.00  0.00    +0.000 C 
ATOM     21  C   UNL     1      19.473  -4.560  10.762  0.00  0.00    +0.000 C 
ATOM     22  C   UNL     1      20.353  -5.493  11.526  0.00  0.00    +0.000 C 
ENDROOT
BRANCH  13  23
ATOM     23  C   UNL     1      18.108   0.408   4.681  0.00  0.00    +0.000 C 
ATOM     24  C   UNL     1      18.122   0.118   3.181  0.00  0.00    +0.000 C 
ATOM     25  C   UNL     1      17.902   1.721   4.917  0.00  0.00    +0.000 C 
ENDBRANCH  13  23
BRANCH  14  26
ATOM     26  O   UNL     1      16.682  -2.714   9.738  0.00  0.00    +0.000 OA
ATOM     27  H   UNL     1      16.413  -1.801   9.518  0.00  0.00    +0.000 HD
ENDBRANCH  14  26
BRANCH  15  28
ATOM     28  O   UNL     1      17.116  -1.586  12.522  0.00  0.00    +0.000 OA
ATOM     29  H   UNL     1      17.579  -1.291  13.335  0.00  0.00    +0.000 HD
ENDBRANCH  15  28
BRANCH  17  30
ATOM     30  C   UNL     1      22.072  -1.033   6.245  0.00  0.00    +0.000 C 
ATOM     31  C   UNL     1      23.234  -1.077   5.945  0.00  0.00    +0.000 C 
BRANCH  31  32
ATOM     32  C   UNL     1      24.715  -1.130   5.562  0.00  0.00    +0.000 C 
ATOM     33  C   UNL     1      25.876  -1.173   5.261  0.00  0.00    +0.000 C 
BRANCH  33  34
ATOM     34  C   UNL     1      27.358  -1.228   4.874  0.00  0.00    +0.000 C 
ATOM     35  C   UNL     1      28.837  -1.283   4.487  0.00  0.00    +0.000 C 
BRANCH  35  36
ATOM     36  C   UNL     1      30.319  -1.338   4.099  0.00  0.00    +0.000 C 
ATOM     37  C   UNL     1      31.799  -1.392   3.710  0.00  0.00    +0.000 C 
ATOM     38  C   UNL     1      33.280  -1.445   3.320  0.00  0.00    +0.000 C 
ENDBRANCH  35  36
ENDBRANCH  33  34
ENDBRANCH  31  32
ENDBRANCH  17  30
BRANCH  16  39
ATOM     39  O   UNL     1      16.543  -2.134   5.314  0.00  0.00    +0.000 OA
BRANCH  39  41
ATOM     40  O   UNL     1      14.703  -2.787   6.526  0.00  0.00    +0.000 OA
ATOM     41  C   UNL     1      15.366  -1.925   5.974  0.00  0.00    +0.000 C 
BRANCH  41  42
ATOM     42  C   UNL     1      14.977  -0.506   5.890  0.00  0.00    +0.000 A 
ATOM     43  C   UNL     1      14.500   0.051   4.703  0.00  0.00    +0.000 A 
ATOM     44  C   UNL     1      15.095   0.280   7.035  0.00  0.00    +0.000 A 
ATOM     45  C   UNL     1      14.140   1.396   4.664  0.00  0.00    +0.000 A 
ATOM     46  C   UNL     1      14.735   1.624   6.993  0.00  0.00    +0.000 A 
ATOM     47  C   UNL     1      14.258   2.181   5.808  0.00  0.00    +0.000 A 
ENDBRANCH  41  42
ENDBRANCH  39  41
ENDBRANCH  16  39
BRANCH   9  48
ATOM     48  C   UNL     1      18.112   0.998  11.906  0.00  0.00    +0.000 C 
BRANCH  48  49
ATOM     49  O   UNL     1      17.897   1.997  12.758  0.00  0.00    +0.000 OA
ATOM     50  H   UNL     1      18.740   2.325  13.117  0.00  0.00    +0.000 HD
ENDBRANCH  48  49
ENDBRANCH   9  48
TORSDOF 12
ENDMDL
MODEL 8
REMARK VINA RESULT:      -6.6     21.341     26.941
REMARK  Name = 5358691_Yuanhuacine.pdbqt.pdb
REMARK  12 active torsions:
REMARK  status: ('A' for Active; 'I' for Inactive)
REMARK    1  A    between atoms: C_9  and  C_48
REMARK    2  A    between atoms: C_13  and  C_23
REMARK    3  A    between atoms: C_14  and  O_26
REMARK    4  A    between atoms: C_15  and  O_28
REMARK    5  A    between atoms: C_16  and  O_39
REMARK    6  A    between atoms: C_17  and  C_30
REMARK    7  A    between atoms: C_31  and  C_32
REMARK    8  A    between atoms: C_33  and  C_34
REMARK    9  A    between atoms: C_35  and  C_36
REMARK   10  A    between atoms: O_39  and  C_41
REMARK   11  A    between atoms: C_41  and  C_42
REMARK   12  A    between atoms: C_48  and  O_49
REMARK                            x       y       z     vdW  Elec       q    Type
REMARK                         _______ _______ _______ _____ _____    ______ ____
ROOT
ATOM      1  O   UNL     1      21.835  12.770  16.778  0.00  0.00    +0.000 OA
ATOM      2  O   UNL     1      19.486  14.738  18.471  0.00  0.00    +0.000 OA
ATOM      3  O   UNL     1      21.147  13.822  19.898  0.00  0.00    +0.000 OA
ATOM      4  O   UNL     1      19.080  14.299  20.767  0.00  0.00    +0.000 OA
ATOM      5  O   UNL     1      17.974  12.337  13.310  0.00  0.00    +0.000 OA
ATOM      6  C   UNL     1      20.179  12.409  18.399  0.00  0.00    +0.000 C 
ATOM      7  C   UNL     1      19.110  13.422  17.962  0.00  0.00    +0.000 C 
ATOM      8  C   UNL     1      21.205  11.844  17.569  0.00  0.00    +0.000 C 
ATOM      9  C   UNL     1      21.363  11.576  16.139  0.00  0.00    +0.000 C 
ATOM     10  C   UNL     1      20.402  12.646  19.831  0.00  0.00    +0.000 C 
ATOM     11  C   UNL     1      19.016  13.536  16.471  0.00  0.00    +0.000 C 
ATOM     12  C   UNL     1      17.749  13.014  18.601  0.00  0.00    +0.000 C 
ATOM     13  C   UNL     1      19.139  12.846  20.704  0.00  0.00    +0.000 C 
ATOM     14  C   UNL     1      18.889  12.309  15.596  0.00  0.00    +0.000 C 
ATOM     15  C   UNL     1      20.174  11.618  15.245  0.00  0.00    +0.000 C 
ATOM     16  C   UNL     1      17.874  12.481  19.948  0.00  0.00    +0.000 C 
ATOM     17  C   UNL     1      20.043  14.730  19.808  0.00  0.00    +0.000 C 
ATOM     18  C   UNL     1      18.583  14.665  15.729  0.00  0.00    +0.000 C 
ATOM     19  C   UNL     1      16.360  13.338  18.050  0.00  0.00    +0.000 C 
ATOM     20  C   UNL     1      18.267  12.970  14.322  0.00  0.00    +0.000 C 
ATOM     21  C   UNL     1      18.122  14.445  14.543  0.00  0.00    +0.000 C 
ATOM     22  C   UNL     1      18.027  15.492  13.482  0.00  0.00    +0.000 C 
ENDROOT
BRANCH  13  23
ATOM     23  C   UNL     1      19.347  12.188  22.088  0.00  0.00    +0.000 C 
ATOM     24  C   UNL     1      18.521  12.522  23.329  0.00  0.00    +0.000 C 
ATOM     25  C   UNL     1      20.443  11.473  22.416  0.00  0.00    +0.000 C 
ENDBRANCH  13  23
BRANCH  14  26
ATOM     26  O   UNL     1      18.027  11.354  16.179  0.00  0.00    +0.000 OA
ATOM     27  H   UNL     1      18.264  10.483  15.804  0.00  0.00    +0.000 HD
ENDBRANCH  14  26
BRANCH  15  28
ATOM     28  O   UNL     1      20.169  10.826  14.094  0.00  0.00    +0.000 OA
ATOM     29  H   UNL     1      19.303  10.421  13.873  0.00  0.00    +0.000 HD
ENDBRANCH  15  28
BRANCH  17  30
ATOM     30  C   UNL     1      20.487  16.080  20.141  0.00  0.00    +0.000 C 
ATOM     31  C   UNL     1      20.851  17.191  20.414  0.00  0.00    +0.000 C 
BRANCH  31  32
ATOM     32  C   UNL     1      21.313  18.608  20.763  0.00  0.00    +0.000 C 
ATOM     33  C   UNL     1      21.674  19.719  21.037  0.00  0.00    +0.000 C 
BRANCH  33  34
ATOM     34  C   UNL     1      22.133  21.139  21.384  0.00  0.00    +0.000 C 
ATOM     35  C   UNL     1      22.592  22.558  21.731  0.00  0.00    +0.000 C 
BRANCH  35  36
ATOM     36  C   UNL     1      23.049  23.978  22.079  0.00  0.00    +0.000 C 
ATOM     37  C   UNL     1      23.506  25.398  22.427  0.00  0.00    +0.000 C 
ATOM     38  C   UNL     1      23.963  26.818  22.776  0.00  0.00    +0.000 C 
ENDBRANCH  35  36
ENDBRANCH  33  34
ENDBRANCH  31  32
ENDBRANCH  17  30
BRANCH  16  39
ATOM     39  O   UNL     1      16.810  11.718  20.458  0.00  0.00    +0.000 OA
BRANCH  39  41
ATOM     40  O   UNL     1      15.629  10.259  19.132  0.00  0.00    +0.000 OA
ATOM     41  C   UNL     1      16.605  10.534  19.809  0.00  0.00    +0.000 C 
BRANCH  41  42
ATOM     42  C   UNL     1      17.718   9.605  20.077  0.00  0.00    +0.000 A 
ATOM     43  C   UNL     1      18.699   9.346  19.120  0.00  0.00    +0.000 A 
ATOM     44  C   UNL     1      17.772   8.982  21.323  0.00  0.00    +0.000 A 
ATOM     45  C   UNL     1      19.736   8.462  19.411  0.00  0.00    +0.000 A 
ATOM     46  C   UNL     1      18.810   8.100  21.612  0.00  0.00    +0.000 A 
ATOM     47  C   UNL     1      19.790   7.840  20.656  0.00  0.00    +0.000 A 
ENDBRANCH  41  42
ENDBRANCH  39  41
ENDBRANCH  16  39
BRANCH   9  48
ATOM     48  C   UNL     1      22.496  10.765  15.716  0.00  0.00    +0.000 C 
BRANCH  48  49
ATOM     49  O   UNL     1      23.528  10.024  15.324  0.00  0.00    +0.000 OA
ATOM     50  H   UNL     1      23.431   9.110  15.643  0.00  0.00    +0.000 HD
ENDBRANCH  48  49
ENDBRANCH   9  48
TORSDOF 12
ENDMDL
MODEL 9
REMARK VINA RESULT:      -6.5     17.734     21.961
REMARK  Name = 5358691_Yuanhuacine.pdbqt.pdb
REMARK  12 active torsions:
REMARK  status: ('A' for Active; 'I' for Inactive)
REMARK    1  A    between atoms: C_9  and  C_48
REMARK    2  A    between atoms: C_13  and  C_23
REMARK    3  A    between atoms: C_14  and  O_26
REMARK    4  A    between atoms: C_15  and  O_28
REMARK    5  A    between atoms: C_16  and  O_39
REMARK    6  A    between atoms: C_17  and  C_30
REMARK    7  A    between atoms: C_31  and  C_32
REMARK    8  A    between atoms: C_33  and  C_34
REMARK    9  A    between atoms: C_35  and  C_36
REMARK   10  A    between atoms: O_39  and  C_41
REMARK   11  A    between atoms: C_41  and  C_42
REMARK   12  A    between atoms: C_48  and  O_49
REMARK                            x       y       z     vdW  Elec       q    Type
REMARK                         _______ _______ _______ _____ _____    ______ ____
ROOT
ATOM      1  O   UNL     1      19.657   0.061  10.350  0.00  0.00    +0.000 OA
ATOM      2  O   UNL     1      20.411  -1.996   7.618  0.00  0.00    +0.000 OA
ATOM      3  O   UNL     1      20.345   0.312   7.067  0.00  0.00    +0.000 OA
ATOM      4  O   UNL     1      19.873  -1.231   5.438  0.00  0.00    +0.000 OA
ATOM      5  O   UNL     1      17.507  -4.311  12.189  0.00  0.00    +0.000 OA
ATOM      6  C   UNL     1      18.627  -0.500   8.318  0.00  0.00    +0.000 C 
ATOM      7  C   UNL     1      19.056  -1.966   8.163  0.00  0.00    +0.000 C 
ATOM      8  C   UNL     1      18.560   0.241   9.546  0.00  0.00    +0.000 C 
ATOM      9  C   UNL     1      18.367  -0.092  10.958  0.00  0.00    +0.000 C 
ATOM     10  C   UNL     1      18.960   0.157   7.049  0.00  0.00    +0.000 C 
ATOM     11  C   UNL     1      19.093  -2.686   9.477  0.00  0.00    +0.000 C 
ATOM     12  C   UNL     1      18.099  -2.659   7.147  0.00  0.00    +0.000 C 
ATOM     13  C   UNL     1      18.595  -0.610   5.755  0.00  0.00    +0.000 C 
ATOM     14  C   UNL     1      17.922  -2.636  10.433  0.00  0.00    +0.000 C 
ATOM     15  C   UNL     1      17.866  -1.440  11.337  0.00  0.00    +0.000 C 
ATOM     16  C   UNL     1      17.696  -1.800   6.046  0.00  0.00    +0.000 C 
ATOM     17  C   UNL     1      20.670  -1.002   6.597  0.00  0.00    +0.000 C 
ATOM     18  C   UNL     1      19.902  -3.802   9.814  0.00  0.00    +0.000 C 
ATOM     19  C   UNL     1      17.766  -4.151   7.092  0.00  0.00    +0.000 C 
ATOM     20  C   UNL     1      18.220  -3.927  11.266  0.00  0.00    +0.000 C 
ATOM     21  C   UNL     1      19.483  -4.563  10.768  0.00  0.00    +0.000 C 
ATOM     22  C   UNL     1      20.363  -5.495  11.535  0.00  0.00    +0.000 C 
ENDROOT
BRANCH  13  23
ATOM     23  C   UNL     1      18.118   0.384   4.670  0.00  0.00    +0.000 C 
ATOM     24  C   UNL     1      18.550   0.326   3.206  0.00  0.00    +0.000 C 
ATOM     25  C   UNL     1      17.511   1.556   4.949  0.00  0.00    +0.000 C 
ENDBRANCH  13  23
BRANCH  14  26
ATOM     26  O   UNL     1      16.694  -2.717   9.741  0.00  0.00    +0.000 OA
ATOM     27  H   UNL     1      16.024  -3.039  10.376  0.00  0.00    +0.000 HD
ENDBRANCH  14  26
BRANCH  15  28
ATOM     28  O   UNL     1      17.134  -1.578  12.520  0.00  0.00    +0.000 OA
ATOM     29  H   UNL     1      16.774  -0.742  12.884  0.00  0.00    +0.000 HD
ENDBRANCH  15  28
BRANCH  17  30
ATOM     30  C   UNL     1      22.082  -1.059   6.233  0.00  0.00    +0.000 C 
ATOM     31  C   UNL     1      23.244  -1.105   5.934  0.00  0.00    +0.000 C 
BRANCH  31  32
ATOM     32  C   UNL     1      24.726  -1.162   5.554  0.00  0.00    +0.000 C 
ATOM     33  C   UNL     1      25.888  -1.205   5.255  0.00  0.00    +0.000 C 
BRANCH  33  34
ATOM     34  C   UNL     1      27.370  -1.259   4.871  0.00  0.00    +0.000 C 
ATOM     35  C   UNL     1      28.851  -1.313   4.489  0.00  0.00    +0.000 C 
BRANCH  35  36
ATOM     36  C   UNL     1      30.334  -1.367   4.108  0.00  0.00    +0.000 C 
ATOM     37  C   UNL     1      31.817  -1.422   3.727  0.00  0.00    +0.000 C 
ATOM     38  C   UNL     1      33.299  -1.478   3.345  0.00  0.00    +0.000 C 
ENDBRANCH  35  36
ENDBRANCH  33  34
ENDBRANCH  31  32
ENDBRANCH  17  30
BRANCH  16  39
ATOM     39  O   UNL     1      16.550  -2.154   5.315  0.00  0.00    +0.000 OA
BRANCH  39  41
ATOM     40  O   UNL     1      15.054  -0.637   6.177  0.00  0.00    +0.000 OA
ATOM     41  C   UNL     1      15.374  -1.781   5.899  0.00  0.00    +0.000 C 
BRANCH  41  42
ATOM     42  C   UNL     1      14.549  -2.967   6.193  0.00  0.00    +0.000 A 
ATOM     43  C   UNL     1      13.908  -3.123   7.422  0.00  0.00    +0.000 A 
ATOM     44  C   UNL     1      14.420  -3.942   5.206  0.00  0.00    +0.000 A 
ATOM     45  C   UNL     1      13.136  -4.257   7.662  0.00  0.00    +0.000 A 
ATOM     46  C   UNL     1      13.647  -5.075   5.448  0.00  0.00    +0.000 A 
ATOM     47  C   UNL     1      13.006  -5.232   6.675  0.00  0.00    +0.000 A 
ENDBRANCH  41  42
ENDBRANCH  39  41
ENDBRANCH  16  39
BRANCH   9  48
ATOM     48  C   UNL     1      18.134   1.001  11.892  0.00  0.00    +0.000 C 
BRANCH  48  49
ATOM     49  O   UNL     1      17.920   2.004  12.740  0.00  0.00    +0.000 OA
ATOM     50  H   UNL     1      17.131   2.509  12.478  0.00  0.00    +0.000 HD
ENDBRANCH  48  49
ENDBRANCH   9  48
TORSDOF 12
ENDMDL
