MODEL 1
REMARK VINA RESULT:      -4.8      0.000      0.000
REMARK  Name = 5386_Tegafur.pdbqt.pdb
REMARK  1 active torsions:
REMARK  status: ('A' for Active; 'I' for Inactive)
REMARK    1  A    between atoms: N_4  and  C_12
REMARK                            x       y       z     vdW  Elec       q    Type
REMARK                         _______ _______ _______ _____ _____    ______ ____
ROOT
ATOM      1  F   UNL     1      49.464   4.300  17.932  0.00  0.00    +0.000 F 
ATOM      2  O   UNL     1      45.841   2.785  21.684  0.00  0.00    +0.000 OA
ATOM      3  O   UNL     1      49.097   1.595  18.674  0.00  0.00    +0.000 OA
ATOM      4  N   UNL     1      47.052   4.515  20.618  0.00  0.00    +0.000 N 
ATOM      5  N   UNL     1      47.534   2.248  20.233  0.00  0.00    +0.000 N 
ATOM      6  C   UNL     1      46.721   3.175  20.925  0.00  0.00    +0.000 C 
ATOM      7  C   UNL     1      48.055   4.716  19.739  0.00  0.00    +0.000 C 
ATOM      8  C   UNL     1      48.843   3.947  19.069  0.00  0.00    +0.000 C 
ATOM      9  C   UNL     1      48.535   2.496  19.285  0.00  0.00    +0.000 C 
ATOM     10  H   UNL     1      47.309   1.276  20.391  0.00  0.00    +0.000 HD
ENDROOT
BRANCH   4  12
ATOM     11  O   UNL     1      46.754   6.138  22.398  0.00  0.00    +0.000 OA
ATOM     12  C   UNL     1      46.414   5.597  21.153  0.00  0.00    +0.000 C 
ATOM     13  C   UNL     1      45.340   6.357  20.616  0.00  0.00    +0.000 C 
ATOM     14  C   UNL     1      44.733   7.548  21.359  0.00  0.00    +0.000 C 
ATOM     15  C   UNL     1      45.818   7.094  22.334  0.00  0.00    +0.000 C 
ENDBRANCH   4  12
TORSDOF 1
ENDMDL
MODEL 2
REMARK VINA RESULT:      -4.7     31.313     32.246
REMARK  Name = 5386_Tegafur.pdbqt.pdb
REMARK  1 active torsions:
REMARK  status: ('A' for Active; 'I' for Inactive)
REMARK    1  A    between atoms: N_4  and  C_12
REMARK                            x       y       z     vdW  Elec       q    Type
REMARK                         _______ _______ _______ _____ _____    ______ ____
ROOT
ATOM      1  F   UNL     1      17.537   3.754  37.517  0.00  0.00    +0.000 F 
ATOM      2  O   UNL     1      19.893   6.899  33.768  0.00  0.00    +0.000 OA
ATOM      3  O   UNL     1      19.417   5.758  38.189  0.00  0.00    +0.000 OA
ATOM      4  N   UNL     1      18.593   4.992  34.287  0.00  0.00    +0.000 N 
ATOM      5  N   UNL     1      19.689   6.235  35.953  0.00  0.00    +0.000 N 
ATOM      6  C   UNL     1      19.425   6.100  34.570  0.00  0.00    +0.000 C 
ATOM      7  C   UNL     1      18.180   4.248  35.334  0.00  0.00    +0.000 C 
ATOM      8  C   UNL     1      18.368   4.291  36.609  0.00  0.00    +0.000 C 
ATOM      9  C   UNL     1      19.197   5.470  37.019  0.00  0.00    +0.000 C 
ATOM     10  H   UNL     1      20.248   7.036  36.208  0.00  0.00    +0.000 HD
ENDROOT
BRANCH   4  12
ATOM     11  O   UNL     1      19.022   4.756  31.910  0.00  0.00    +0.000 OA
ATOM     12  C   UNL     1      18.190   4.646  33.030  0.00  0.00    +0.000 C 
ATOM     13  C   UNL     1      16.932   4.143  32.601  0.00  0.00    +0.000 C 
ATOM     14  C   UNL     1      16.643   3.810  31.137  0.00  0.00    +0.000 C 
ATOM     15  C   UNL     1      18.089   4.299  31.065  0.00  0.00    +0.000 C 
ENDBRANCH   4  12
TORSDOF 1
ENDMDL
MODEL 3
REMARK VINA RESULT:      -4.5     26.521     27.914
REMARK  Name = 5386_Tegafur.pdbqt.pdb
REMARK  1 active torsions:
REMARK  status: ('A' for Active; 'I' for Inactive)
REMARK    1  A    between atoms: N_4  and  C_12
REMARK                            x       y       z     vdW  Elec       q    Type
REMARK                         _______ _______ _______ _____ _____    ______ ____
ROOT
ATOM      1  F   UNL     1      19.486  12.560  21.060  0.00  0.00    +0.000 F 
ATOM      2  O   UNL     1      20.174   7.890  18.371  0.00  0.00    +0.000 OA
ATOM      3  O   UNL     1      18.426  10.108  21.991  0.00  0.00    +0.000 OA
ATOM      4  N   UNL     1      20.326  10.251  18.405  0.00  0.00    +0.000 N 
ATOM      5  N   UNL     1      19.245   9.055  20.115  0.00  0.00    +0.000 N 
ATOM      6  C   UNL     1      19.948   8.978  18.890  0.00  0.00    +0.000 C 
ATOM      7  C   UNL     1      19.982  11.321  19.150  0.00  0.00    +0.000 C 
ATOM      8  C   UNL     1      19.349  11.489  20.261  0.00  0.00    +0.000 C 
ATOM      9  C   UNL     1      18.951  10.187  20.887  0.00  0.00    +0.000 C 
ATOM     10  H   UNL     1      18.988   8.167  20.520  0.00  0.00    +0.000 HD
ENDROOT
BRANCH   4  12
ATOM     11  O   UNL     1      20.440  11.033  16.110  0.00  0.00    +0.000 OA
ATOM     12  C   UNL     1      21.016  10.448  17.244  0.00  0.00    +0.000 C 
ATOM     13  C   UNL     1      22.365  10.123  16.939  0.00  0.00    +0.000 C 
ATOM     14  C   UNL     1      22.984  10.410  15.570  0.00  0.00    +0.000 C 
ATOM     15  C   UNL     1      21.560  10.932  15.384  0.00  0.00    +0.000 C 
ENDBRANCH   4  12
TORSDOF 1
ENDMDL
MODEL 4
REMARK VINA RESULT:      -4.5     26.348     27.637
REMARK  Name = 5386_Tegafur.pdbqt.pdb
REMARK  1 active torsions:
REMARK  status: ('A' for Active; 'I' for Inactive)
REMARK    1  A    between atoms: N_4  and  C_12
REMARK                            x       y       z     vdW  Elec       q    Type
REMARK                         _______ _______ _______ _____ _____    ______ ____
ROOT
ATOM      1  F   UNL     1      18.565  12.922  17.285  0.00  0.00    +0.000 F 
ATOM      2  O   UNL     1      22.952   9.719  17.254  0.00  0.00    +0.000 OA
ATOM      3  O   UNL     1      21.083  13.817  16.360  0.00  0.00    +0.000 OA
ATOM      4  N   UNL     1      20.726  10.101  17.960  0.00  0.00    +0.000 N 
ATOM      5  N   UNL     1      21.996  11.775  16.907  0.00  0.00    +0.000 N 
ATOM      6  C   UNL     1      21.969  10.442  17.378  0.00  0.00    +0.000 C 
ATOM      7  C   UNL     1      19.773  11.056  17.980  0.00  0.00    +0.000 C 
ATOM      8  C   UNL     1      19.707  12.281  17.583  0.00  0.00    +0.000 C 
ATOM      9  C   UNL     1      20.964  12.724  16.899  0.00  0.00    +0.000 C 
ATOM     10  H   UNL     1      22.852  12.052  16.448  0.00  0.00    +0.000 HD
ENDROOT
BRANCH   4  12
ATOM     11  O   UNL     1      20.046   8.695  19.817  0.00  0.00    +0.000 OA
ATOM     12  C   UNL     1      20.445   8.875  18.487  0.00  0.00    +0.000 C 
ATOM     13  C   UNL     1      20.495   7.600  17.862  0.00  0.00    +0.000 C 
ATOM     14  C   UNL     1      20.150   6.311  18.610  0.00  0.00    +0.000 C 
ATOM     15  C   UNL     1      19.946   7.365  19.696  0.00  0.00    +0.000 C 
ENDBRANCH   4  12
TORSDOF 1
ENDMDL
MODEL 5
REMARK VINA RESULT:      -4.4     25.323     26.897
REMARK  Name = 5386_Tegafur.pdbqt.pdb
REMARK  1 active torsions:
REMARK  status: ('A' for Active; 'I' for Inactive)
REMARK    1  A    between atoms: N_4  and  C_12
REMARK                            x       y       z     vdW  Elec       q    Type
REMARK                         _______ _______ _______ _____ _____    ______ ____
ROOT
ATOM      1  F   UNL     1      35.117 -12.938  39.793  0.00  0.00    +0.000 F 
ATOM      2  O   UNL     1      36.694 -11.770  34.728  0.00  0.00    +0.000 OA
ATOM      3  O   UNL     1      35.628 -10.289  38.941  0.00  0.00    +0.000 OA
ATOM      4  N   UNL     1      36.315 -13.390  36.410  0.00  0.00    +0.000 N 
ATOM      5  N   UNL     1      36.239 -11.087  36.869  0.00  0.00    +0.000 N 
ATOM      6  C   UNL     1      36.444 -12.083  35.886  0.00  0.00    +0.000 C 
ATOM      7  C   UNL     1      36.021 -13.502  37.722  0.00  0.00    +0.000 C 
ATOM      8  C   UNL     1      35.822 -12.665  38.683  0.00  0.00    +0.000 C 
ATOM      9  C   UNL     1      35.883 -11.243  38.215  0.00  0.00    +0.000 C 
ATOM     10  H   UNL     1      36.283 -10.135  36.533  0.00  0.00    +0.000 HD
ENDROOT
BRANCH   4  12
ATOM     11  O   UNL     1      35.393 -15.366  35.344  0.00  0.00    +0.000 OA
ATOM     12  C   UNL     1      36.464 -14.525  35.667  0.00  0.00    +0.000 C 
ATOM     13  C   UNL     1      37.647 -15.075  35.102  0.00  0.00    +0.000 C 
ATOM     14  C   UNL     1      37.637 -16.373  34.293  0.00  0.00    +0.000 C 
ATOM     15  C   UNL     1      36.162 -16.225  34.663  0.00  0.00    +0.000 C 
ENDBRANCH   4  12
TORSDOF 1
ENDMDL
MODEL 6
REMARK VINA RESULT:      -4.3     37.870     38.706
REMARK  Name = 5386_Tegafur.pdbqt.pdb
REMARK  1 active torsions:
REMARK  status: ('A' for Active; 'I' for Inactive)
REMARK    1  A    between atoms: N_4  and  C_12
REMARK                            x       y       z     vdW  Elec       q    Type
REMARK                         _______ _______ _______ _____ _____    ______ ____
ROOT
ATOM      1  F   UNL     1      23.643 -13.290  48.041  0.00  0.00    +0.000 F 
ATOM      2  O   UNL     1      24.500  -7.933  47.782  0.00  0.00    +0.000 OA
ATOM      3  O   UNL     1      25.826 -12.044  49.338  0.00  0.00    +0.000 OA
ATOM      4  N   UNL     1      23.353  -9.843  46.986  0.00  0.00    +0.000 N 
ATOM      5  N   UNL     1      25.173 -10.017  48.462  0.00  0.00    +0.000 N 
ATOM      6  C   UNL     1      24.336  -9.146  47.726  0.00  0.00    +0.000 C 
ATOM      7  C   UNL     1      23.348 -11.188  47.082  0.00  0.00    +0.000 C 
ATOM      8  C   UNL     1      24.061 -12.056  47.714  0.00  0.00    +0.000 C 
ATOM      9  C   UNL     1      25.103 -11.411  48.578  0.00  0.00    +0.000 C 
ATOM     10  H   UNL     1      25.867  -9.562  49.038  0.00  0.00    +0.000 HD
ENDROOT
BRANCH   4  12
ATOM     11  O   UNL     1      22.740  -8.645  44.965  0.00  0.00    +0.000 OA
ATOM     12  C   UNL     1      22.423  -9.232  46.196  0.00  0.00    +0.000 C 
ATOM     13  C   UNL     1      21.031  -9.059  46.425  0.00  0.00    +0.000 C 
ATOM     14  C   UNL     1      20.124  -8.336  45.428  0.00  0.00    +0.000 C 
ATOM     15  C   UNL     1      21.481  -8.253  44.731  0.00  0.00    +0.000 C 
ENDBRANCH   4  12
TORSDOF 1
ENDMDL
MODEL 7
REMARK VINA RESULT:      -4.2     27.868     29.559
REMARK  Name = 5386_Tegafur.pdbqt.pdb
REMARK  1 active torsions:
REMARK  status: ('A' for Active; 'I' for Inactive)
REMARK    1  A    between atoms: N_4  and  C_12
REMARK                            x       y       z     vdW  Elec       q    Type
REMARK                         _______ _______ _______ _____ _____    ______ ____
ROOT
ATOM      1  F   UNL     1      15.014   7.282  19.246  0.00  0.00    +0.000 F 
ATOM      2  O   UNL     1      19.337   9.370  21.787  0.00  0.00    +0.000 OA
ATOM      3  O   UNL     1      14.969   7.968  21.990  0.00  0.00    +0.000 OA
ATOM      4  N   UNL     1      18.425   8.302  19.883  0.00  0.00    +0.000 N 
ATOM      5  N   UNL     1      17.186   8.576  21.861  0.00  0.00    +0.000 N 
ATOM      6  C   UNL     1      18.421   8.797  21.207  0.00  0.00    +0.000 C 
ATOM      7  C   UNL     1      17.294   7.713  19.442  0.00  0.00    +0.000 C 
ATOM      8  C   UNL     1      16.138   7.467  19.957  0.00  0.00    +0.000 C 
ATOM      9  C   UNL     1      16.013   8.005  21.350  0.00  0.00    +0.000 C 
ATOM     10  H   UNL     1      17.123   8.948  22.798  0.00  0.00    +0.000 HD
ENDROOT
BRANCH   4  12
ATOM     11  O   UNL     1      20.001   9.616  18.587  0.00  0.00    +0.000 OA
ATOM     12  C   UNL     1      19.495   8.392  19.041  0.00  0.00    +0.000 C 
ATOM     13  C   UNL     1      20.273   7.350  18.469  0.00  0.00    +0.000 C 
ATOM     14  C   UNL     1      21.447   7.631  17.529  0.00  0.00    +0.000 C 
ATOM     15  C   UNL     1      20.963   9.043  17.852  0.00  0.00    +0.000 C 
ENDBRANCH   4  12
TORSDOF 1
ENDMDL
MODEL 8
REMARK VINA RESULT:      -4.1     26.198     27.957
REMARK  Name = 5386_Tegafur.pdbqt.pdb
REMARK  1 active torsions:
REMARK  status: ('A' for Active; 'I' for Inactive)
REMARK    1  A    between atoms: N_4  and  C_12
REMARK                            x       y       z     vdW  Elec       q    Type
REMARK                         _______ _______ _______ _____ _____    ______ ____
ROOT
ATOM      1  F   UNL     1      18.393   7.673  19.560  0.00  0.00    +0.000 F 
ATOM      2  O   UNL     1      20.439  12.636  18.733  0.00  0.00    +0.000 OA
ATOM      3  O   UNL     1      17.831   9.846  21.282  0.00  0.00    +0.000 OA
ATOM      4  N   UNL     1      20.445  10.329  18.211  0.00  0.00    +0.000 N 
ATOM      5  N   UNL     1      19.219  11.185  20.024  0.00  0.00    +0.000 N 
ATOM      6  C   UNL     1      20.087  11.482  18.947  0.00  0.00    +0.000 C 
ATOM      7  C   UNL     1      19.927   9.152  18.619  0.00  0.00    +0.000 C 
ATOM      8  C   UNL     1      19.142   8.788  19.575  0.00  0.00    +0.000 C 
ATOM      9  C   UNL     1      18.659   9.952  20.386  0.00  0.00    +0.000 C 
ATOM     10  H   UNL     1      18.905  11.984  20.556  0.00  0.00    +0.000 HD
ENDROOT
BRANCH   4  12
ATOM     11  O   UNL     1      22.612   9.955  17.184  0.00  0.00    +0.000 OA
ATOM     12  C   UNL     1      21.269  10.347  17.124  0.00  0.00    +0.000 C 
ATOM     13  C   UNL     1      20.982  10.743  15.790  0.00  0.00    +0.000 C 
ATOM     14  C   UNL     1      22.037  10.707  14.683  0.00  0.00    +0.000 C 
ATOM     15  C   UNL     1      22.830  10.200  15.885  0.00  0.00    +0.000 C 
ENDBRANCH   4  12
TORSDOF 1
ENDMDL
MODEL 9
REMARK VINA RESULT:      -4.1     34.688     35.799
REMARK  Name = 5386_Tegafur.pdbqt.pdb
REMARK  1 active torsions:
REMARK  status: ('A' for Active; 'I' for Inactive)
REMARK    1  A    between atoms: N_4  and  C_12
REMARK                            x       y       z     vdW  Elec       q    Type
REMARK                         _______ _______ _______ _____ _____    ______ ____
ROOT
ATOM      1  F   UNL     1      26.061  18.754  47.383  0.00  0.00    +0.000 F 
ATOM      2  O   UNL     1      25.768  13.477  46.128  0.00  0.00    +0.000 OA
ATOM      3  O   UNL     1      27.336  16.759  48.930  0.00  0.00    +0.000 OA
ATOM      4  N   UNL     1      24.989  15.686  45.794  0.00  0.00    +0.000 N 
ATOM      5  N   UNL     1      26.454  15.142  47.549  0.00  0.00    +0.000 N 
ATOM      6  C   UNL     1      25.720  14.662  46.440  0.00  0.00    +0.000 C 
ATOM      7  C   UNL     1      25.093  16.931  46.303  0.00  0.00    +0.000 C 
ATOM      8  C   UNL     1      25.725  17.456  47.297  0.00  0.00    +0.000 C 
ATOM      9  C   UNL     1      26.578  16.456  48.017  0.00  0.00    +0.000 C 
ATOM     10  H   UNL     1      27.023  14.452  48.019  0.00  0.00    +0.000 HD
ENDROOT
BRANCH   4  12
ATOM     11  O   UNL     1      24.717  15.073  43.462  0.00  0.00    +0.000 OA
ATOM     12  C   UNL     1      24.203  15.483  44.698  0.00  0.00    +0.000 C 
ATOM     13  C   UNL     1      22.797  15.637  44.565  0.00  0.00    +0.000 C 
ATOM     14  C   UNL     1      22.067  15.372  43.247  0.00  0.00    +0.000 C 
ATOM     15  C   UNL     1      23.516  15.071  42.867  0.00  0.00    +0.000 C 
ENDBRANCH   4  12
TORSDOF 1
ENDMDL
