MODEL 1
REMARK VINA RESULT:      -6.6      0.000      0.000
REMARK  Name = 5470187_Zerumbone.pdbqt.pdb
REMARK  0 active torsions:
REMARK  status: ('A' for Active; 'I' for Inactive)
REMARK                            x       y       z     vdW  Elec       q    Type
REMARK                         _______ _______ _______ _____ _____    ______ ____
ROOT
ATOM      1  O   UNL     1      45.486 -15.797  -4.333  0.00  0.00    +0.000 OA
ATOM      2  C   UNL     1      41.574 -17.938  -2.335  0.00  0.00    +0.000 C 
ATOM      3  C   UNL     1      40.758 -17.078  -1.445  0.00  0.00    +0.000 C 
ATOM      4  C   UNL     1      40.719 -18.431  -3.527  0.00  0.00    +0.000 C 
ATOM      5  C   UNL     1      42.135 -19.136  -1.527  0.00  0.00    +0.000 C 
ATOM      6  C   UNL     1      42.703 -17.087  -2.830  0.00  0.00    +0.000 C 
ATOM      7  C   UNL     1      40.209 -15.895  -0.628  0.00  0.00    +0.000 C 
ATOM      8  C   UNL     1      40.094 -14.703  -0.123  0.00  0.00    +0.000 C 
ATOM      9  C   UNL     1      41.162 -13.866  -0.536  0.00  0.00    +0.000 C 
ATOM     10  C   UNL     1      42.441 -13.480  -1.283  0.00  0.00    +0.000 C 
ATOM     11  C   UNL     1      43.580 -16.333  -3.175  0.00  0.00    +0.000 C 
ATOM     12  C   UNL     1      38.744 -14.124   0.145  0.00  0.00    +0.000 C 
ATOM     13  C   UNL     1      43.658 -13.623  -2.201  0.00  0.00    +0.000 C 
ATOM     14  C   UNL     1      44.609 -13.979  -3.015  0.00  0.00    +0.000 C 
ATOM     15  C   UNL     1      44.626 -15.384  -3.562  0.00  0.00    +0.000 C 
ATOM     16  C   UNL     1      45.653 -12.940  -3.347  0.00  0.00    +0.000 C 
ENDROOT
TORSDOF 0
ENDMDL
MODEL 2
REMARK VINA RESULT:      -6.3     23.128     25.952
REMARK  Name = 5470187_Zerumbone.pdbqt.pdb
REMARK  0 active torsions:
REMARK  status: ('A' for Active; 'I' for Inactive)
REMARK                            x       y       z     vdW  Elec       q    Type
REMARK                         _______ _______ _______ _____ _____    ______ ____
ROOT
ATOM      1  O   UNL     1      38.976   5.259  15.635  0.00  0.00    +0.000 OA
ATOM      2  C   UNL     1      37.024   1.487  13.220  0.00  0.00    +0.000 C 
ATOM      3  C   UNL     1      36.091   0.640  14.002  0.00  0.00    +0.000 C 
ATOM      4  C   UNL     1      36.287   2.108  12.009  0.00  0.00    +0.000 C 
ATOM      5  C   UNL     1      38.230   0.635  12.753  0.00  0.00    +0.000 C 
ATOM      6  C   UNL     1      37.493   2.568  14.145  0.00  0.00    +0.000 C 
ATOM      7  C   UNL     1      35.221   0.043  15.122  0.00  0.00    +0.000 C 
ATOM      8  C   UNL     1      34.658  -0.119  16.283  0.00  0.00    +0.000 C 
ATOM      9  C   UNL     1      35.098   0.863  17.207  0.00  0.00    +0.000 C 
ATOM     10  C   UNL     1      35.867   2.093  17.695  0.00  0.00    +0.000 C 
ATOM     11  C   UNL     1      37.822   3.397  14.958  0.00  0.00    +0.000 C 
ATOM     12  C   UNL     1      33.278  -0.680  16.381  0.00  0.00    +0.000 C 
ATOM     13  C   UNL     1      36.799   3.307  17.649  0.00  0.00    +0.000 C 
ATOM     14  C   UNL     1      37.624   4.274  17.370  0.00  0.00    +0.000 C 
ATOM     15  C   UNL     1      38.195   4.379  15.978  0.00  0.00    +0.000 C 
ATOM     16  C   UNL     1      37.964   5.231  18.487  0.00  0.00    +0.000 C 
ENDROOT
TORSDOF 0
ENDMDL
MODEL 3
REMARK VINA RESULT:      -6.3     18.248     21.334
REMARK  Name = 5470187_Zerumbone.pdbqt.pdb
REMARK  0 active torsions:
REMARK  status: ('A' for Active; 'I' for Inactive)
REMARK                            x       y       z     vdW  Elec       q    Type
REMARK                         _______ _______ _______ _____ _____    ______ ____
ROOT
ATOM      1  O   UNL     1      33.324   3.642   2.163  0.00  0.00    +0.000 OA
ATOM      2  C   UNL     1      32.024  -0.921   3.330  0.00  0.00    +0.000 C 
ATOM      3  C   UNL     1      30.660  -1.075   3.889  0.00  0.00    +0.000 C 
ATOM      4  C   UNL     1      32.156  -1.736   2.021  0.00  0.00    +0.000 C 
ATOM      5  C   UNL     1      33.069  -1.387   4.375  0.00  0.00    +0.000 C 
ATOM      6  C   UNL     1      32.205   0.539   3.047  0.00  0.00    +0.000 C 
ATOM      7  C   UNL     1      29.237  -0.809   4.411  0.00  0.00    +0.000 C 
ATOM      8  C   UNL     1      28.151  -0.176   4.742  0.00  0.00    +0.000 C 
ATOM      9  C   UNL     1      28.285   1.219   4.524  0.00  0.00    +0.000 C 
ATOM     10  C   UNL     1      28.968   2.517   4.086  0.00  0.00    +0.000 C 
ATOM     11  C   UNL     1      32.266   1.729   2.855  0.00  0.00    +0.000 C 
ATOM     12  C   UNL     1      26.819  -0.835   4.599  0.00  0.00    +0.000 C 
ATOM     13  C   UNL     1      30.050   3.443   3.524  0.00  0.00    +0.000 C 
ATOM     14  C   UNL     1      31.102   4.019   3.018  0.00  0.00    +0.000 C 
ATOM     15  C   UNL     1      32.296   3.178   2.644  0.00  0.00    +0.000 C 
ATOM     16  C   UNL     1      31.050   5.518   2.850  0.00  0.00    +0.000 C 
ENDROOT
TORSDOF 0
ENDMDL
MODEL 4
REMARK VINA RESULT:      -5.7     18.811     21.682
REMARK  Name = 5470187_Zerumbone.pdbqt.pdb
REMARK  0 active torsions:
REMARK  status: ('A' for Active; 'I' for Inactive)
REMARK                            x       y       z     vdW  Elec       q    Type
REMARK                         _______ _______ _______ _____ _____    ______ ____
ROOT
ATOM      1  O   UNL     1      35.173   3.969   1.768  0.00  0.00    +0.000 OA
ATOM      2  C   UNL     1      32.885   0.376   4.163  0.00  0.00    +0.000 C 
ATOM      3  C   UNL     1      31.448   0.606   4.441  0.00  0.00    +0.000 C 
ATOM      4  C   UNL     1      33.060  -0.884   3.282  0.00  0.00    +0.000 C 
ATOM      5  C   UNL     1      33.654   0.225   5.500  0.00  0.00    +0.000 C 
ATOM      6  C   UNL     1      33.375   1.587   3.429  0.00  0.00    +0.000 C 
ATOM      7  C   UNL     1      30.036   1.214   4.525  0.00  0.00    +0.000 C 
ATOM      8  C   UNL     1      29.049   2.047   4.376  0.00  0.00    +0.000 C 
ATOM      9  C   UNL     1      29.472   3.229   3.715  0.00  0.00    +0.000 C 
ATOM     10  C   UNL     1      30.443   4.173   3.003  0.00  0.00    +0.000 C 
ATOM     11  C   UNL     1      33.685   2.599   2.850  0.00  0.00    +0.000 C 
ATOM     12  C   UNL     1      27.656   1.542   4.198  0.00  0.00    +0.000 C 
ATOM     13  C   UNL     1      31.751   4.684   2.392  0.00  0.00    +0.000 C 
ATOM     14  C   UNL     1      32.956   4.897   1.949  0.00  0.00    +0.000 C 
ATOM     15  C   UNL     1      34.016   3.845   2.155  0.00  0.00    +0.000 C 
ATOM     16  C   UNL     1      33.210   6.215   1.258  0.00  0.00    +0.000 C 
ENDROOT
TORSDOF 0
ENDMDL
MODEL 5
REMARK VINA RESULT:      -5.6     18.384     20.383
REMARK  Name = 5470187_Zerumbone.pdbqt.pdb
REMARK  0 active torsions:
REMARK  status: ('A' for Active; 'I' for Inactive)
REMARK                            x       y       z     vdW  Elec       q    Type
REMARK                         _______ _______ _______ _____ _____    ______ ____
ROOT
ATOM      1  O   UNL     1      41.722  -3.188   9.583  0.00  0.00    +0.000 OA
ATOM      2  C   UNL     1      37.845  -0.298   8.884  0.00  0.00    +0.000 C 
ATOM      3  C   UNL     1      37.840   0.966   9.659  0.00  0.00    +0.000 C 
ATOM      4  C   UNL     1      37.828   0.011   7.367  0.00  0.00    +0.000 C 
ATOM      5  C   UNL     1      36.620  -1.157   9.284  0.00  0.00    +0.000 C 
ATOM      6  C   UNL     1      39.109  -1.014   9.248  0.00  0.00    +0.000 C 
ATOM      7  C   UNL     1      38.209   2.121  10.608  0.00  0.00    +0.000 C 
ATOM      8  C   UNL     1      38.870   2.838  11.466  0.00  0.00    +0.000 C 
ATOM      9  C   UNL     1      40.063   2.184  11.869  0.00  0.00    +0.000 C 
ATOM     10  C   UNL     1      41.126   1.084  11.893  0.00  0.00    +0.000 C 
ATOM     11  C   UNL     1      40.145  -1.523   9.601  0.00  0.00    +0.000 C 
ATOM     12  C   UNL     1      38.812   4.329  11.408  0.00  0.00    +0.000 C 
ATOM     13  C   UNL     1      41.837  -0.224  11.537  0.00  0.00    +0.000 C 
ATOM     14  C   UNL     1      42.246  -1.372  11.080  0.00  0.00    +0.000 C 
ATOM     15  C   UNL     1      41.407  -2.104  10.062  0.00  0.00    +0.000 C 
ATOM     16  C   UNL     1      43.552  -1.901  11.622  0.00  0.00    +0.000 C 
ENDROOT
TORSDOF 0
ENDMDL
MODEL 6
REMARK VINA RESULT:      -5.6      2.981      4.939
REMARK  Name = 5470187_Zerumbone.pdbqt.pdb
REMARK  0 active torsions:
REMARK  status: ('A' for Active; 'I' for Inactive)
REMARK                            x       y       z     vdW  Elec       q    Type
REMARK                         _______ _______ _______ _____ _____    ______ ____
ROOT
ATOM      1  O   UNL     1      42.602 -20.310  -6.926  0.00  0.00    +0.000 OA
ATOM      2  C   UNL     1      42.012 -17.990  -2.666  0.00  0.00    +0.000 C 
ATOM      3  C   UNL     1      42.905 -16.828  -2.441  0.00  0.00    +0.000 C 
ATOM      4  C   UNL     1      40.533 -17.533  -2.645  0.00  0.00    +0.000 C 
ATOM      5  C   UNL     1      42.272 -19.063  -1.579  0.00  0.00    +0.000 C 
ATOM      6  C   UNL     1      42.361 -18.538  -4.016  0.00  0.00    +0.000 C 
ATOM      7  C   UNL     1      43.976 -15.734  -2.596  0.00  0.00    +0.000 C 
ATOM      8  C   UNL     1      44.929 -15.015  -3.112  0.00  0.00    +0.000 C 
ATOM      9  C   UNL     1      45.319 -15.517  -4.380  0.00  0.00    +0.000 C 
ATOM     10  C   UNL     1      45.284 -16.438  -5.601  0.00  0.00    +0.000 C 
ATOM     11  C   UNL     1      42.709 -18.917  -5.107  0.00  0.00    +0.000 C 
ATOM     12  C   UNL     1      45.013 -13.553  -2.823  0.00  0.00    +0.000 C 
ATOM     13  C   UNL     1      44.836 -17.580  -6.518  0.00  0.00    +0.000 C 
ATOM     14  C   UNL     1      44.289 -18.599  -7.115  0.00  0.00    +0.000 C 
ATOM     15  C   UNL     1      43.169 -19.342  -6.431  0.00  0.00    +0.000 C 
ATOM     16  C   UNL     1      44.835 -18.975  -8.471  0.00  0.00    +0.000 C 
ENDROOT
TORSDOF 0
ENDMDL
MODEL 7
REMARK VINA RESULT:      -5.5      1.911      2.690
REMARK  Name = 5470187_Zerumbone.pdbqt.pdb
REMARK  0 active torsions:
REMARK  status: ('A' for Active; 'I' for Inactive)
REMARK                            x       y       z     vdW  Elec       q    Type
REMARK                         _______ _______ _______ _____ _____    ______ ____
ROOT
ATOM      1  O   UNL     1      44.151 -18.541  -6.683  0.00  0.00    +0.000 OA
ATOM      2  C   UNL     1      41.187 -18.692  -2.801  0.00  0.00    +0.000 C 
ATOM      3  C   UNL     1      41.295 -17.545  -1.868  0.00  0.00    +0.000 C 
ATOM      4  C   UNL     1      39.754 -18.772  -3.379  0.00  0.00    +0.000 C 
ATOM      5  C   UNL     1      41.555 -20.001  -2.059  0.00  0.00    +0.000 C 
ATOM      6  C   UNL     1      42.171 -18.438  -3.902  0.00  0.00    +0.000 C 
ATOM      7  C   UNL     1      41.704 -16.229  -1.184  0.00  0.00    +0.000 C 
ATOM      8  C   UNL     1      42.312 -15.102  -0.958  0.00  0.00    +0.000 C 
ATOM      9  C   UNL     1      43.281 -14.833  -1.958  0.00  0.00    +0.000 C 
ATOM     10  C   UNL     1      44.085 -15.067  -3.239  0.00  0.00    +0.000 C 
ATOM     11  C   UNL     1      42.990 -18.158  -4.743  0.00  0.00    +0.000 C 
ATOM     12  C   UNL     1      41.594 -13.980  -0.284  0.00  0.00    +0.000 C 
ATOM     13  C   UNL     1      44.556 -15.750  -4.526  0.00  0.00    +0.000 C 
ATOM     14  C   UNL     1      44.784 -16.503  -5.562  0.00  0.00    +0.000 C 
ATOM     15  C   UNL     1      43.997 -17.778  -5.736  0.00  0.00    +0.000 C 
ATOM     16  C   UNL     1      45.850 -16.042  -6.526  0.00  0.00    +0.000 C 
ENDROOT
TORSDOF 0
ENDMDL
MODEL 8
REMARK VINA RESULT:      -5.3     48.237     50.683
REMARK  Name = 5470187_Zerumbone.pdbqt.pdb
REMARK  0 active torsions:
REMARK  status: ('A' for Active; 'I' for Inactive)
REMARK                            x       y       z     vdW  Elec       q    Type
REMARK                         _______ _______ _______ _____ _____    ______ ____
ROOT
ATOM      1  O   UNL     1      34.807  -5.369  43.273  0.00  0.00    +0.000 OA
ATOM      2  C   UNL     1      34.207  -8.075  47.297  0.00  0.00    +0.000 C 
ATOM      3  C   UNL     1      34.720  -7.478  48.553  0.00  0.00    +0.000 C 
ATOM      4  C   UNL     1      32.683  -8.317  47.409  0.00  0.00    +0.000 C 
ATOM      5  C   UNL     1      34.955  -9.401  47.011  0.00  0.00    +0.000 C 
ATOM      6  C   UNL     1      34.491  -7.086  46.209  0.00  0.00    +0.000 C 
ATOM      7  C   UNL     1      35.360  -6.537  49.590  0.00  0.00    +0.000 C 
ATOM      8  C   UNL     1      35.949  -5.499  50.105  0.00  0.00    +0.000 C 
ATOM      9  C   UNL     1      36.271  -4.545  49.106  0.00  0.00    +0.000 C 
ATOM     10  C   UNL     1      36.331  -3.945  47.699  0.00  0.00    +0.000 C 
ATOM     11  C   UNL     1      34.763  -6.237  45.396  0.00  0.00    +0.000 C 
ATOM     12  C   UNL     1      35.620  -5.054  51.491  0.00  0.00    +0.000 C 
ATOM     13  C   UNL     1      36.119  -3.822  46.187  0.00  0.00    +0.000 C 
ATOM     14  C   UNL     1      35.828  -3.941  44.925  0.00  0.00    +0.000 C 
ATOM     15  C   UNL     1      35.116  -5.181  44.445  0.00  0.00    +0.000 C 
ATOM     16  C   UNL     1      36.244  -2.811  44.014  0.00  0.00    +0.000 C 
ENDROOT
TORSDOF 0
ENDMDL
MODEL 9
REMARK VINA RESULT:      -5.2     48.557     50.372
REMARK  Name = 5470187_Zerumbone.pdbqt.pdb
REMARK  0 active torsions:
REMARK  status: ('A' for Active; 'I' for Inactive)
REMARK                            x       y       z     vdW  Elec       q    Type
REMARK                         _______ _______ _______ _____ _____    ______ ____
ROOT
ATOM      1  O   UNL     1      20.151 -13.734  43.857  0.00  0.00    +0.000 OA
ATOM      2  C   UNL     1      20.725  -8.942  44.616  0.00  0.00    +0.000 C 
ATOM      3  C   UNL     1      20.592  -8.083  43.415  0.00  0.00    +0.000 C 
ATOM      4  C   UNL     1      19.652  -8.558  45.663  0.00  0.00    +0.000 C 
ATOM      5  C   UNL     1      22.149  -8.792  45.207  0.00  0.00    +0.000 C 
ATOM      6  C   UNL     1      20.512 -10.352  44.156  0.00  0.00    +0.000 C 
ATOM      7  C   UNL     1      20.386  -7.571  41.978  0.00  0.00    +0.000 C 
ATOM      8  C   UNL     1      20.156  -7.568  40.699  0.00  0.00    +0.000 C 
ATOM      9  C   UNL     1      19.981  -8.887  40.208  0.00  0.00    +0.000 C 
ATOM     10  C   UNL     1      19.869 -10.412  40.276  0.00  0.00    +0.000 C 
ATOM     11  C   UNL     1      20.333 -11.454  43.699  0.00  0.00    +0.000 C 
ATOM     12  C   UNL     1      19.433  -6.427  40.064  0.00  0.00    +0.000 C 
ATOM     13  C   UNL     1      19.844 -11.818  40.883  0.00  0.00    +0.000 C 
ATOM     14  C   UNL     1      19.865 -12.893  41.616  0.00  0.00    +0.000 C 
ATOM     15  C   UNL     1      20.115 -12.772  43.098  0.00  0.00    +0.000 C 
ATOM     16  C   UNL     1      19.646 -14.209  40.910  0.00  0.00    +0.000 C 
ENDROOT
TORSDOF 0
ENDMDL
