MODEL 1
REMARK VINA RESULT:      -6.4      0.000      0.000
REMARK  Name = 5azacytidine.pdbqt.pdb
REMARK  5 active torsions:
REMARK  status: ('A' for Active; 'I' for Inactive)
REMARK    1  A    between atoms: C2*_2  and  O2*_16
REMARK    2  A    between atoms: C3*_3  and  O3*_21
REMARK    3  A    between atoms: C4*_4  and  C5*_18
REMARK    4  A    between atoms: C1*_5  and  N_6
REMARK    5  A    between atoms: C5*_18  and  O5*_19
REMARK                            x       y       z     vdW  Elec       q    Type
REMARK                         _______ _______ _______ _____ _____    ______ ____
ROOT
ATOM      1  O4* UNL     1      37.166   2.665  14.910  0.00  0.00    +0.000 OA
ATOM      2  C2* UNL     1      37.698   0.864  13.570  0.00  0.00    +0.000 A 
ATOM      3  C3* UNL     1      38.693   1.875  13.383  0.00  0.00    +0.000 A 
ATOM      4  C4* UNL     1      38.355   2.983  14.231  0.00  0.00    +0.000 A 
ATOM      5  C1* UNL     1      36.735   1.381  14.512  0.00  0.00    +0.000 A 
ENDROOT
BRANCH   5   6
ATOM      6  N   UNL     1      35.566   0.854  14.975  0.00  0.00    +0.000 N 
ATOM      7  C   UNL     1      34.285   1.364  14.805  0.00  0.00    +0.000 A 
ATOM      8  O   UNL     1      34.045   2.417  14.218  0.00  0.00    +0.000 OA
ATOM      9  N   UNL     1      33.267   0.600  15.370  0.00  0.00    +0.000 NA
ATOM     10  C   UNL     1      33.544  -0.508  16.009  0.00  0.00    +0.000 A 
ATOM     11  N   UNL     1      34.826  -0.996  16.201  0.00  0.00    +0.000 NA
ATOM     12  C   UNL     1      35.579  -0.279  15.673  0.00  0.00    +0.000 A 
ATOM     13  N   UNL     1      32.519  -1.222  16.540  0.00  0.00    +0.000 N 
ATOM     14  H   UNL     1      32.776  -1.800  17.329  0.00  0.00    +0.000 HD
ATOM     15  H   UNL     1      31.672  -0.681  16.666  0.00  0.00    +0.000 HD
ENDBRANCH   5   6
BRANCH   2  16
ATOM     16  O2* UNL     1      37.413  -0.003  12.551  0.00  0.00    +0.000 OA
ATOM     17  H2* UNL     1      37.509  -0.940  12.829  0.00  0.00    +0.000 HD
ENDBRANCH   2  16
BRANCH   3  18
ATOM     18  O3* UNL     1      39.313   2.042  12.176  0.00  0.00    +0.000 OA
ATOM     19  H3* UNL     1      40.196   2.434  12.308  0.00  0.00    +0.000 HD
ENDBRANCH   3  18
BRANCH   4  20
ATOM     20  C5* UNL     1      38.873   4.291  14.186  0.00  0.00    +0.000 C 
BRANCH  20  21
ATOM     21  O5* UNL     1      39.355   5.529  14.151  0.00  0.00    +0.000 OA
ATOM     22  H5* UNL     1      40.282   5.517  13.856  0.00  0.00    +0.000 HD
ENDBRANCH  20  21
ENDBRANCH   4  20
TORSDOF 5
ENDMDL
MODEL 2
REMARK VINA RESULT:      -5.6     27.263     27.791
REMARK  Name = 5azacytidine.pdbqt.pdb
REMARK  5 active torsions:
REMARK  status: ('A' for Active; 'I' for Inactive)
REMARK    1  A    between atoms: C2*_2  and  O2*_16
REMARK    2  A    between atoms: C3*_3  and  O3*_21
REMARK    3  A    between atoms: C4*_4  and  C5*_18
REMARK    4  A    between atoms: C1*_5  and  N_6
REMARK    5  A    between atoms: C5*_18  and  O5*_19
REMARK                            x       y       z     vdW  Elec       q    Type
REMARK                         _______ _______ _______ _____ _____    ______ ____
ROOT
ATOM      1  O4* UNL     1      28.969  24.372  28.824  0.00  0.00    +0.000 OA
ATOM      2  C2* UNL     1      31.124  23.806  29.420  0.00  0.00    +0.000 A 
ATOM      3  C3* UNL     1      31.175  24.554  28.201  0.00  0.00    +0.000 A 
ATOM      4  C4* UNL     1      29.830  24.908  27.850  0.00  0.00    +0.000 A 
ATOM      5  C1* UNL     1      29.734  23.680  29.786  0.00  0.00    +0.000 A 
ENDROOT
BRANCH   5   6
ATOM      6  N   UNL     1      29.139  23.008  30.812  0.00  0.00    +0.000 N 
ATOM      7  C   UNL     1      27.999  22.216  30.752  0.00  0.00    +0.000 A 
ATOM      8  O   UNL     1      27.343  22.046  29.726  0.00  0.00    +0.000 OA
ATOM      9  N   UNL     1      27.625  21.629  31.958  0.00  0.00    +0.000 NA
ATOM     10  C   UNL     1      28.325  21.839  33.044  0.00  0.00    +0.000 A 
ATOM     11  N   UNL     1      29.443  22.653  33.104  0.00  0.00    +0.000 NA
ATOM     12  C   UNL     1      29.657  23.070  32.037  0.00  0.00    +0.000 A 
ATOM     13  N   UNL     1      27.925  21.242  34.196  0.00  0.00    +0.000 N 
ATOM     14  H   UNL     1      28.212  21.723  35.038  0.00  0.00    +0.000 HD
ATOM     15  H   UNL     1      26.957  20.945  34.183  0.00  0.00    +0.000 HD
ENDBRANCH   5   6
BRANCH   2  16
ATOM     16  O2* UNL     1      32.095  22.880  29.688  0.00  0.00    +0.000 OA
ATOM     17  H2* UNL     1      32.551  22.580  28.871  0.00  0.00    +0.000 HD
ENDBRANCH   2  16
BRANCH   3  18
ATOM     18  O3* UNL     1      32.135  24.306  27.260  0.00  0.00    +0.000 OA
ATOM     19  H3* UNL     1      32.842  23.756  27.645  0.00  0.00    +0.000 HD
ENDBRANCH   3  18
BRANCH   4  20
ATOM     20  C5* UNL     1      29.362  25.397  26.615  0.00  0.00    +0.000 C 
BRANCH  20  21
ATOM     21  O5* UNL     1      28.912  25.852  25.450  0.00  0.00    +0.000 OA
ATOM     22  H5* UNL     1      28.073  25.415  25.223  0.00  0.00    +0.000 HD
ENDBRANCH  20  21
ENDBRANCH   4  20
TORSDOF 5
ENDMDL
MODEL 3
REMARK VINA RESULT:      -5.2     13.095     14.878
REMARK  Name = 5azacytidine.pdbqt.pdb
REMARK  5 active torsions:
REMARK  status: ('A' for Active; 'I' for Inactive)
REMARK    1  A    between atoms: C2*_2  and  O2*_16
REMARK    2  A    between atoms: C3*_3  and  O3*_21
REMARK    3  A    between atoms: C4*_4  and  C5*_18
REMARK    4  A    between atoms: C1*_5  and  N_6
REMARK    5  A    between atoms: C5*_18  and  O5*_19
REMARK                            x       y       z     vdW  Elec       q    Type
REMARK                         _______ _______ _______ _____ _____    ______ ____
ROOT
ATOM      1  O4* UNL     1      24.331   0.940   5.473  0.00  0.00    +0.000 OA
ATOM      2  C2* UNL     1      25.061  -0.792   6.809  0.00  0.00    +0.000 A 
ATOM      3  C3* UNL     1      23.657  -0.616   7.025  0.00  0.00    +0.000 A 
ATOM      4  C4* UNL     1      23.217   0.456   6.180  0.00  0.00    +0.000 A 
ATOM      5  C1* UNL     1      25.475   0.205   5.852  0.00  0.00    +0.000 A 
ENDROOT
BRANCH   5   6
ATOM      6  N   UNL     1      26.708   0.513   5.360  0.00  0.00    +0.000 N 
ATOM      7  C   UNL     1      27.613  -0.348   4.753  0.00  0.00    +0.000 A 
ATOM      8  O   UNL     1      27.414  -1.552   4.609  0.00  0.00    +0.000 OA
ATOM      9  N   UNL     1      28.796   0.248   4.324  0.00  0.00    +0.000 NA
ATOM     10  C   UNL     1      28.999   1.529   4.505  0.00  0.00    +0.000 A 
ATOM     11  N   UNL     1      28.106   2.376   5.137  0.00  0.00    +0.000 NA
ATOM     12  C   UNL     1      27.159   1.764   5.434  0.00  0.00    +0.000 A 
ATOM     13  N   UNL     1      30.165   2.067   4.066  0.00  0.00    +0.000 N 
ATOM     14  H   UNL     1      30.453   2.902   4.560  0.00  0.00    +0.000 HD
ATOM     15  H   UNL     1      30.899   1.383   3.923  0.00  0.00    +0.000 HD
ENDBRANCH   5   6
BRANCH   2  16
ATOM     16  O2* UNL     1      25.844  -1.288   7.815  0.00  0.00    +0.000 OA
ATOM     17  H2* UNL     1      26.514  -1.923   7.480  0.00  0.00    +0.000 HD
ENDBRANCH   2  16
BRANCH   3  18
ATOM     18  O3* UNL     1      23.094  -0.862   8.247  0.00  0.00    +0.000 OA
ATOM     19  H3* UNL     1      22.857  -1.806   8.318  0.00  0.00    +0.000 HD
ENDBRANCH   3  18
BRANCH   4  20
ATOM     20  C5* UNL     1      21.999   1.160   6.245  0.00  0.00    +0.000 C 
BRANCH  20  21
ATOM     21  O5* UNL     1      20.847   1.820   6.315  0.00  0.00    +0.000 OA
ATOM     22  H5* UNL     1      20.985   2.756   6.090  0.00  0.00    +0.000 HD
ENDBRANCH  20  21
ENDBRANCH   4  20
TORSDOF 5
ENDMDL
MODEL 4
REMARK VINA RESULT:      -5.0     25.964     27.261
REMARK  Name = 5azacytidine.pdbqt.pdb
REMARK  5 active torsions:
REMARK  status: ('A' for Active; 'I' for Inactive)
REMARK    1  A    between atoms: C2*_2  and  O2*_16
REMARK    2  A    between atoms: C3*_3  and  O3*_21
REMARK    3  A    between atoms: C4*_4  and  C5*_18
REMARK    4  A    between atoms: C1*_5  and  N_6
REMARK    5  A    between atoms: C5*_18  and  O5*_19
REMARK                            x       y       z     vdW  Elec       q    Type
REMARK                         _______ _______ _______ _____ _____    ______ ____
ROOT
ATOM      1  O4* UNL     1      49.911 -15.660  31.297  0.00  0.00    +0.000 OA
ATOM      2  C2* UNL     1      47.723 -15.511  32.011  0.00  0.00    +0.000 A 
ATOM      3  C3* UNL     1      47.906 -16.782  31.379  0.00  0.00    +0.000 A 
ATOM      4  C4* UNL     1      49.273 -16.863  30.950  0.00  0.00    +0.000 A 
ATOM      5  C1* UNL     1      48.982 -14.809  31.932  0.00  0.00    +0.000 A 
ENDROOT
BRANCH   5   6
ATOM      6  N   UNL     1      49.326 -13.547  32.315  0.00  0.00    +0.000 N 
ATOM      7  C   UNL     1      49.509 -13.080  33.611  0.00  0.00    +0.000 A 
ATOM      8  O   UNL     1      49.343 -13.772  34.613  0.00  0.00    +0.000 OA
ATOM      9  N   UNL     1      49.882 -11.742  33.706  0.00  0.00    +0.000 NA
ATOM     10  C   UNL     1      50.034 -11.015  32.628  0.00  0.00    +0.000 A 
ATOM     11  N   UNL     1      49.821 -11.479  31.341  0.00  0.00    +0.000 NA
ATOM     12  C   UNL     1      49.529 -12.606  31.396  0.00  0.00    +0.000 A 
ATOM     13  N   UNL     1      50.403  -9.716  32.770  0.00  0.00    +0.000 N 
ATOM     14  H   UNL     1      50.120  -9.115  32.008  0.00  0.00    +0.000 HD
ATOM     15  H   UNL     1      50.225  -9.344  33.695  0.00  0.00    +0.000 HD
ENDBRANCH   5   6
BRANCH   2  16
ATOM     16  O2* UNL     1      46.491 -14.918  31.997  0.00  0.00    +0.000 OA
ATOM     17  H2* UNL     1      46.353 -14.339  32.778  0.00  0.00    +0.000 HD
ENDBRANCH   2  16
BRANCH   3  18
ATOM     18  O3* UNL     1      46.888 -17.382  30.691  0.00  0.00    +0.000 OA
ATOM     19  H3* UNL     1      46.187 -16.730  30.503  0.00  0.00    +0.000 HD
ENDBRANCH   3  18
BRANCH   4  20
ATOM     20  C5* UNL     1      49.842 -17.790  30.055  0.00  0.00    +0.000 C 
BRANCH  20  21
ATOM     21  O5* UNL     1      50.376 -18.658  29.202  0.00  0.00    +0.000 OA
ATOM     22  H5* UNL     1      51.310 -18.812  29.426  0.00  0.00    +0.000 HD
ENDBRANCH  20  21
ENDBRANCH   4  20
TORSDOF 5
ENDMDL
MODEL 5
REMARK VINA RESULT:      -5.0     35.243     35.936
REMARK  Name = 5azacytidine.pdbqt.pdb
REMARK  5 active torsions:
REMARK  status: ('A' for Active; 'I' for Inactive)
REMARK    1  A    between atoms: C2*_2  and  O2*_16
REMARK    2  A    between atoms: C3*_3  and  O3*_21
REMARK    3  A    between atoms: C4*_4  and  C5*_18
REMARK    4  A    between atoms: C1*_5  and  N_6
REMARK    5  A    between atoms: C5*_18  and  O5*_19
REMARK                            x       y       z     vdW  Elec       q    Type
REMARK                         _______ _______ _______ _____ _____    ______ ____
ROOT
ATOM      1  O4* UNL     1      38.345  14.064  48.421  0.00  0.00    +0.000 OA
ATOM      2  C2* UNL     1      38.614  12.185  47.111  0.00  0.00    +0.000 A 
ATOM      3  C3* UNL     1      39.100  13.317  46.382  0.00  0.00    +0.000 A 
ATOM      4  C4* UNL     1      38.936  14.475  47.214  0.00  0.00    +0.000 A 
ATOM      5  C1* UNL     1      38.123  12.671  48.378  0.00  0.00    +0.000 A 
ENDROOT
BRANCH   5   6
ATOM      6  N   UNL     1      37.500  12.023  49.402  0.00  0.00    +0.000 N 
ATOM      7  C   UNL     1      36.257  11.402  49.375  0.00  0.00    +0.000 A 
ATOM      8  O   UNL     1      35.524  11.392  48.388  0.00  0.00    +0.000 OA
ATOM      9  N   UNL     1      35.876  10.795  50.569  0.00  0.00    +0.000 NA
ATOM     10  C   UNL     1      36.662  10.834  51.615  0.00  0.00    +0.000 A 
ATOM     11  N   UNL     1      37.886  11.479  51.644  0.00  0.00    +0.000 NA
ATOM     12  C   UNL     1      38.093  11.932  50.590  0.00  0.00    +0.000 A 
ATOM     13  N   UNL     1      36.250  10.225  52.755  0.00  0.00    +0.000 N 
ATOM     14  H   UNL     1      36.652  10.605  53.602  0.00  0.00    +0.000 HD
ATOM     15  H   UNL     1      35.250  10.066  52.792  0.00  0.00    +0.000 HD
ENDBRANCH   5   6
BRANCH   2  16
ATOM     16  O2* UNL     1      38.112  11.108  46.434  0.00  0.00    +0.000 OA
ATOM     17  H2* UNL     1      38.399  10.257  46.833  0.00  0.00    +0.000 HD
ENDBRANCH   2  16
BRANCH   3  18
ATOM     18  O3* UNL     1      38.999  13.375  45.020  0.00  0.00    +0.000 OA
ATOM     19  H3* UNL     1      38.071  13.244  44.751  0.00  0.00    +0.000 HD
ENDBRANCH   3  18
BRANCH   4  20
ATOM     20  C5* UNL     1      39.012  15.827  46.831  0.00  0.00    +0.000 C 
BRANCH  20  21
ATOM     21  O5* UNL     1      39.075  17.104  46.467  0.00  0.00    +0.000 OA
ATOM     22  H5* UNL     1      38.350  17.311  45.852  0.00  0.00    +0.000 HD
ENDBRANCH  20  21
ENDBRANCH   4  20
TORSDOF 5
ENDMDL
MODEL 6
REMARK VINA RESULT:      -4.9     35.579     36.469
REMARK  Name = 5azacytidine.pdbqt.pdb
REMARK  5 active torsions:
REMARK  status: ('A' for Active; 'I' for Inactive)
REMARK    1  A    between atoms: C2*_2  and  O2*_16
REMARK    2  A    between atoms: C3*_3  and  O3*_21
REMARK    3  A    between atoms: C4*_4  and  C5*_18
REMARK    4  A    between atoms: C1*_5  and  N_6
REMARK    5  A    between atoms: C5*_18  and  O5*_19
REMARK                            x       y       z     vdW  Elec       q    Type
REMARK                         _______ _______ _______ _____ _____    ______ ____
ROOT
ATOM      1  O4* UNL     1      38.079  12.112  50.356  0.00  0.00    +0.000 OA
ATOM      2  C2* UNL     1      36.048  11.979  49.270  0.00  0.00    +0.000 A 
ATOM      3  C3* UNL     1      35.911  11.374  50.560  0.00  0.00    +0.000 A 
ATOM      4  C4* UNL     1      37.177  11.474  51.226  0.00  0.00    +0.000 A 
ATOM      5  C1* UNL     1      37.418  12.416  49.147  0.00  0.00    +0.000 A 
ENDROOT
BRANCH   5   6
ATOM      6  N   UNL     1      38.083  12.983  48.101  0.00  0.00    +0.000 N 
ATOM      7  C   UNL     1      38.311  12.430  46.847  0.00  0.00    +0.000 A 
ATOM      8  O   UNL     1      37.951  11.299  46.527  0.00  0.00    +0.000 OA
ATOM      9  N   UNL     1      39.005  13.248  45.960  0.00  0.00    +0.000 NA
ATOM     10  C   UNL     1      39.399  14.442  46.325  0.00  0.00    +0.000 A 
ATOM     11  N   UNL     1      39.195  14.976  47.586  0.00  0.00    +0.000 NA
ATOM     12  C   UNL     1      38.597  14.205  48.224  0.00  0.00    +0.000 A 
ATOM     13  N   UNL     1      40.069  15.205  45.425  0.00  0.00    +0.000 N 
ATOM     14  H   UNL     1      40.683  15.896  45.837  0.00  0.00    +0.000 HD
ATOM     15  H   UNL     1      40.475  14.672  44.665  0.00  0.00    +0.000 HD
ENDBRANCH   5   6
BRANCH   2  16
ATOM     16  O2* UNL     1      35.264  11.552  48.234  0.00  0.00    +0.000 OA
ATOM     17  H2* UNL     1      34.522  10.987  48.544  0.00  0.00    +0.000 HD
ENDBRANCH   2  16
BRANCH   3  18
ATOM     18  O3* UNL     1      35.062  10.321  50.759  0.00  0.00    +0.000 OA
ATOM     19  H3* UNL     1      35.572   9.525  50.999  0.00  0.00    +0.000 HD
ENDBRANCH   3  18
BRANCH   4  20
ATOM     20  C5* UNL     1      37.599  10.791  52.383  0.00  0.00    +0.000 C 
BRANCH  20  21
ATOM     21  O5* UNL     1      38.001  10.155  53.478  0.00  0.00    +0.000 OA
ATOM     22  H5* UNL     1      37.833  10.705  54.263  0.00  0.00    +0.000 HD
ENDBRANCH  20  21
ENDBRANCH   4  20
TORSDOF 5
ENDMDL
MODEL 7
REMARK VINA RESULT:      -4.9     19.606     21.625
REMARK  Name = 5azacytidine.pdbqt.pdb
REMARK  5 active torsions:
REMARK  status: ('A' for Active; 'I' for Inactive)
REMARK    1  A    between atoms: C2*_2  and  O2*_16
REMARK    2  A    between atoms: C3*_3  and  O3*_21
REMARK    3  A    between atoms: C4*_4  and  C5*_18
REMARK    4  A    between atoms: C1*_5  and  N_6
REMARK    5  A    between atoms: C5*_18  and  O5*_19
REMARK                            x       y       z     vdW  Elec       q    Type
REMARK                         _______ _______ _______ _____ _____    ______ ____
ROOT
ATOM      1  O4* UNL     1      22.598 -12.354   5.793  0.00  0.00    +0.000 OA
ATOM      2  C2* UNL     1      24.678 -11.359   5.725  0.00  0.00    +0.000 A 
ATOM      3  C3* UNL     1      24.052 -11.015   6.966  0.00  0.00    +0.000 A 
ATOM      4  C4* UNL     1      22.766 -11.649   6.997  0.00  0.00    +0.000 A 
ATOM      5  C1* UNL     1      23.746 -12.180   4.990  0.00  0.00    +0.000 A 
ENDROOT
BRANCH   5   6
ATOM      6  N   UNL     1      23.818 -12.709   3.736  0.00  0.00    +0.000 N 
ATOM      7  C   UNL     1      23.152 -12.272   2.597  0.00  0.00    +0.000 A 
ATOM      8  O   UNL     1      22.358 -11.335   2.592  0.00  0.00    +0.000 OA
ATOM      9  N   UNL     1      23.433 -12.992   1.439  0.00  0.00    +0.000 NA
ATOM     10  C   UNL     1      24.267 -14.001   1.469  0.00  0.00    +0.000 A 
ATOM     11  N   UNL     1      24.904 -14.449   2.612  0.00  0.00    +0.000 NA
ATOM     12  C   UNL     1      24.598 -13.761   3.503  0.00  0.00    +0.000 A 
ATOM     13  N   UNL     1      24.513 -14.670   0.314  0.00  0.00    +0.000 N 
ATOM     14  H   UNL     1      24.806 -15.629   0.440  0.00  0.00    +0.000 HD
ATOM     15  H   UNL     1      23.802 -14.531  -0.394  0.00  0.00    +0.000 HD
ENDBRANCH   5   6
BRANCH   2  16
ATOM     16  O2* UNL     1      25.584 -10.504   5.163  0.00  0.00    +0.000 OA
ATOM     17  H2* UNL     1      25.512  -9.597   5.533  0.00  0.00    +0.000 HD
ENDBRANCH   2  16
BRANCH   3  18
ATOM     18  O3* UNL     1      24.286  -9.807   7.563  0.00  0.00    +0.000 OA
ATOM     19  H3* UNL     1      23.544  -9.200   7.383  0.00  0.00    +0.000 HD
ENDBRANCH   3  18
BRANCH   4  20
ATOM     20  C5* UNL     1      21.696 -11.384   7.873  0.00  0.00    +0.000 C 
BRANCH  20  21
ATOM     21  O5* UNL     1      20.688 -11.124   8.700  0.00  0.00    +0.000 OA
ATOM     22  H5* UNL     1      20.140 -11.920   8.817  0.00  0.00    +0.000 HD
ENDBRANCH  20  21
ENDBRANCH   4  20
TORSDOF 5
ENDMDL
MODEL 8
REMARK VINA RESULT:      -4.6     31.153     32.321
REMARK  Name = 5azacytidine.pdbqt.pdb
REMARK  5 active torsions:
REMARK  status: ('A' for Active; 'I' for Inactive)
REMARK    1  A    between atoms: C2*_2  and  O2*_16
REMARK    2  A    between atoms: C3*_3  and  O3*_21
REMARK    3  A    between atoms: C4*_4  and  C5*_18
REMARK    4  A    between atoms: C1*_5  and  N_6
REMARK    5  A    between atoms: C5*_18  and  O5*_19
REMARK                            x       y       z     vdW  Elec       q    Type
REMARK                         _______ _______ _______ _____ _____    ______ ____
ROOT
ATOM      1  O4* UNL     1      44.700  -3.938  44.253  0.00  0.00    +0.000 OA
ATOM      2  C2* UNL     1      43.448  -3.561  46.153  0.00  0.00    +0.000 A 
ATOM      3  C3* UNL     1      43.139  -4.869  45.661  0.00  0.00    +0.000 A 
ATOM      4  C4* UNL     1      43.932  -5.092  44.487  0.00  0.00    +0.000 A 
ATOM      5  C1* UNL     1      44.410  -2.980  45.248  0.00  0.00    +0.000 A 
ENDROOT
BRANCH   5   6
ATOM      6  N   UNL     1      44.974  -1.740  45.220  0.00  0.00    +0.000 N 
ATOM      7  C   UNL     1      44.322  -0.521  45.080  0.00  0.00    +0.000 A 
ATOM      8  O   UNL     1      43.108  -0.413  44.925  0.00  0.00    +0.000 OA
ATOM      9  N   UNL     1      45.152   0.597  45.107  0.00  0.00    +0.000 NA
ATOM     10  C   UNL     1      46.446   0.461  45.253  0.00  0.00    +0.000 A 
ATOM     11  N   UNL     1      47.092  -0.758  45.362  0.00  0.00    +0.000 NA
ATOM     12  C   UNL     1      46.293  -1.606  45.339  0.00  0.00    +0.000 A 
ATOM     13  N   UNL     1      47.214   1.580  45.278  0.00  0.00    +0.000 N 
ATOM     14  H   UNL     1      48.172   1.436  44.986  0.00  0.00    +0.000 HD
ATOM     15  H   UNL     1      46.763   2.391  44.872  0.00  0.00    +0.000 HD
ENDBRANCH   5   6
BRANCH   2  16
ATOM     16  O2* UNL     1      42.505  -2.860  46.853  0.00  0.00    +0.000 OA
ATOM     17  H2* UNL     1      42.716  -1.901  46.894  0.00  0.00    +0.000 HD
ENDBRANCH   2  16
BRANCH   3  18
ATOM     18  O3* UNL     1      41.888  -5.402  45.811  0.00  0.00    +0.000 OA
ATOM     19  H3* UNL     1      41.830  -5.874  46.662  0.00  0.00    +0.000 HD
ENDBRANCH   3  18
BRANCH   4  20
ATOM     20  C5* UNL     1      43.774  -6.103  43.520  0.00  0.00    +0.000 C 
BRANCH  20  21
ATOM     21  O5* UNL     1      43.624  -7.051  42.600  0.00  0.00    +0.000 OA
ATOM     22  H5* UNL     1      43.364  -6.653  41.751  0.00  0.00    +0.000 HD
ENDBRANCH  20  21
ENDBRANCH   4  20
TORSDOF 5
ENDMDL
MODEL 9
REMARK VINA RESULT:      -4.6     36.248     37.120
REMARK  Name = 5azacytidine.pdbqt.pdb
REMARK  5 active torsions:
REMARK  status: ('A' for Active; 'I' for Inactive)
REMARK    1  A    between atoms: C2*_2  and  O2*_16
REMARK    2  A    between atoms: C3*_3  and  O3*_21
REMARK    3  A    between atoms: C4*_4  and  C5*_18
REMARK    4  A    between atoms: C1*_5  and  N_6
REMARK    5  A    between atoms: C5*_18  and  O5*_19
REMARK                            x       y       z     vdW  Elec       q    Type
REMARK                         _______ _______ _______ _____ _____    ______ ____
ROOT
ATOM      1  O4* UNL     1      38.625  11.527  51.104  0.00  0.00    +0.000 OA
ATOM      2  C2* UNL     1      36.392  11.409  50.538  0.00  0.00    +0.000 A 
ATOM      3  C3* UNL     1      36.562  10.822  51.832  0.00  0.00    +0.000 A 
ATOM      4  C4* UNL     1      37.952  10.913  52.174  0.00  0.00    +0.000 A 
ATOM      5  C1* UNL     1      37.696  11.826  50.084  0.00  0.00    +0.000 A 
ENDROOT
BRANCH   5   6
ATOM      6  N   UNL     1      38.098  12.371  48.900  0.00  0.00    +0.000 N 
ATOM      7  C   UNL     1      38.527  13.673  48.674  0.00  0.00    +0.000 A 
ATOM      8  O   UNL     1      38.566  14.537  49.548  0.00  0.00    +0.000 OA
ATOM      9  N   UNL     1      38.900  13.950  47.362  0.00  0.00    +0.000 NA
ATOM     10  C   UNL     1      38.831  13.022  46.441  0.00  0.00    +0.000 A 
ATOM     11  N   UNL     1      38.375  11.735  46.666  0.00  0.00    +0.000 NA
ATOM     12  C   UNL     1      38.109  11.628  47.796  0.00  0.00    +0.000 A 
ATOM     13  N   UNL     1      39.209  13.338  45.176  0.00  0.00    +0.000 N 
ATOM     14  H   UNL     1      38.778  12.772  44.457  0.00  0.00    +0.000 HD
ATOM     15  H   UNL     1      39.213  14.334  44.991  0.00  0.00    +0.000 HD
ENDBRANCH   5   6
BRANCH   2  16
ATOM     16  O2* UNL     1      35.377  10.980  49.727  0.00  0.00    +0.000 OA
ATOM     17  H2* UNL     1      35.040  11.699  49.150  0.00  0.00    +0.000 HD
ENDBRANCH   2  16
BRANCH   3  18
ATOM     18  O3* UNL     1      35.774   9.783  52.245  0.00  0.00    +0.000 OA
ATOM     19  H3* UNL     1      35.034   9.660  51.622  0.00  0.00    +0.000 HD
ENDBRANCH   3  18
BRANCH   4  20
ATOM     20  C5* UNL     1      38.632  10.238  53.206  0.00  0.00    +0.000 C 
BRANCH  20  21
ATOM     21  O5* UNL     1      39.272   9.592  54.175  0.00  0.00    +0.000 OA
ATOM     22  H5* UNL     1      40.114   9.238  53.839  0.00  0.00    +0.000 HD
ENDBRANCH  20  21
ENDBRANCH   4  20
TORSDOF 5
ENDMDL
