MODEL 1
REMARK VINA RESULT:      -7.3      0.000      0.000
REMARK  Name = 60953_Capecitabine.pdbqt.pdb
REMARK  6 active torsions:
REMARK  status: ('A' for Active; 'I' for Inactive)
REMARK    1  A    between atoms: N_4  and  C_16
REMARK    2  A    between atoms: C_11  and  O_23
REMARK    3  A    between atoms: C_14  and  O_19
REMARK    4  A    between atoms: C_15  and  O_21
REMARK    5  A    between atoms: O_23  and  C_24
REMARK    6  A    between atoms: C_25  and  C_26
REMARK                            x       y       z     vdW  Elec       q    Type
REMARK                         _______ _______ _______ _____ _____    ______ ____
ROOT
ATOM      1  F   UNL     1      39.831   1.447  12.557  0.00  0.00    +0.000 F 
ATOM      2  O   UNL     1      34.649   0.862  13.787  0.00  0.00    +0.000 OA
ATOM      3  O   UNL     1      36.313  -0.600   9.670  0.00  0.00    +0.000 OA
ATOM      4  N   UNL     1      36.715   1.779  14.325  0.00  0.00    +0.000 N 
ATOM      5  N   UNL     1      36.319   0.676  12.232  0.00  0.00    +0.000 NA
ATOM      6  N   UNL     1      38.098   0.481  10.700  0.00  0.00    +0.000 N 
ATOM      7  C   UNL     1      37.963   1.977  13.855  0.00  0.00    +0.000 C 
ATOM      8  C   UNL     1      35.813   1.097  13.469  0.00  0.00    +0.000 C 
ATOM      9  C   UNL     1      38.520   1.686  12.732  0.00  0.00    +0.000 C 
ATOM     10  C   UNL     1      37.550   0.917  11.888  0.00  0.00    +0.000 C 
ATOM     11  C   UNL     1      37.482  -0.245   9.705  0.00  0.00    +0.000 C 
ATOM     12  H   UNL     1      39.073   0.678  10.520  0.00  0.00    +0.000 HD
ENDROOT
BRANCH   4  16
ATOM     13  O   UNL     1      37.188   3.295  16.152  0.00  0.00    +0.000 OA
ATOM     14  C   UNL     1      35.392   1.896  16.521  0.00  0.00    +0.000 A 
ATOM     15  C   UNL     1      35.595   2.687  17.697  0.00  0.00    +0.000 A 
ATOM     16  C   UNL     1      36.413   2.268  15.570  0.00  0.00    +0.000 A 
ATOM     17  C   UNL     1      36.708   3.560  17.445  0.00  0.00    +0.000 A 
ATOM     18  C   UNL     1      37.511   4.410  18.369  0.00  0.00    +0.000 C 
BRANCH  14  19
ATOM     19  O   UNL     1      34.835   0.654  16.635  0.00  0.00    +0.000 OA
ATOM     20  H   UNL     1      34.031   0.555  16.077  0.00  0.00    +0.000 HD
ENDBRANCH  14  19
BRANCH  15  21
ATOM     21  O   UNL     1      35.276   2.202  18.938  0.00  0.00    +0.000 OA
ATOM     22  H   UNL     1      35.047   2.935  19.541  0.00  0.00    +0.000 HD
ENDBRANCH  15  21
ENDBRANCH   4  16
BRANCH  11  23
ATOM     23  O   UNL     1      38.400  -0.502   8.726  0.00  0.00    +0.000 OA
BRANCH  23  24
ATOM     24  C   UNL     1      39.529  -1.082   9.129  0.00  0.00    +0.000 C 
ATOM     25  C   UNL     1      40.827  -1.753   9.592  0.00  0.00    +0.000 C 
BRANCH  25  26
ATOM     26  C   UNL     1      42.123  -2.425  10.054  0.00  0.00    +0.000 C 
ATOM     27  C   UNL     1      43.415  -3.100  10.522  0.00  0.00    +0.000 C 
ATOM     28  C   UNL     1      44.701  -3.786  10.994  0.00  0.00    +0.000 C 
ENDBRANCH  25  26
ENDBRANCH  23  24
ENDBRANCH  11  23
TORSDOF 6
ENDMDL
MODEL 2
REMARK VINA RESULT:      -7.3      4.843      6.439
REMARK  Name = 60953_Capecitabine.pdbqt.pdb
REMARK  6 active torsions:
REMARK  status: ('A' for Active; 'I' for Inactive)
REMARK    1  A    between atoms: N_4  and  C_16
REMARK    2  A    between atoms: C_11  and  O_23
REMARK    3  A    between atoms: C_14  and  O_19
REMARK    4  A    between atoms: C_15  and  O_21
REMARK    5  A    between atoms: O_23  and  C_24
REMARK    6  A    between atoms: C_25  and  C_26
REMARK                            x       y       z     vdW  Elec       q    Type
REMARK                         _______ _______ _______ _____ _____    ______ ____
ROOT
ATOM      1  F   UNL     1      39.802   3.649  14.225  0.00  0.00    +0.000 F 
ATOM      2  O   UNL     1      36.584   0.275  11.586  0.00  0.00    +0.000 OA
ATOM      3  O   UNL     1      38.872   3.666   9.323  0.00  0.00    +0.000 OA
ATOM      4  N   UNL     1      37.357   1.079  13.624  0.00  0.00    +0.000 N 
ATOM      5  N   UNL     1      37.912   2.140  11.545  0.00  0.00    +0.000 NA
ATOM      6  N   UNL     1      39.323   4.027  11.577  0.00  0.00    +0.000 N 
ATOM      7  C   UNL     1      38.095   2.056  14.189  0.00  0.00    +0.000 C 
ATOM      8  C   UNL     1      37.234   1.111  12.211  0.00  0.00    +0.000 C 
ATOM      9  C   UNL     1      38.713   3.069  13.691  0.00  0.00    +0.000 C 
ATOM     10  C   UNL     1      38.604   3.026  12.198  0.00  0.00    +0.000 C 
ATOM     11  C   UNL     1      39.432   4.270  10.226  0.00  0.00    +0.000 C 
ATOM     12  H   UNL     1      39.864   4.657  12.152  0.00  0.00    +0.000 HD
ENDROOT
BRANCH   4  16
ATOM     13  O   UNL     1      35.685   0.513  15.280  0.00  0.00    +0.000 OA
ATOM     14  C   UNL     1      37.082  -1.231  14.709  0.00  0.00    +0.000 A 
ATOM     15  C   UNL     1      36.193  -1.684  15.734  0.00  0.00    +0.000 A 
ATOM     16  C   UNL     1      36.772   0.157  14.452  0.00  0.00    +0.000 A 
ATOM     17  C   UNL     1      35.322  -0.591  16.068  0.00  0.00    +0.000 A 
ATOM     18  C   UNL     1      34.383  -0.405  17.210  0.00  0.00    +0.000 C 
BRANCH  14  19
ATOM     19  O   UNL     1      38.321  -1.795  14.596  0.00  0.00    +0.000 OA
ATOM     20  H   UNL     1      38.477  -2.488  15.277  0.00  0.00    +0.000 HD
ENDBRANCH  14  19
BRANCH  15  21
ATOM     21  O   UNL     1      36.578  -2.649  16.627  0.00  0.00    +0.000 OA
ATOM     22  H   UNL     1      35.973  -2.664  17.394  0.00  0.00    +0.000 HD
ENDBRANCH  15  21
ENDBRANCH   4  16
BRANCH  11  23
ATOM     23  O   UNL     1      40.276   5.330  10.045  0.00  0.00    +0.000 OA
BRANCH  23  24
ATOM     24  C   UNL     1      39.938   6.180   9.078  0.00  0.00    +0.000 C 
ATOM     25  C   UNL     1      39.552   7.159   7.964  0.00  0.00    +0.000 C 
BRANCH  25  26
ATOM     26  C   UNL     1      39.168   8.137   6.851  0.00  0.00    +0.000 C 
ATOM     27  C   UNL     1      38.791   9.119   5.737  0.00  0.00    +0.000 C 
ATOM     28  C   UNL     1      38.426  10.101   4.619  0.00  0.00    +0.000 C 
ENDBRANCH  25  26
ENDBRANCH  23  24
ENDBRANCH  11  23
TORSDOF 6
ENDMDL
MODEL 3
REMARK VINA RESULT:      -7.2      4.617      6.229
REMARK  Name = 60953_Capecitabine.pdbqt.pdb
REMARK  6 active torsions:
REMARK  status: ('A' for Active; 'I' for Inactive)
REMARK    1  A    between atoms: N_4  and  C_16
REMARK    2  A    between atoms: C_11  and  O_23
REMARK    3  A    between atoms: C_14  and  O_19
REMARK    4  A    between atoms: C_15  and  O_21
REMARK    5  A    between atoms: O_23  and  C_24
REMARK    6  A    between atoms: C_25  and  C_26
REMARK                            x       y       z     vdW  Elec       q    Type
REMARK                         _______ _______ _______ _____ _____    ______ ____
ROOT
ATOM      1  F   UNL     1      38.745   4.632  15.174  0.00  0.00    +0.000 F 
ATOM      2  O   UNL     1      36.292   0.618  12.610  0.00  0.00    +0.000 OA
ATOM      3  O   UNL     1      38.966   3.667  10.284  0.00  0.00    +0.000 OA
ATOM      4  N   UNL     1      36.558   1.840  14.568  0.00  0.00    +0.000 N 
ATOM      5  N   UNL     1      37.554   2.525  12.495  0.00  0.00    +0.000 NA
ATOM      6  N   UNL     1      38.879   4.473  12.465  0.00  0.00    +0.000 N 
ATOM      7  C   UNL     1      37.126   2.952  15.077  0.00  0.00    +0.000 C 
ATOM      8  C   UNL     1      36.763   1.597  13.185  0.00  0.00    +0.000 C 
ATOM      9  C   UNL     1      37.820   3.891  14.538  0.00  0.00    +0.000 C 
ATOM     10  C   UNL     1      38.058   3.562  13.097  0.00  0.00    +0.000 C 
ATOM     11  C   UNL     1      39.291   4.464  11.150  0.00  0.00    +0.000 C 
ATOM     12  H   UNL     1      39.260   5.234  13.009  0.00  0.00    +0.000 HD
ENDROOT
BRANCH   4  16
ATOM     13  O   UNL     1      36.343  -0.155  15.922  0.00  0.00    +0.000 OA
ATOM     14  C   UNL     1      34.471   1.192  15.913  0.00  0.00    +0.000 A 
ATOM     15  C   UNL     1      34.184   0.027  16.694  0.00  0.00    +0.000 A 
ATOM     16  C   UNL     1      35.819   1.053  15.411  0.00  0.00    +0.000 A 
ATOM     17  C   UNL     1      35.365  -0.793  16.700  0.00  0.00    +0.000 A 
ATOM     18  C   UNL     1      35.570  -2.204  17.132  0.00  0.00    +0.000 C 
BRANCH  14  19
ATOM     19  O   UNL     1      33.453   1.836  15.269  0.00  0.00    +0.000 OA
ATOM     20  H   UNL     1      33.121   2.608  15.780  0.00  0.00    +0.000 HD
ENDBRANCH  14  19
BRANCH  15  21
ATOM     21  O   UNL     1      32.912  -0.473  16.776  0.00  0.00    +0.000 OA
ATOM     22  H   UNL     1      32.718  -0.766  17.687  0.00  0.00    +0.000 HD
ENDBRANCH  15  21
ENDBRANCH   4  16
BRANCH  11  23
ATOM     23  O   UNL     1      40.131   5.524  10.954  0.00  0.00    +0.000 OA
BRANCH  23  24
ATOM     24  C   UNL     1      39.907   6.245   9.858  0.00  0.00    +0.000 C 
ATOM     25  C   UNL     1      39.648   7.076   8.596  0.00  0.00    +0.000 C 
BRANCH  25  26
ATOM     26  C   UNL     1      39.388   7.907   7.337  0.00  0.00    +0.000 C 
ATOM     27  C   UNL     1      39.130   8.732   6.073  0.00  0.00    +0.000 C 
ATOM     28  C   UNL     1      38.872   9.547   4.801  0.00  0.00    +0.000 C 
ENDBRANCH  25  26
ENDBRANCH  23  24
ENDBRANCH  11  23
TORSDOF 6
ENDMDL
MODEL 4
REMARK VINA RESULT:      -6.9      4.208      5.414
REMARK  Name = 60953_Capecitabine.pdbqt.pdb
REMARK  6 active torsions:
REMARK  status: ('A' for Active; 'I' for Inactive)
REMARK    1  A    between atoms: N_4  and  C_16
REMARK    2  A    between atoms: C_11  and  O_23
REMARK    3  A    between atoms: C_14  and  O_19
REMARK    4  A    between atoms: C_15  and  O_21
REMARK    5  A    between atoms: O_23  and  C_24
REMARK    6  A    between atoms: C_25  and  C_26
REMARK                            x       y       z     vdW  Elec       q    Type
REMARK                         _______ _______ _______ _____ _____    ______ ____
ROOT
ATOM      1  F   UNL     1      38.871   4.488  14.695  0.00  0.00    +0.000 F 
ATOM      2  O   UNL     1      35.939   0.590  12.481  0.00  0.00    +0.000 OA
ATOM      3  O   UNL     1      38.485   3.474   9.825  0.00  0.00    +0.000 OA
ATOM      4  N   UNL     1      36.489   1.811  14.379  0.00  0.00    +0.000 N 
ATOM      5  N   UNL     1      37.276   2.426  12.197  0.00  0.00    +0.000 NA
ATOM      6  N   UNL     1      38.688   4.301  11.990  0.00  0.00    +0.000 N 
ATOM      7  C   UNL     1      37.167   2.896  14.805  0.00  0.00    +0.000 C 
ATOM      8  C   UNL     1      36.522   1.547  12.986  0.00  0.00    +0.000 C 
ATOM      9  C   UNL     1      37.844   3.793  14.178  0.00  0.00    +0.000 C 
ATOM     10  C   UNL     1      37.899   3.439  12.724  0.00  0.00    +0.000 C 
ATOM     11  C   UNL     1      38.946   4.260  10.638  0.00  0.00    +0.000 C 
ATOM     12  H   UNL     1      39.168   5.045  12.477  0.00  0.00    +0.000 HD
ENDROOT
BRANCH   4  16
ATOM     13  O   UNL     1      36.397  -0.075  15.894  0.00  0.00    +0.000 OA
ATOM     14  C   UNL     1      34.479   1.206  15.856  0.00  0.00    +0.000 A 
ATOM     15  C   UNL     1      34.264   0.100  16.738  0.00  0.00    +0.000 A 
ATOM     16  C   UNL     1      35.811   1.071  15.312  0.00  0.00    +0.000 A 
ATOM     17  C   UNL     1      35.472  -0.679  16.760  0.00  0.00    +0.000 A 
ATOM     18  C   UNL     1      35.744  -2.043  17.293  0.00  0.00    +0.000 C 
BRANCH  14  19
ATOM     19  O   UNL     1      33.415   1.763  15.206  0.00  0.00    +0.000 OA
ATOM     20  H   UNL     1      32.583   1.262  15.358  0.00  0.00    +0.000 HD
ENDBRANCH  14  19
BRANCH  15  21
ATOM     21  O   UNL     1      33.014  -0.433  16.911  0.00  0.00    +0.000 OA
ATOM     22  H   UNL     1      32.778  -1.002  16.154  0.00  0.00    +0.000 HD
ENDBRANCH  15  21
ENDBRANCH   4  16
BRANCH  11  23
ATOM     23  O   UNL     1      39.812   5.273  10.334  0.00  0.00    +0.000 OA
BRANCH  23  24
ATOM     24  C   UNL     1      40.627   5.652  11.316  0.00  0.00    +0.000 C 
ATOM     25  C   UNL     1      41.567   6.088  12.445  0.00  0.00    +0.000 C 
BRANCH  25  26
ATOM     26  C   UNL     1      42.508   6.521  13.573  0.00  0.00    +0.000 C 
ATOM     27  C   UNL     1      43.442   6.959  14.704  0.00  0.00    +0.000 C 
ATOM     28  C   UNL     1      44.368   7.400  15.843  0.00  0.00    +0.000 C 
ENDBRANCH  25  26
ENDBRANCH  23  24
ENDBRANCH  11  23
TORSDOF 6
ENDMDL
MODEL 5
REMARK VINA RESULT:      -6.9      3.247      8.592
REMARK  Name = 60953_Capecitabine.pdbqt.pdb
REMARK  6 active torsions:
REMARK  status: ('A' for Active; 'I' for Inactive)
REMARK    1  A    between atoms: N_4  and  C_16
REMARK    2  A    between atoms: C_11  and  O_23
REMARK    3  A    between atoms: C_14  and  O_19
REMARK    4  A    between atoms: C_15  and  O_21
REMARK    5  A    between atoms: O_23  and  C_24
REMARK    6  A    between atoms: C_25  and  C_26
REMARK                            x       y       z     vdW  Elec       q    Type
REMARK                         _______ _______ _______ _____ _____    ______ ____
ROOT
ATOM      1  F   UNL     1      39.748   4.988  14.584  0.00  0.00    +0.000 F 
ATOM      2  O   UNL     1      35.700   1.574  13.769  0.00  0.00    +0.000 OA
ATOM      3  O   UNL     1      36.258   3.686  17.903  0.00  0.00    +0.000 OA
ATOM      4  N   UNL     1      37.686   2.502  12.999  0.00  0.00    +0.000 N 
ATOM      5  N   UNL     1      36.875   2.897  15.223  0.00  0.00    +0.000 NA
ATOM      6  N   UNL     1      38.114   4.308  16.645  0.00  0.00    +0.000 N 
ATOM      7  C   UNL     1      38.725   3.281  13.361  0.00  0.00    +0.000 C 
ATOM      8  C   UNL     1      36.690   2.271  13.982  0.00  0.00    +0.000 C 
ATOM      9  C   UNL     1      39.024   3.861  14.470  0.00  0.00    +0.000 C 
ATOM     10  C   UNL     1      37.918   3.638  15.455  0.00  0.00    +0.000 C 
ATOM     11  C   UNL     1      37.295   4.314  17.752  0.00  0.00    +0.000 C 
ATOM     12  H   UNL     1      38.933   4.892  16.739  0.00  0.00    +0.000 HD
ENDROOT
BRANCH   4  16
ATOM     13  O   UNL     1      37.916   0.604  11.513  0.00  0.00    +0.000 OA
ATOM     14  C   UNL     1      37.518   2.607  10.440  0.00  0.00    +0.000 A 
ATOM     15  C   UNL     1      37.695   1.591   9.447  0.00  0.00    +0.000 A 
ATOM     16  C   UNL     1      37.686   1.981  11.731  0.00  0.00    +0.000 A 
ATOM     17  C   UNL     1      37.929   0.350  10.133  0.00  0.00    +0.000 A 
ATOM     18  C   UNL     1      38.413  -0.966   9.630  0.00  0.00    +0.000 C 
BRANCH  14  19
ATOM     19  O   UNL     1      37.842   3.901  10.143  0.00  0.00    +0.000 OA
ATOM     20  H   UNL     1      38.154   4.001   9.216  0.00  0.00    +0.000 HD
ENDBRANCH  14  19
BRANCH  15  21
ATOM     21  O   UNL     1      38.219   1.890   8.217  0.00  0.00    +0.000 OA
ATOM     22  H   UNL     1      37.509   2.137   7.595  0.00  0.00    +0.000 HD
ENDBRANCH  15  21
ENDBRANCH   4  16
BRANCH  11  23
ATOM     23  O   UNL     1      37.844   5.142  18.691  0.00  0.00    +0.000 OA
BRANCH  23  24
ATOM     24  C   UNL     1      38.578   6.147  18.218  0.00  0.00    +0.000 C 
ATOM     25  C   UNL     1      39.426   7.301  17.673  0.00  0.00    +0.000 C 
BRANCH  25  26
ATOM     26  C   UNL     1      40.274   8.454  17.129  0.00  0.00    +0.000 C 
ATOM     27  C   UNL     1      41.125   9.609  16.592  0.00  0.00    +0.000 C 
ATOM     28  C   UNL     1      41.984  10.763  16.065  0.00  0.00    +0.000 C 
ENDBRANCH  25  26
ENDBRANCH  23  24
ENDBRANCH  11  23
TORSDOF 6
ENDMDL
MODEL 6
REMARK VINA RESULT:      -6.7     20.710     21.674
REMARK  Name = 60953_Capecitabine.pdbqt.pdb
REMARK  6 active torsions:
REMARK  status: ('A' for Active; 'I' for Inactive)
REMARK    1  A    between atoms: N_4  and  C_16
REMARK    2  A    between atoms: C_11  and  O_23
REMARK    3  A    between atoms: C_14  and  O_19
REMARK    4  A    between atoms: C_15  and  O_21
REMARK    5  A    between atoms: O_23  and  C_24
REMARK    6  A    between atoms: C_25  and  C_26
REMARK                            x       y       z     vdW  Elec       q    Type
REMARK                         _______ _______ _______ _____ _____    ______ ____
ROOT
ATOM      1  F   UNL     1      14.542   3.972  17.050  0.00  0.00    +0.000 F 
ATOM      2  O   UNL     1      19.454   3.243  19.060  0.00  0.00    +0.000 OA
ATOM      3  O   UNL     1      17.378  -0.100  16.537  0.00  0.00    +0.000 OA
ATOM      4  N   UNL     1      17.526   4.537  18.978  0.00  0.00    +0.000 N 
ATOM      5  N   UNL     1      17.651   2.372  17.950  0.00  0.00    +0.000 NA
ATOM      6  N   UNL     1      15.770   1.563  16.784  0.00  0.00    +0.000 N 
ATOM      7  C   UNL     1      16.257   4.554  18.524  0.00  0.00    +0.000 C 
ATOM      8  C   UNL     1      18.288   3.374  18.694  0.00  0.00    +0.000 C 
ATOM      9  C   UNL     1      15.557   3.685  17.883  0.00  0.00    +0.000 C 
ATOM     10  C   UNL     1      16.418   2.505  17.557  0.00  0.00    +0.000 C 
ATOM     11  C   UNL     1      16.272   0.369  16.316  0.00  0.00    +0.000 C 
ATOM     12  H   UNL     1      14.823   1.753  16.489  0.00  0.00    +0.000 HD
ENDROOT
BRANCH   4  16
ATOM     13  O   UNL     1      18.754   6.621  19.073  0.00  0.00    +0.000 OA
ATOM     14  C   UNL     1      17.816   5.980  21.081  0.00  0.00    +0.000 A 
ATOM     15  C   UNL     1      18.558   7.185  21.295  0.00  0.00    +0.000 A 
ATOM     16  C   UNL     1      17.968   5.622  19.689  0.00  0.00    +0.000 A 
ATOM     17  C   UNL     1      19.125   7.576  20.033  0.00  0.00    +0.000 A 
ATOM     18  C   UNL     1      20.169   8.586  19.703  0.00  0.00    +0.000 C 
BRANCH  14  19
ATOM     19  O   UNL     1      17.658   5.096  22.110  0.00  0.00    +0.000 OA
ATOM     20  H   UNL     1      17.588   5.548  22.980  0.00  0.00    +0.000 HD
ENDBRANCH  14  19
BRANCH  15  21
ATOM     21  O   UNL     1      19.146   7.447  22.504  0.00  0.00    +0.000 OA
ATOM     22  H   UNL     1      18.681   8.175  22.959  0.00  0.00    +0.000 HD
ENDBRANCH  15  21
ENDBRANCH   4  16
BRANCH  11  23
ATOM     23  O   UNL     1      15.310  -0.234  15.555  0.00  0.00    +0.000 OA
BRANCH  23  24
ATOM     24  C   UNL     1      15.617  -1.441  15.085  0.00  0.00    +0.000 C 
ATOM     25  C   UNL     1      15.972  -2.830  14.542  0.00  0.00    +0.000 C 
BRANCH  25  26
ATOM     26  C   UNL     1      16.326  -4.216  13.997  0.00  0.00    +0.000 C 
ATOM     27  C   UNL     1      16.687  -5.600  13.450  0.00  0.00    +0.000 C 
ATOM     28  C   UNL     1      17.060  -6.981  12.901  0.00  0.00    +0.000 C 
ENDBRANCH  25  26
ENDBRANCH  23  24
ENDBRANCH  11  23
TORSDOF 6
ENDMDL
MODEL 7
REMARK VINA RESULT:      -6.7     12.571     14.579
REMARK  Name = 60953_Capecitabine.pdbqt.pdb
REMARK  6 active torsions:
REMARK  status: ('A' for Active; 'I' for Inactive)
REMARK    1  A    between atoms: N_4  and  C_16
REMARK    2  A    between atoms: C_11  and  O_23
REMARK    3  A    between atoms: C_14  and  O_19
REMARK    4  A    between atoms: C_15  and  O_21
REMARK    5  A    between atoms: O_23  and  C_24
REMARK    6  A    between atoms: C_25  and  C_26
REMARK                            x       y       z     vdW  Elec       q    Type
REMARK                         _______ _______ _______ _____ _____    ______ ____
ROOT
ATOM      1  F   UNL     1      28.599  -1.584   4.436  0.00  0.00    +0.000 F 
ATOM      2  O   UNL     1      24.658   2.017   4.879  0.00  0.00    +0.000 OA
ATOM      3  O   UNL     1      29.036   3.361   3.940  0.00  0.00    +0.000 OA
ATOM      4  N   UNL     1      25.361  -0.181   5.139  0.00  0.00    +0.000 N 
ATOM      5  N   UNL     1      26.892   1.592   4.620  0.00  0.00    +0.000 NA
ATOM      6  N   UNL     1      29.170   1.070   4.321  0.00  0.00    +0.000 N 
ATOM      7  C   UNL     1      26.452  -0.974   5.122  0.00  0.00    +0.000 C 
ATOM      8  C   UNL     1      25.574   1.198   4.886  0.00  0.00    +0.000 C 
ATOM      9  C   UNL     1      27.701  -0.722   4.943  0.00  0.00    +0.000 C 
ATOM     10  C   UNL     1      27.867   0.731   4.622  0.00  0.00    +0.000 C 
ATOM     11  C   UNL     1      29.661   2.313   3.987  0.00  0.00    +0.000 C 
ATOM     12  H   UNL     1      29.867   0.338   4.310  0.00  0.00    +0.000 HD
ENDROOT
BRANCH   4  16
ATOM     13  O   UNL     1      23.587  -0.673   6.710  0.00  0.00    +0.000 OA
ATOM     14  C   UNL     1      23.256  -1.547   4.602  0.00  0.00    +0.000 A 
ATOM     15  C   UNL     1      22.172  -1.965   5.438  0.00  0.00    +0.000 A 
ATOM     16  C   UNL     1      24.151  -0.760   5.418  0.00  0.00    +0.000 A 
ATOM     17  C   UNL     1      22.388  -1.401   6.742  0.00  0.00    +0.000 A 
ATOM     18  C   UNL     1      21.734  -1.689   8.050  0.00  0.00    +0.000 C 
BRANCH  14  19
ATOM     19  O   UNL     1      23.633  -2.332   3.549  0.00  0.00    +0.000 OA
ATOM     20  H   UNL     1      23.228  -2.038   2.703  0.00  0.00    +0.000 HD
ENDBRANCH  14  19
BRANCH  15  21
ATOM     21  O   UNL     1      21.532  -3.157   5.222  0.00  0.00    +0.000 OA
ATOM     22  H   UNL     1      20.754  -3.027   4.646  0.00  0.00    +0.000 HD
ENDBRANCH  15  21
ENDBRANCH   4  16
BRANCH  11  23
ATOM     23  O   UNL     1      30.997   2.193   3.724  0.00  0.00    +0.000 OA
BRANCH  23  24
ATOM     24  C   UNL     1      31.411   0.977   3.374  0.00  0.00    +0.000 C 
ATOM     25  C   UNL     1      31.887  -0.422   2.969  0.00  0.00    +0.000 C 
BRANCH  25  26
ATOM     26  C   UNL     1      32.362  -1.820   2.563  0.00  0.00    +0.000 C 
ATOM     27  C   UNL     1      32.841  -3.218   2.163  0.00  0.00    +0.000 C 
ATOM     28  C   UNL     1      33.322  -4.621   1.775  0.00  0.00    +0.000 C 
ENDBRANCH  25  26
ENDBRANCH  23  24
ENDBRANCH  11  23
TORSDOF 6
ENDMDL
MODEL 8
REMARK VINA RESULT:      -6.7     20.797     22.614
REMARK  Name = 60953_Capecitabine.pdbqt.pdb
REMARK  6 active torsions:
REMARK  status: ('A' for Active; 'I' for Inactive)
REMARK    1  A    between atoms: N_4  and  C_16
REMARK    2  A    between atoms: C_11  and  O_23
REMARK    3  A    between atoms: C_14  and  O_19
REMARK    4  A    between atoms: C_15  and  O_21
REMARK    5  A    between atoms: O_23  and  C_24
REMARK    6  A    between atoms: C_25  and  C_26
REMARK                            x       y       z     vdW  Elec       q    Type
REMARK                         _______ _______ _______ _____ _____    ______ ____
ROOT
ATOM      1  F   UNL     1      14.513   4.026  17.100  0.00  0.00    +0.000 F 
ATOM      2  O   UNL     1      19.456   3.282  19.027  0.00  0.00    +0.000 OA
ATOM      3  O   UNL     1      17.343  -0.040  16.506  0.00  0.00    +0.000 OA
ATOM      4  N   UNL     1      17.526   4.575  18.987  0.00  0.00    +0.000 N 
ATOM      5  N   UNL     1      17.636   2.420  17.937  0.00  0.00    +0.000 NA
ATOM      6  N   UNL     1      15.738   1.620  16.793  0.00  0.00    +0.000 N 
ATOM      7  C   UNL     1      16.250   4.596  18.553  0.00  0.00    +0.000 C 
ATOM      8  C   UNL     1      18.284   3.416  18.681  0.00  0.00    +0.000 C 
ATOM      9  C   UNL     1      15.540   3.732  17.915  0.00  0.00    +0.000 C 
ATOM     10  C   UNL     1      16.398   2.555  17.564  0.00  0.00    +0.000 C 
ATOM     11  C   UNL     1      16.234   0.431  16.306  0.00  0.00    +0.000 C 
ATOM     12  H   UNL     1      14.786   1.812  16.514  0.00  0.00    +0.000 HD
ENDROOT
BRANCH   4  16
ATOM     13  O   UNL     1      18.780   6.643  19.089  0.00  0.00    +0.000 OA
ATOM     14  C   UNL     1      17.824   6.014  21.091  0.00  0.00    +0.000 A 
ATOM     15  C   UNL     1      18.581   7.208  21.310  0.00  0.00    +0.000 A 
ATOM     16  C   UNL     1      17.978   5.654  19.701  0.00  0.00    +0.000 A 
ATOM     17  C   UNL     1      19.158   7.593  20.051  0.00  0.00    +0.000 A 
ATOM     18  C   UNL     1      20.217   8.590  19.727  0.00  0.00    +0.000 C 
BRANCH  14  19
ATOM     19  O   UNL     1      17.650   5.131  22.119  0.00  0.00    +0.000 OA
ATOM     20  H   UNL     1      17.155   4.328  21.839  0.00  0.00    +0.000 HD
ENDBRANCH  14  19
BRANCH  15  21
ATOM     21  O   UNL     1      19.166   7.462  22.523  0.00  0.00    +0.000 OA
ATOM     22  H   UNL     1      19.076   8.407  22.753  0.00  0.00    +0.000 HD
ENDBRANCH  15  21
ENDBRANCH   4  16
BRANCH  11  23
ATOM     23  O   UNL     1      15.261  -0.166  15.555  0.00  0.00    +0.000 OA
BRANCH  23  24
ATOM     24  C   UNL     1      14.666  -1.220  16.109  0.00  0.00    +0.000 C 
ATOM     25  C   UNL     1      13.981  -2.434  16.745  0.00  0.00    +0.000 C 
BRANCH  25  26
ATOM     26  C   UNL     1      13.295  -3.648  17.380  0.00  0.00    +0.000 C 
ATOM     27  C   UNL     1      12.603  -4.856  18.017  0.00  0.00    +0.000 C 
ATOM     28  C   UNL     1      11.899  -6.060  18.653  0.00  0.00    +0.000 C 
ENDBRANCH  25  26
ENDBRANCH  23  24
ENDBRANCH  11  23
TORSDOF 6
ENDMDL
MODEL 9
REMARK VINA RESULT:      -6.5      2.155      8.257
REMARK  Name = 60953_Capecitabine.pdbqt.pdb
REMARK  6 active torsions:
REMARK  status: ('A' for Active; 'I' for Inactive)
REMARK    1  A    between atoms: N_4  and  C_16
REMARK    2  A    between atoms: C_11  and  O_23
REMARK    3  A    between atoms: C_14  and  O_19
REMARK    4  A    between atoms: C_15  and  O_21
REMARK    5  A    between atoms: O_23  and  C_24
REMARK    6  A    between atoms: C_25  and  C_26
REMARK                            x       y       z     vdW  Elec       q    Type
REMARK                         _______ _______ _______ _____ _____    ______ ____
ROOT
ATOM      1  F   UNL     1      38.605   3.096  14.563  0.00  0.00    +0.000 F 
ATOM      2  O   UNL     1      36.406   0.008  10.777  0.00  0.00    +0.000 OA
ATOM      3  O   UNL     1      34.591   0.179  15.082  0.00  0.00    +0.000 OA
ATOM      4  N   UNL     1      38.178   1.355  11.444  0.00  0.00    +0.000 N 
ATOM      5  N   UNL     1      36.450   0.680  12.966  0.00  0.00    +0.000 NA
ATOM      6  N   UNL     1      36.538   1.449  15.191  0.00  0.00    +0.000 N 
ATOM      7  C   UNL     1      38.707   1.994  12.506  0.00  0.00    +0.000 C 
ATOM      8  C   UNL     1      36.977   0.633  11.668  0.00  0.00    +0.000 C 
ATOM      9  C   UNL     1      38.346   2.066  13.739  0.00  0.00    +0.000 C 
ATOM     10  C   UNL     1      37.047   1.341  13.913  0.00  0.00    +0.000 C 
ATOM     11  C   UNL     1      35.372   0.903  15.681  0.00  0.00    +0.000 C 
ATOM     12  H   UNL     1      37.042   2.009  15.864  0.00  0.00    +0.000 HD
ENDROOT
BRANCH   4  16
ATOM     13  O   UNL     1      39.693   0.384   9.825  0.00  0.00    +0.000 OA
ATOM     14  C   UNL     1      38.904   2.474   9.251  0.00  0.00    +0.000 A 
ATOM     15  C   UNL     1      39.830   2.051   8.245  0.00  0.00    +0.000 A 
ATOM     16  C   UNL     1      38.847   1.432  10.250  0.00  0.00    +0.000 A 
ATOM     17  C   UNL     1      40.301   0.743   8.611  0.00  0.00    +0.000 A 
ATOM     18  C   UNL     1      41.435  -0.068   8.086  0.00  0.00    +0.000 C 
BRANCH  14  19
ATOM     19  O   UNL     1      38.739   3.808   9.494  0.00  0.00    +0.000 OA
ATOM     20  H   UNL     1      38.932   4.042  10.429  0.00  0.00    +0.000 HD
ENDBRANCH  14  19
BRANCH  15  21
ATOM     21  O   UNL     1      40.581   2.960   7.548  0.00  0.00    +0.000 OA
ATOM     22  H   UNL     1      41.387   2.538   7.195  0.00  0.00    +0.000 HD
ENDBRANCH  15  21
ENDBRANCH   4  16
BRANCH  11  23
ATOM     23  O   UNL     1      35.226   1.294  16.982  0.00  0.00    +0.000 OA
BRANCH  23  24
ATOM     24  C   UNL     1      35.915   2.375  17.343  0.00  0.00    +0.000 C 
ATOM     25  C   UNL     1      36.707   3.619  17.760  0.00  0.00    +0.000 C 
BRANCH  25  26
ATOM     26  C   UNL     1      37.497   4.862  18.179  0.00  0.00    +0.000 C 
ATOM     27  C   UNL     1      38.284   6.104  18.604  0.00  0.00    +0.000 C 
ATOM     28  C   UNL     1      39.074   7.342  19.042  0.00  0.00    +0.000 C 
ENDBRANCH  25  26
ENDBRANCH  23  24
ENDBRANCH  11  23
TORSDOF 6
ENDMDL
