MODEL 1
REMARK VINA RESULT:      -7.0      0.000      0.000
REMARK  Name = 6223_Gliotoxin.pdbqt.pdb
REMARK  3 active torsions:
REMARK  status: ('A' for Active; 'I' for Inactive)
REMARK    1  A    between atoms: C_10  and  C_21
REMARK    2  A    between atoms: C_14  and  O_19
REMARK    3  A    between atoms: C_21  and  O_22
REMARK                            x       y       z     vdW  Elec       q    Type
REMARK                         _______ _______ _______ _____ _____    ______ ____
ROOT
ATOM      1  S   UNL     1      36.749   0.309   9.197  0.00  0.00    +0.000 S 
ATOM      2  S   UNL     1      38.347  -0.800   8.505  0.00  0.00    +0.000 S 
ATOM      3  O   UNL     1      39.856  -1.097  11.788  0.00  0.00    +0.000 OA
ATOM      4  O   UNL     1      38.546   3.372   9.348  0.00  0.00    +0.000 OA
ATOM      5  N   UNL     1      38.318   0.572  11.425  0.00  0.00    +0.000 N 
ATOM      6  N   UNL     1      39.819   1.394   9.314  0.00  0.00    +0.000 N 
ATOM      7  C   UNL     1      37.607   1.388  10.392  0.00  0.00    +0.000 C 
ATOM      8  C   UNL     1      37.771   0.767  12.694  0.00  0.00    +0.000 A 
ATOM      9  C   UNL     1      36.680   2.155  11.222  0.00  0.00    +0.000 C 
ATOM     10  C   UNL     1      39.737  -0.088   9.528  0.00  0.00    +0.000 C 
ATOM     11  C   UNL     1      36.759   1.877  12.594  0.00  0.00    +0.000 A 
ATOM     12  C   UNL     1      39.347  -0.274  11.029  0.00  0.00    +0.000 C 
ATOM     13  C   UNL     1      38.687   2.188   9.660  0.00  0.00    +0.000 C 
ATOM     14  C   UNL     1      37.762  -0.142  13.864  0.00  0.00    +0.000 A 
ATOM     15  C   UNL     1      35.793   1.777  13.460  0.00  0.00    +0.000 A 
ATOM     16  C   UNL     1      36.605   0.072  14.689  0.00  0.00    +0.000 A 
ATOM     17  C   UNL     1      40.988   1.910   8.604  0.00  0.00    +0.000 C 
ATOM     18  C   UNL     1      35.665   0.821  14.657  0.00  0.00    +0.000 A 
ENDROOT
BRANCH  14  19
ATOM     19  O   UNL     1      38.416  -1.340  13.877  0.00  0.00    +0.000 OA
ATOM     20  H   UNL     1      37.825  -2.103  13.715  0.00  0.00    +0.000 HD
ENDBRANCH  14  19
BRANCH  10  21
ATOM     21  C   UNL     1      40.985  -0.834   9.215  0.00  0.00    +0.000 C 
BRANCH  21  22
ATOM     22  O   UNL     1      42.099  -1.508   8.916  0.00  0.00    +0.000 OA
ATOM     23  H   UNL     1      42.484  -1.924   9.710  0.00  0.00    +0.000 HD
ENDBRANCH  21  22
ENDBRANCH  10  21
TORSDOF 3
ENDMDL
MODEL 2
REMARK VINA RESULT:      -6.7      2.615      3.823
REMARK  Name = 6223_Gliotoxin.pdbqt.pdb
REMARK  3 active torsions:
REMARK  status: ('A' for Active; 'I' for Inactive)
REMARK    1  A    between atoms: C_10  and  C_21
REMARK    2  A    between atoms: C_14  and  O_19
REMARK    3  A    between atoms: C_21  and  O_22
REMARK                            x       y       z     vdW  Elec       q    Type
REMARK                         _______ _______ _______ _____ _____    ______ ____
ROOT
ATOM      1  S   UNL     1      35.648   2.088  12.819  0.00  0.00    +0.000 S 
ATOM      2  S   UNL     1      37.126   1.518  11.494  0.00  0.00    +0.000 S 
ATOM      3  O   UNL     1      38.395  -1.084  13.675  0.00  0.00    +0.000 OA
ATOM      4  O   UNL     1      37.815   3.998  14.890  0.00  0.00    +0.000 OA
ATOM      5  N   UNL     1      37.109   0.590  14.584  0.00  0.00    +0.000 N 
ATOM      6  N   UNL     1      38.821   2.396  13.493  0.00  0.00    +0.000 N 
ATOM      7  C   UNL     1      36.570   1.972  14.390  0.00  0.00    +0.000 C 
ATOM      8  C   UNL     1      36.521  -0.036  15.684  0.00  0.00    +0.000 A 
ATOM      9  C   UNL     1      35.704   2.108  15.559  0.00  0.00    +0.000 C 
ATOM     10  C   UNL     1      38.536   1.175  12.669  0.00  0.00    +0.000 C 
ATOM     11  C   UNL     1      35.669   0.982  16.393  0.00  0.00    +0.000 A 
ATOM     12  C   UNL     1      38.040   0.093  13.681  0.00  0.00    +0.000 C 
ATOM     13  C   UNL     1      37.784   2.901  14.329  0.00  0.00    +0.000 C 
ATOM     14  C   UNL     1      36.328  -1.481  15.950  0.00  0.00    +0.000 A 
ATOM     15  C   UNL     1      34.650   0.462  17.014  0.00  0.00    +0.000 A 
ATOM     16  C   UNL     1      35.163  -1.717  16.759  0.00  0.00    +0.000 A 
ATOM     17  C   UNL     1      40.086   3.090  13.255  0.00  0.00    +0.000 C 
ATOM     18  C   UNL     1      34.332  -1.019  17.276  0.00  0.00    +0.000 A 
ENDROOT
BRANCH  14  19
ATOM     19  O   UNL     1      36.820  -2.459  15.134  0.00  0.00    +0.000 OA
ATOM     20  H   UNL     1      37.792  -2.555  15.191  0.00  0.00    +0.000 HD
ENDBRANCH  14  19
BRANCH  10  21
ATOM     21  C   UNL     1      39.693   0.668  11.883  0.00  0.00    +0.000 C 
BRANCH  21  22
ATOM     22  O   UNL     1      40.727   0.225  11.164  0.00  0.00    +0.000 OA
ATOM     23  H   UNL     1      41.351  -0.283  11.717  0.00  0.00    +0.000 HD
ENDBRANCH  21  22
ENDBRANCH  10  21
TORSDOF 3
ENDMDL
MODEL 3
REMARK VINA RESULT:      -6.1      2.146      2.792
REMARK  Name = 6223_Gliotoxin.pdbqt.pdb
REMARK  3 active torsions:
REMARK  status: ('A' for Active; 'I' for Inactive)
REMARK    1  A    between atoms: C_10  and  C_21
REMARK    2  A    between atoms: C_14  and  O_19
REMARK    3  A    between atoms: C_21  and  O_22
REMARK                            x       y       z     vdW  Elec       q    Type
REMARK                         _______ _______ _______ _____ _____    ______ ____
ROOT
ATOM      1  S   UNL     1      36.974   2.685  11.420  0.00  0.00    +0.000 S 
ATOM      2  S   UNL     1      37.757   1.049  10.436  0.00  0.00    +0.000 S 
ATOM      3  O   UNL     1      37.828  -1.002  13.425  0.00  0.00    +0.000 OA
ATOM      4  O   UNL     1      40.073   3.713  12.822  0.00  0.00    +0.000 OA
ATOM      5  N   UNL     1      37.706   1.282  13.654  0.00  0.00    +0.000 N 
ATOM      6  N   UNL     1      39.924   1.481  12.097  0.00  0.00    +0.000 N 
ATOM      7  C   UNL     1      37.919   2.601  12.979  0.00  0.00    +0.000 C 
ATOM      8  C   UNL     1      37.043   1.435  14.872  0.00  0.00    +0.000 A 
ATOM      9  C   UNL     1      37.415   3.525  13.992  0.00  0.00    +0.000 C 
ATOM     10  C   UNL     1      38.949   0.405  11.722  0.00  0.00    +0.000 C 
ATOM     11  C   UNL     1      36.932   2.909  15.155  0.00  0.00    +0.000 A 
ATOM     12  C   UNL     1      38.121   0.120  13.016  0.00  0.00    +0.000 C 
ATOM     13  C   UNL     1      39.414   2.685  12.663  0.00  0.00    +0.000 C 
ATOM     14  C   UNL     1      36.186   0.472  15.602  0.00  0.00    +0.000 A 
ATOM     15  C   UNL     1      35.888   3.223  15.867  0.00  0.00    +0.000 A 
ATOM     16  C   UNL     1      35.188   1.145  16.388  0.00  0.00    +0.000 A 
ATOM     17  C   UNL     1      41.319   1.297  11.696  0.00  0.00    +0.000 C 
ATOM     18  C   UNL     1      34.905   2.295  16.599  0.00  0.00    +0.000 A 
ENDROOT
BRANCH  14  19
ATOM     19  O   UNL     1      35.995  -0.815  15.188  0.00  0.00    +0.000 OA
ATOM     20  H   UNL     1      36.649  -1.105  14.520  0.00  0.00    +0.000 HD
ENDBRANCH  14  19
BRANCH  10  21
ATOM     21  C   UNL     1      39.568  -0.847  11.209  0.00  0.00    +0.000 C 
BRANCH  21  22
ATOM     22  O   UNL     1      40.107  -1.980  10.752  0.00  0.00    +0.000 OA
ATOM     23  H   UNL     1      39.520  -2.416  10.106  0.00  0.00    +0.000 HD
ENDBRANCH  21  22
ENDBRANCH  10  21
TORSDOF 3
ENDMDL
MODEL 4
REMARK VINA RESULT:      -6.0     20.674     22.709
REMARK  Name = 6223_Gliotoxin.pdbqt.pdb
REMARK  3 active torsions:
REMARK  status: ('A' for Active; 'I' for Inactive)
REMARK    1  A    between atoms: C_10  and  C_21
REMARK    2  A    between atoms: C_14  and  O_19
REMARK    3  A    between atoms: C_21  and  O_22
REMARK                            x       y       z     vdW  Elec       q    Type
REMARK                         _______ _______ _______ _____ _____    ______ ____
ROOT
ATOM      1  S   UNL     1      17.606  11.414  18.623  0.00  0.00    +0.000 S 
ATOM      2  S   UNL     1      18.322  13.060  17.605  0.00  0.00    +0.000 S 
ATOM      3  O   UNL     1      21.516  11.507  16.878  0.00  0.00    +0.000 OA
ATOM      4  O   UNL     1      19.358  12.127  21.632  0.00  0.00    +0.000 OA
ATOM      5  N   UNL     1      20.236  10.656  18.587  0.00  0.00    +0.000 N 
ATOM      6  N   UNL     1      20.158  13.147  19.670  0.00  0.00    +0.000 N 
ATOM      7  C   UNL     1      19.110  10.925  19.534  0.00  0.00    +0.000 C 
ATOM      8  C   UNL     1      20.618   9.314  18.619  0.00  0.00    +0.000 A 
ATOM      9  C   UNL     1      18.971   9.628  20.191  0.00  0.00    +0.000 C 
ATOM     10  C   UNL     1      20.101  13.076  18.172  0.00  0.00    +0.000 C 
ATOM     11  C   UNL     1      19.864   8.646  19.737  0.00  0.00    +0.000 A 
ATOM     12  C   UNL     1      20.717  11.690  17.795  0.00  0.00    +0.000 C 
ATOM     13  C   UNL     1      19.561  12.091  20.417  0.00  0.00    +0.000 C 
ATOM     14  C   UNL     1      21.263   8.495  17.565  0.00  0.00    +0.000 A 
ATOM     15  C   UNL     1      19.643   7.380  19.530  0.00  0.00    +0.000 A 
ATOM     16  C   UNL     1      20.895   7.110  17.676  0.00  0.00    +0.000 A 
ATOM     17  C   UNL     1      20.669  14.380  20.267  0.00  0.00    +0.000 C 
ATOM     18  C   UNL     1      20.208   6.470  18.428  0.00  0.00    +0.000 A 
ENDROOT
BRANCH  14  19
ATOM     19  O   UNL     1      21.678   9.013  16.373  0.00  0.00    +0.000 OA
ATOM     20  H   UNL     1      20.948   9.138  15.733  0.00  0.00    +0.000 HD
ENDBRANCH  14  19
BRANCH  10  21
ATOM     21  C   UNL     1      20.813  14.176  17.467  0.00  0.00    +0.000 C 
BRANCH  21  22
ATOM     22  O   UNL     1      21.442  15.176  16.845  0.00  0.00    +0.000 OA
ATOM     23  H   UNL     1      22.288  14.877  16.460  0.00  0.00    +0.000 HD
ENDBRANCH  21  22
ENDBRANCH  10  21
TORSDOF 3
ENDMDL
MODEL 5
REMARK VINA RESULT:      -6.0     36.273     38.427
REMARK  Name = 6223_Gliotoxin.pdbqt.pdb
REMARK  3 active torsions:
REMARK  status: ('A' for Active; 'I' for Inactive)
REMARK    1  A    between atoms: C_10  and  C_21
REMARK    2  A    between atoms: C_14  and  O_19
REMARK    3  A    between atoms: C_21  and  O_22
REMARK                            x       y       z     vdW  Elec       q    Type
REMARK                         _______ _______ _______ _____ _____    ______ ____
ROOT
ATOM      1  S   UNL     1      18.106 -10.223  44.289  0.00  0.00    +0.000 S 
ATOM      2  S   UNL     1      19.188  -9.440  45.864  0.00  0.00    +0.000 S 
ATOM      3  O   UNL     1      21.443  -7.603  43.700  0.00  0.00    +0.000 OA
ATOM      4  O   UNL     1      20.469 -12.766  43.529  0.00  0.00    +0.000 OA
ATOM      5  N   UNL     1      20.244  -9.354  42.816  0.00  0.00    +0.000 N 
ATOM      6  N   UNL     1      21.246 -10.936  44.785  0.00  0.00    +0.000 N 
ATOM      7  C   UNL     1      19.463 -10.592  43.125  0.00  0.00    +0.000 C 
ATOM      8  C   UNL     1      20.118  -8.994  41.474  0.00  0.00    +0.000 A 
ATOM      9  C   UNL     1      18.978 -10.963  41.798  0.00  0.00    +0.000 C 
ATOM     10  C   UNL     1      20.921  -9.524  45.174  0.00  0.00    +0.000 C 
ATOM     11  C   UNL     1      19.370 -10.094  40.770  0.00  0.00    +0.000 A 
ATOM     12  C   UNL     1      20.927  -8.710  43.841  0.00  0.00    +0.000 C 
ATOM     13  C   UNL     1      20.442 -11.562  43.789  0.00  0.00    +0.000 C 
ATOM     14  C   UNL     1      20.242  -7.659  40.843  0.00  0.00    +0.000 A 
ATOM     15  C   UNL     1      18.679  -9.679  39.748  0.00  0.00    +0.000 A 
ATOM     16  C   UNL     1      19.425  -7.555  39.665  0.00  0.00    +0.000 A 
ATOM     17  C   UNL     1      22.257 -11.638  45.575  0.00  0.00    +0.000 C 
ATOM     18  C   UNL     1      18.689  -8.299  39.073  0.00  0.00    +0.000 A 
ENDROOT
BRANCH  14  19
ATOM     19  O   UNL     1      20.612  -6.542  41.535  0.00  0.00    +0.000 OA
ATOM     20  H   UNL     1      20.005  -5.787  41.400  0.00  0.00    +0.000 HD
ENDBRANCH  14  19
BRANCH  10  21
ATOM     21  C   UNL     1      21.853  -8.919  46.162  0.00  0.00    +0.000 C 
BRANCH  21  22
ATOM     22  O   UNL     1      22.704  -8.375  47.037  0.00  0.00    +0.000 OA
ATOM     23  H   UNL     1      23.199  -9.062  47.522  0.00  0.00    +0.000 HD
ENDBRANCH  21  22
ENDBRANCH  10  21
TORSDOF 3
ENDMDL
MODEL 6
REMARK VINA RESULT:      -5.9      1.981      2.166
REMARK  Name = 6223_Gliotoxin.pdbqt.pdb
REMARK  3 active torsions:
REMARK  status: ('A' for Active; 'I' for Inactive)
REMARK    1  A    between atoms: C_10  and  C_21
REMARK    2  A    between atoms: C_14  and  O_19
REMARK    3  A    between atoms: C_21  and  O_22
REMARK                            x       y       z     vdW  Elec       q    Type
REMARK                         _______ _______ _______ _____ _____    ______ ____
ROOT
ATOM      1  S   UNL     1      38.328  -1.188   9.679  0.00  0.00    +0.000 S 
ATOM      2  S   UNL     1      40.303  -1.320   9.093  0.00  0.00    +0.000 S 
ATOM      3  O   UNL     1      41.318   1.550  11.062  0.00  0.00    +0.000 OA
ATOM      4  O   UNL     1      37.516   1.443   7.432  0.00  0.00    +0.000 OA
ATOM      5  N   UNL     1      39.092   1.293  10.546  0.00  0.00    +0.000 N 
ATOM      6  N   UNL     1      39.794   1.134   7.926  0.00  0.00    +0.000 N 
ATOM      7  C   UNL     1      38.107   0.623   9.642  0.00  0.00    +0.000 C 
ATOM      8  C   UNL     1      38.454   1.933  11.610  0.00  0.00    +0.000 A 
ATOM      9  C   UNL     1      36.841   1.046  10.236  0.00  0.00    +0.000 C 
ATOM     10  C   UNL     1      40.733   0.487   8.902  0.00  0.00    +0.000 C 
ATOM     11  C   UNL     1      36.971   1.863  11.367  0.00  0.00    +0.000 A 
ATOM     12  C   UNL     1      40.450   1.176  10.275  0.00  0.00    +0.000 C 
ATOM     13  C   UNL     1      38.403   1.135   8.231  0.00  0.00    +0.000 C 
ATOM     14  C   UNL     1      38.971   2.250  12.962  0.00  0.00    +0.000 A 
ATOM     15  C   UNL     1      36.266   1.853  12.462  0.00  0.00    +0.000 A 
ATOM     16  C   UNL     1      37.917   2.265  13.939  0.00  0.00    +0.000 A 
ATOM     17  C   UNL     1      40.348   1.567   6.644  0.00  0.00    +0.000 C 
ATOM     18  C   UNL     1      36.726   2.099  13.908  0.00  0.00    +0.000 A 
ENDROOT
BRANCH  14  19
ATOM     19  O   UNL     1      40.264   2.020  13.336  0.00  0.00    +0.000 OA
ATOM     20  H   UNL     1      40.503   2.451  14.182  0.00  0.00    +0.000 HD
ENDBRANCH  14  19
BRANCH  10  21
ATOM     21  C   UNL     1      42.174   0.596   8.548  0.00  0.00    +0.000 C 
BRANCH  21  22
ATOM     22  O   UNL     1      43.471   0.697   8.248  0.00  0.00    +0.000 OA
ATOM     23  H   UNL     1      43.795   1.607   8.382  0.00  0.00    +0.000 HD
ENDBRANCH  21  22
ENDBRANCH  10  21
TORSDOF 3
ENDMDL
MODEL 7
REMARK VINA RESULT:      -5.8      2.910      5.369
REMARK  Name = 6223_Gliotoxin.pdbqt.pdb
REMARK  3 active torsions:
REMARK  status: ('A' for Active; 'I' for Inactive)
REMARK    1  A    between atoms: C_10  and  C_21
REMARK    2  A    between atoms: C_14  and  O_19
REMARK    3  A    between atoms: C_21  and  O_22
REMARK                            x       y       z     vdW  Elec       q    Type
REMARK                         _______ _______ _______ _____ _____    ______ ____
ROOT
ATOM      1  S   UNL     1      40.771  -0.079   7.804  0.00  0.00    +0.000 S 
ATOM      2  S   UNL     1      39.775   1.725   7.920  0.00  0.00    +0.000 S 
ATOM      3  O   UNL     1      40.777   2.317  11.354  0.00  0.00    +0.000 OA
ATOM      4  O   UNL     1      38.266  -1.923   9.523  0.00  0.00    +0.000 OA
ATOM      5  N   UNL     1      40.873   0.174  10.528  0.00  0.00    +0.000 N 
ATOM      6  N   UNL     1      38.260   0.410   9.821  0.00  0.00    +0.000 N 
ATOM      7  C   UNL     1      40.396  -0.755   9.457  0.00  0.00    +0.000 C 
ATOM      8  C   UNL     1      41.893  -0.402  11.285  0.00  0.00    +0.000 A 
ATOM      9  C   UNL     1      41.167  -1.959   9.759  0.00  0.00    +0.000 C 
ATOM     10  C   UNL     1      39.101   1.642   9.660  0.00  0.00    +0.000 C 
ATOM     11  C   UNL     1      42.030  -1.838  10.857  0.00  0.00    +0.000 A 
ATOM     12  C   UNL     1      40.319   1.445  10.618  0.00  0.00    +0.000 C 
ATOM     13  C   UNL     1      38.878  -0.858   9.624  0.00  0.00    +0.000 C 
ATOM     14  C   UNL     1      42.982   0.253  12.048  0.00  0.00    +0.000 A 
ATOM     15  C   UNL     1      43.236  -2.308  10.998  0.00  0.00    +0.000 A 
ATOM     16  C   UNL     1      44.154  -0.577  12.111  0.00  0.00    +0.000 A 
ATOM     17  C   UNL     1      36.820   0.595   9.999  0.00  0.00    +0.000 C 
ATOM     18  C   UNL     1      44.443  -1.673  11.707  0.00  0.00    +0.000 A 
ENDROOT
BRANCH  14  19
ATOM     19  O   UNL     1      43.078   1.607  12.191  0.00  0.00    +0.000 OA
ATOM     20  H   UNL     1      42.209   2.046  12.287  0.00  0.00    +0.000 HD
ENDBRANCH  14  19
BRANCH  10  21
ATOM     21  C   UNL     1      38.400   2.920   9.957  0.00  0.00    +0.000 C 
BRANCH  21  22
ATOM     22  O   UNL     1      37.763   4.059  10.240  0.00  0.00    +0.000 OA
ATOM     23  H   UNL     1      38.161   4.814   9.766  0.00  0.00    +0.000 HD
ENDBRANCH  21  22
ENDBRANCH  10  21
TORSDOF 3
ENDMDL
MODEL 8
REMARK VINA RESULT:      -5.6     34.522     37.566
REMARK  Name = 6223_Gliotoxin.pdbqt.pdb
REMARK  3 active torsions:
REMARK  status: ('A' for Active; 'I' for Inactive)
REMARK    1  A    between atoms: C_10  and  C_21
REMARK    2  A    between atoms: C_14  and  O_19
REMARK    3  A    between atoms: C_21  and  O_22
REMARK                            x       y       z     vdW  Elec       q    Type
REMARK                         _______ _______ _______ _____ _____    ______ ____
ROOT
ATOM      1  S   UNL     1      18.910 -11.829  41.481  0.00  0.00    +0.000 S 
ATOM      2  S   UNL     1      19.811 -11.379  39.679  0.00  0.00    +0.000 S 
ATOM      3  O   UNL     1      20.898  -8.100  40.780  0.00  0.00    +0.000 OA
ATOM      4  O   UNL     1      15.972  -9.937  40.836  0.00  0.00    +0.000 OA
ATOM      5  N   UNL     1      19.196  -9.142  41.921  0.00  0.00    +0.000 N 
ATOM      6  N   UNL     1      17.876  -9.408  39.561  0.00  0.00    +0.000 N 
ATOM      7  C   UNL     1      18.154 -10.214  41.869  0.00  0.00    +0.000 C 
ATOM      8  C   UNL     1      19.319  -8.614  43.207  0.00  0.00    +0.000 A 
ATOM      9  C   UNL     1      17.617 -10.157  43.227  0.00  0.00    +0.000 C 
ATOM     10  C   UNL     1      19.367  -9.573  39.506  0.00  0.00    +0.000 C 
ATOM     11  C   UNL     1      18.222  -9.201  44.053  0.00  0.00    +0.000 A 
ATOM     12  C   UNL     1      19.916  -8.840  40.772  0.00  0.00    +0.000 C 
ATOM     13  C   UNL     1      17.196  -9.826  40.741  0.00  0.00    +0.000 C 
ATOM     14  C   UNL     1      20.488  -7.967  43.849  0.00  0.00    +0.000 A 
ATOM     15  C   UNL     1      18.535  -9.296  45.314  0.00  0.00    +0.000 A 
ATOM     16  C   UNL     1      20.486  -8.170  45.272  0.00  0.00    +0.000 A 
ATOM     17  C   UNL     1      17.199  -8.991  38.334  0.00  0.00    +0.000 C 
ATOM     18  C   UNL     1      19.755  -8.722  46.051  0.00  0.00    +0.000 A 
ENDROOT
BRANCH  14  19
ATOM     19  O   UNL     1      21.650  -7.706  43.184  0.00  0.00    +0.000 OA
ATOM     20  H   UNL     1      22.188  -8.507  43.020  0.00  0.00    +0.000 HD
ENDBRANCH  14  19
BRANCH  10  21
ATOM     21  C   UNL     1      20.009  -9.044  38.273  0.00  0.00    +0.000 C 
BRANCH  21  22
ATOM     22  O   UNL     1      20.576  -8.552  37.169  0.00  0.00    +0.000 OA
ATOM     23  H   UNL     1      21.547  -8.636  37.203  0.00  0.00    +0.000 HD
ENDBRANCH  21  22
ENDBRANCH  10  21
TORSDOF 3
ENDMDL
MODEL 9
REMARK VINA RESULT:      -5.3     22.470     24.263
REMARK  Name = 6223_Gliotoxin.pdbqt.pdb
REMARK  3 active torsions:
REMARK  status: ('A' for Active; 'I' for Inactive)
REMARK    1  A    between atoms: C_10  and  C_21
REMARK    2  A    between atoms: C_14  and  O_19
REMARK    3  A    between atoms: C_21  and  O_22
REMARK                            x       y       z     vdW  Elec       q    Type
REMARK                         _______ _______ _______ _____ _____    ______ ____
ROOT
ATOM      1  S   UNL     1      48.854 -22.277  15.248  0.00  0.00    +0.000 S 
ATOM      2  S   UNL     1      48.642 -23.931  14.031  0.00  0.00    +0.000 S 
ATOM      3  O   UNL     1      48.388 -21.954  11.003  0.00  0.00    +0.000 OA
ATOM      4  O   UNL     1      45.390 -21.486  15.296  0.00  0.00    +0.000 OA
ATOM      5  N   UNL     1      47.987 -20.936  13.025  0.00  0.00    +0.000 N 
ATOM      6  N   UNL     1      46.141 -22.862  13.543  0.00  0.00    +0.000 N 
ATOM      7  C   UNL     1      47.649 -21.151  14.466  0.00  0.00    +0.000 C 
ATOM      8  C   UNL     1      48.341 -19.609  12.778  0.00  0.00    +0.000 A 
ATOM      9  C   UNL     1      47.734 -19.789  14.986  0.00  0.00    +0.000 C 
ATOM     10  C   UNL     1      47.372 -23.308  12.812  0.00  0.00    +0.000 C 
ATOM     11  C   UNL     1      48.086 -18.822  14.035  0.00  0.00    +0.000 A 
ATOM     12  C   UNL     1      47.959 -22.018  12.154  0.00  0.00    +0.000 C 
ATOM     13  C   UNL     1      46.265 -21.804  14.490  0.00  0.00    +0.000 C 
ATOM     14  C   UNL     1      49.212 -19.052  11.715  0.00  0.00    +0.000 A 
ATOM     15  C   UNL     1      48.875 -17.795  14.172  0.00  0.00    +0.000 A 
ATOM     16  C   UNL     1      49.867 -17.848  12.150  0.00  0.00    +0.000 A 
ATOM     17  C   UNL     1      44.925 -23.656  13.364  0.00  0.00    +0.000 C 
ATOM     18  C   UNL     1      49.857 -17.191  13.156  0.00  0.00    +0.000 A 
ENDROOT
BRANCH  14  19
ATOM     19  O   UNL     1      49.743 -19.813  10.715  0.00  0.00    +0.000 OA
ATOM     20  H   UNL     1      50.642 -20.144  10.920  0.00  0.00    +0.000 HD
ENDBRANCH  14  19
BRANCH  10  21
ATOM     21  C   UNL     1      47.143 -24.362  11.788  0.00  0.00    +0.000 C 
BRANCH  21  22
ATOM     22  O   UNL     1      46.919 -25.308  10.872  0.00  0.00    +0.000 OA
ATOM     23  H   UNL     1      47.660 -25.372  10.241  0.00  0.00    +0.000 HD
ENDBRANCH  21  22
ENDBRANCH  10  21
TORSDOF 3
ENDMDL
