MODEL 1
REMARK VINA RESULT:      -6.7      0.000      0.000
REMARK  Name = 6256_Trifluridine.pdbqt.pdb
REMARK  5 active torsions:
REMARK  status: ('A' for Active; 'I' for Inactive)
REMARK    1  A    between atoms: N_3  and  C1*_11
REMARK    2  A    between atoms: C_7  and  C_23
REMARK    3  A    between atoms: C3*_12  and  O3*_15
REMARK    4  A    between atoms: C4*_14  and  C5*_17
REMARK    5  A    between atoms: C5*_17  and  O5*_18
REMARK                            x       y       z     vdW  Elec       q    Type
REMARK                         _______ _______ _______ _____ _____    ______ ____
ROOT
ATOM      1  O   UNL     1      34.460 -12.449  40.513  0.00  0.00    +0.000 OA
ATOM      2  O   UNL     1      35.082 -15.097  36.817  0.00  0.00    +0.000 OA
ATOM      3  N   UNL     1      35.488 -11.482  38.611  0.00  0.00    +0.000 N 
ATOM      4  N   UNL     1      34.792 -13.721  38.631  0.00  0.00    +0.000 N 
ATOM      5  C   UNL     1      35.878 -11.792  37.359  0.00  0.00    +0.000 A 
ATOM      6  C   UNL     1      34.881 -12.513  39.364  0.00  0.00    +0.000 A 
ATOM      7  C   UNL     1      35.843 -12.849  36.615  0.00  0.00    +0.000 A 
ATOM      8  C   UNL     1      35.217 -13.993  37.325  0.00  0.00    +0.000 A 
ATOM      9  H   UNL     1      34.365 -14.491  39.126  0.00  0.00    +0.000 HD
ENDROOT
BRANCH   3  11
ATOM     10  O4* UNL     1      35.972  -9.144  38.225  0.00  0.00    +0.000 OA
ATOM     11  C1* UNL     1      35.702 -10.218  39.080  0.00  0.00    +0.000 A 
ATOM     12  C3* UNL     1      35.999  -8.396  40.417  0.00  0.00    +0.000 A 
ATOM     13  C2* UNL     1      35.726  -9.775  40.418  0.00  0.00    +0.000 A 
ATOM     14  C4* UNL     1      36.159  -8.017  39.035  0.00  0.00    +0.000 A 
BRANCH  12  15
ATOM     15  O3* UNL     1      36.682  -7.748  41.407  0.00  0.00    +0.000 OA
ATOM     16  H3* UNL     1      36.563  -6.785  41.341  0.00  0.00    +0.000 HD
ENDBRANCH  12  15
BRANCH  14  17
ATOM     17  C5* UNL     1      36.647  -6.796  38.531  0.00  0.00    +0.000 C 
BRANCH  17  18
ATOM     18  O5* UNL     1      37.112  -5.643  38.056  0.00  0.00    +0.000 OA
ATOM     19  H5* UNL     1      36.543  -4.908  38.343  0.00  0.00    +0.000 HD
ENDBRANCH  17  18
ENDBRANCH  14  17
ENDBRANCH   3  11
BRANCH   7  23
ATOM     20  F   UNL     1      35.397 -13.608  34.436  0.00  0.00    +0.000 F 
ATOM     21  F   UNL     1      36.702 -11.887  34.659  0.00  0.00    +0.000 F 
ATOM     22  F   UNL     1      37.429 -13.858  35.205  0.00  0.00    +0.000 F 
ATOM     23  C   UNL     1      36.335 -13.059  35.247  0.00  0.00    +0.000 C 
ENDBRANCH   7  23
TORSDOF 5
ENDMDL
MODEL 2
REMARK VINA RESULT:      -6.6     25.568     27.045
REMARK  Name = 6256_Trifluridine.pdbqt.pdb
REMARK  5 active torsions:
REMARK  status: ('A' for Active; 'I' for Inactive)
REMARK    1  A    between atoms: N_3  and  C1*_11
REMARK    2  A    between atoms: C_7  and  C_23
REMARK    3  A    between atoms: C3*_12  and  O3*_15
REMARK    4  A    between atoms: C4*_14  and  C5*_17
REMARK    5  A    between atoms: C5*_17  and  O5*_18
REMARK                            x       y       z     vdW  Elec       q    Type
REMARK                         _______ _______ _______ _____ _____    ______ ____
ROOT
ATOM      1  O   UNL     1      43.256   7.943  17.402  0.00  0.00    +0.000 OA
ATOM      2  O   UNL     1      38.800   7.211  18.220  0.00  0.00    +0.000 OA
ATOM      3  N   UNL     1      42.527   7.918  19.655  0.00  0.00    +0.000 N 
ATOM      4  N   UNL     1      41.040   7.575  17.875  0.00  0.00    +0.000 N 
ATOM      5  C   UNL     1      41.412   7.759  20.395  0.00  0.00    +0.000 A 
ATOM      6  C   UNL     1      42.381   7.828  18.252  0.00  0.00    +0.000 A 
ATOM      7  C   UNL     1      40.164   7.532  20.147  0.00  0.00    +0.000 A 
ATOM      8  C   UNL     1      39.910   7.419  18.688  0.00  0.00    +0.000 A 
ATOM      9  H   UNL     1      40.882   7.502  16.880  0.00  0.00    +0.000 HD
ENDROOT
BRANCH   3  11
ATOM     10  O4* UNL     1      44.252   7.271  21.222  0.00  0.00    +0.000 OA
ATOM     11  C1* UNL     1      43.714   8.160  20.286  0.00  0.00    +0.000 A 
ATOM     12  C3* UNL     1      45.658   9.099  21.014  0.00  0.00    +0.000 A 
ATOM     13  C2* UNL     1      44.558   9.281  20.159  0.00  0.00    +0.000 A 
ATOM     14  C4* UNL     1      45.449   7.838  21.680  0.00  0.00    +0.000 A 
BRANCH  12  15
ATOM     15  O3* UNL     1      46.326  10.119  21.632  0.00  0.00    +0.000 OA
ATOM     16  H3* UNL     1      45.967  10.983  21.367  0.00  0.00    +0.000 HD
ENDBRANCH  12  15
BRANCH  14  17
ATOM     17  C5* UNL     1      46.161   7.318  22.778  0.00  0.00    +0.000 C 
BRANCH  17  18
ATOM     18  O5* UNL     1      46.832   6.830  23.817  0.00  0.00    +0.000 OA
ATOM     19  H5* UNL     1      46.343   6.088  24.214  0.00  0.00    +0.000 HD
ENDBRANCH  17  18
ENDBRANCH  14  17
ENDBRANCH   3  11
BRANCH   7  23
ATOM     20  F   UNL     1      37.996   8.223  20.741  0.00  0.00    +0.000 F 
ATOM     21  F   UNL     1      38.515   6.139  21.059  0.00  0.00    +0.000 F 
ATOM     22  F   UNL     1      39.364   7.661  22.353  0.00  0.00    +0.000 F 
ATOM     23  C   UNL     1      39.026   7.401  21.066  0.00  0.00    +0.000 C 
ENDBRANCH   7  23
TORSDOF 5
ENDMDL
MODEL 3
REMARK VINA RESULT:      -6.3     18.151     19.275
REMARK  Name = 6256_Trifluridine.pdbqt.pdb
REMARK  5 active torsions:
REMARK  status: ('A' for Active; 'I' for Inactive)
REMARK    1  A    between atoms: N_3  and  C1*_11
REMARK    2  A    between atoms: C_7  and  C_23
REMARK    3  A    between atoms: C3*_12  and  O3*_15
REMARK    4  A    between atoms: C4*_14  and  C5*_17
REMARK    5  A    between atoms: C5*_17  and  O5*_18
REMARK                            x       y       z     vdW  Elec       q    Type
REMARK                         _______ _______ _______ _____ _____    ______ ____
ROOT
ATOM      1  O   UNL     1      23.209 -16.223  24.684  0.00  0.00    +0.000 OA
ATOM      2  O   UNL     1      20.088 -12.992  25.622  0.00  0.00    +0.000 OA
ATOM      3  N   UNL     1      23.724 -13.981  24.123  0.00  0.00    +0.000 N 
ATOM      4  N   UNL     1      21.690 -14.561  25.135  0.00  0.00    +0.000 N 
ATOM      5  C   UNL     1      23.202 -12.739  24.178  0.00  0.00    +0.000 A 
ATOM      6  C   UNL     1      22.931 -15.030  24.638  0.00  0.00    +0.000 A 
ATOM      7  C   UNL     1      22.097 -12.220  24.602  0.00  0.00    +0.000 A 
ATOM      8  C   UNL     1      21.192 -13.253  25.166  0.00  0.00    +0.000 A 
ATOM      9  H   UNL     1      21.084 -15.275  25.514  0.00  0.00    +0.000 HD
ENDROOT
BRANCH   3  11
ATOM     10  O4* UNL     1      25.914 -13.130  23.546  0.00  0.00    +0.000 OA
ATOM     11  C1* UNL     1      24.964 -14.157  23.578  0.00  0.00    +0.000 A 
ATOM     12  C3* UNL     1      26.799 -15.016  22.534  0.00  0.00    +0.000 A 
ATOM     13  C2* UNL     1      25.490 -15.306  22.956  0.00  0.00    +0.000 A 
ATOM     14  C4* UNL     1      27.048 -13.645  22.904  0.00  0.00    +0.000 A 
BRANCH  12  15
ATOM     15  O3* UNL     1      27.389 -15.564  21.431  0.00  0.00    +0.000 OA
ATOM     16  H3* UNL     1      26.937 -16.384  21.165  0.00  0.00    +0.000 HD
ENDBRANCH  12  15
BRANCH  14  17
ATOM     17  C5* UNL     1      28.130 -12.832  22.513  0.00  0.00    +0.000 C 
BRANCH  17  18
ATOM     18  O5* UNL     1      29.154 -12.068  22.145  0.00  0.00    +0.000 OA
ATOM     19  H5* UNL     1      29.923 -12.620  21.924  0.00  0.00    +0.000 HD
ENDBRANCH  17  18
ENDBRANCH  14  17
ENDBRANCH   3  11
BRANCH   7  23
ATOM     20  F   UNL     1      21.573 -10.278  25.818  0.00  0.00    +0.000 F 
ATOM     21  F   UNL     1      22.477 -10.031  23.859  0.00  0.00    +0.000 F 
ATOM     22  F   UNL     1      20.414 -10.690  24.009  0.00  0.00    +0.000 F 
ATOM     23  C   UNL     1      21.637 -10.825  24.578  0.00  0.00    +0.000 C 
ENDBRANCH   7  23
TORSDOF 5
ENDMDL
MODEL 4
REMARK VINA RESULT:      -6.2     18.805     21.680
REMARK  Name = 6256_Trifluridine.pdbqt.pdb
REMARK  5 active torsions:
REMARK  status: ('A' for Active; 'I' for Inactive)
REMARK    1  A    between atoms: N_3  and  C1*_11
REMARK    2  A    between atoms: C_7  and  C_23
REMARK    3  A    between atoms: C3*_12  and  O3*_15
REMARK    4  A    between atoms: C4*_14  and  C5*_17
REMARK    5  A    between atoms: C5*_17  and  O5*_18
REMARK                            x       y       z     vdW  Elec       q    Type
REMARK                         _______ _______ _______ _____ _____    ______ ____
ROOT
ATOM      1  O   UNL     1      51.636   2.635  28.309  0.00  0.00    +0.000 OA
ATOM      2  O   UNL     1      49.989   6.761  29.461  0.00  0.00    +0.000 OA
ATOM      3  N   UNL     1      49.897   2.731  29.915  0.00  0.00    +0.000 N 
ATOM      4  N   UNL     1      50.766   4.670  28.921  0.00  0.00    +0.000 N 
ATOM      5  C   UNL     1      49.114   3.618  30.560  0.00  0.00    +0.000 A 
ATOM      6  C   UNL     1      50.833   3.257  28.995  0.00  0.00    +0.000 A 
ATOM      7  C   UNL     1      48.983   4.904  30.564  0.00  0.00    +0.000 A 
ATOM      8  C   UNL     1      49.931   5.550  29.620  0.00  0.00    +0.000 A 
ATOM      9  H   UNL     1      51.417   5.095  28.277  0.00  0.00    +0.000 HD
ENDROOT
BRANCH   3  11
ATOM     10  O4* UNL     1      48.942   0.569  29.402  0.00  0.00    +0.000 OA
ATOM     11  C1* UNL     1      49.754   1.400  30.182  0.00  0.00    +0.000 A 
ATOM     12  C3* UNL     1      49.879  -0.675  31.116  0.00  0.00    +0.000 A 
ATOM     13  C2* UNL     1      50.321   0.654  31.234  0.00  0.00    +0.000 A 
ATOM     14  C4* UNL     1      49.009  -0.711  29.967  0.00  0.00    +0.000 A 
BRANCH  12  15
ATOM     15  O3* UNL     1      49.680  -1.515  32.175  0.00  0.00    +0.000 OA
ATOM     16  H3* UNL     1      50.527  -1.769  32.583  0.00  0.00    +0.000 HD
ENDBRANCH  12  15
BRANCH  14  17
ATOM     17  C5* UNL     1      48.160  -1.760  29.566  0.00  0.00    +0.000 C 
BRANCH  17  18
ATOM     18  O5* UNL     1      47.359  -2.753  29.190  0.00  0.00    +0.000 OA
ATOM     19  H5* UNL     1      47.623  -3.582  29.626  0.00  0.00    +0.000 HD
ENDBRANCH  17  18
ENDBRANCH  14  17
ENDBRANCH   3  11
BRANCH   7  23
ATOM     20  F   UNL     1      47.446   6.683  30.588  0.00  0.00    +0.000 F 
ATOM     21  F   UNL     1      47.111   5.038  31.966  0.00  0.00    +0.000 F 
ATOM     22  F   UNL     1      48.738   6.428  32.336  0.00  0.00    +0.000 F 
ATOM     23  C   UNL     1      48.087   5.761  31.350  0.00  0.00    +0.000 C 
ENDBRANCH   7  23
TORSDOF 5
ENDMDL
MODEL 5
REMARK VINA RESULT:      -5.7     34.760     36.811
REMARK  Name = 6256_Trifluridine.pdbqt.pdb
REMARK  5 active torsions:
REMARK  status: ('A' for Active; 'I' for Inactive)
REMARK    1  A    between atoms: N_3  and  C1*_11
REMARK    2  A    between atoms: C_7  and  C_23
REMARK    3  A    between atoms: C3*_12  and  O3*_15
REMARK    4  A    between atoms: C4*_14  and  C5*_17
REMARK    5  A    between atoms: C5*_17  and  O5*_18
REMARK                            x       y       z     vdW  Elec       q    Type
REMARK                         _______ _______ _______ _____ _____    ______ ____
ROOT
ATOM      1  O   UNL     1      29.637  24.654  26.537  0.00  0.00    +0.000 OA
ATOM      2  O   UNL     1      32.181  22.973  29.967  0.00  0.00    +0.000 OA
ATOM      3  N   UNL     1      28.517  23.647  28.365  0.00  0.00    +0.000 N 
ATOM      4  N   UNL     1      30.855  23.801  28.287  0.00  0.00    +0.000 N 
ATOM      5  C   UNL     1      28.766  23.042  29.543  0.00  0.00    +0.000 A 
ATOM      6  C   UNL     1      29.637  24.088  27.625  0.00  0.00    +0.000 A 
ATOM      7  C   UNL     1      29.824  22.736  30.219  0.00  0.00    +0.000 A 
ATOM      8  C   UNL     1      31.061  23.163  29.516  0.00  0.00    +0.000 A 
ATOM      9  H   UNL     1      31.688  24.095  27.797  0.00  0.00    +0.000 HD
ENDROOT
BRANCH   3  11
ATOM     10  O4* UNL     1      26.427  22.700  27.601  0.00  0.00    +0.000 OA
ATOM     11  C1* UNL     1      27.223  23.795  27.954  0.00  0.00    +0.000 A 
ATOM     12  C3* UNL     1      25.205  24.648  27.327  0.00  0.00    +0.000 A 
ATOM     13  C2* UNL     1      26.492  24.986  27.782  0.00  0.00    +0.000 A 
ATOM     14  C4* UNL     1      25.182  23.212  27.212  0.00  0.00    +0.000 A 
BRANCH  12  15
ATOM     15  O3* UNL     1      24.453  25.433  26.499  0.00  0.00    +0.000 OA
ATOM     16  H3* UNL     1      24.251  26.288  26.917  0.00  0.00    +0.000 HD
ENDBRANCH  12  15
BRANCH  14  17
ATOM     17  C5* UNL     1      24.195  22.415  26.600  0.00  0.00    +0.000 C 
BRANCH  17  18
ATOM     18  O5* UNL     1      23.265  21.660  26.022  0.00  0.00    +0.000 OA
ATOM     19  H5* UNL     1      23.142  21.928  25.095  0.00  0.00    +0.000 HD
ENDBRANCH  17  18
ENDBRANCH  14  17
ENDBRANCH   3  11
BRANCH   7  23
ATOM     20  F   UNL     1      30.837  21.009  31.453  0.00  0.00    +0.000 F 
ATOM     21  F   UNL     1      30.411  22.873  32.483  0.00  0.00    +0.000 F 
ATOM     22  F   UNL     1      28.776  21.546  31.954  0.00  0.00    +0.000 F 
ATOM     23  C   UNL     1      29.956  22.040  31.506  0.00  0.00    +0.000 C 
ENDBRANCH   7  23
TORSDOF 5
ENDMDL
MODEL 6
REMARK VINA RESULT:      -5.6     19.918     22.916
REMARK  Name = 6256_Trifluridine.pdbqt.pdb
REMARK  5 active torsions:
REMARK  status: ('A' for Active; 'I' for Inactive)
REMARK    1  A    between atoms: N_3  and  C1*_11
REMARK    2  A    between atoms: C_7  and  C_23
REMARK    3  A    between atoms: C3*_12  and  O3*_15
REMARK    4  A    between atoms: C4*_14  and  C5*_17
REMARK    5  A    between atoms: C5*_17  and  O5*_18
REMARK                            x       y       z     vdW  Elec       q    Type
REMARK                         _______ _______ _______ _____ _____    ______ ____
ROOT
ATOM      1  O   UNL     1      50.805   4.724  27.072  0.00  0.00    +0.000 OA
ATOM      2  O   UNL     1      50.249   7.950  30.289  0.00  0.00    +0.000 OA
ATOM      3  N   UNL     1      50.138   4.034  29.237  0.00  0.00    +0.000 N 
ATOM      4  N   UNL     1      50.504   6.292  28.722  0.00  0.00    +0.000 N 
ATOM      5  C   UNL     1      49.853   4.534  30.456  0.00  0.00    +0.000 A 
ATOM      6  C   UNL     1      50.506   4.962  28.237  0.00  0.00    +0.000 A 
ATOM      7  C   UNL     1      49.827   5.712  30.988  0.00  0.00    +0.000 A 
ATOM      8  C   UNL     1      50.201   6.761  30.007  0.00  0.00    +0.000 A 
ATOM      9  H   UNL     1      50.762   6.995  28.044  0.00  0.00    +0.000 HD
ENDROOT
BRANCH   3  11
ATOM     10  O4* UNL     1      48.913   1.951  29.345  0.00  0.00    +0.000 OA
ATOM     11  C1* UNL     1      50.064   2.685  29.039  0.00  0.00    +0.000 A 
ATOM     12  C3* UNL     1      50.538   0.514  28.535  0.00  0.00    +0.000 A 
ATOM     13  C2* UNL     1      51.063   1.818  28.554  0.00  0.00    +0.000 A 
ATOM     14  C4* UNL     1      49.192   0.613  29.041  0.00  0.00    +0.000 A 
BRANCH  12  15
ATOM     15  O3* UNL     1      51.281  -0.616  28.731  0.00  0.00    +0.000 OA
ATOM     16  H3* UNL     1      50.791  -1.409  28.453  0.00  0.00    +0.000 HD
ENDBRANCH  12  15
BRANCH  14  17
ATOM     17  C5* UNL     1      48.334  -0.441  29.411  0.00  0.00    +0.000 C 
BRANCH  17  18
ATOM     18  O5* UNL     1      47.521  -1.434  29.763  0.00  0.00    +0.000 OA
ATOM     19  H5* UNL     1      48.009  -2.275  29.786  0.00  0.00    +0.000 HD
ENDBRANCH  17  18
ENDBRANCH  14  17
ENDBRANCH   3  11
BRANCH   7  23
ATOM     20  F   UNL     1      48.199   6.402  32.538  0.00  0.00    +0.000 F 
ATOM     21  F   UNL     1      49.813   5.140  33.260  0.00  0.00    +0.000 F 
ATOM     22  F   UNL     1      50.220   7.212  32.755  0.00  0.00    +0.000 F 
ATOM     23  C   UNL     1      49.515   6.121  32.364  0.00  0.00    +0.000 C 
ENDBRANCH   7  23
TORSDOF 5
ENDMDL
MODEL 7
REMARK VINA RESULT:      -5.6     34.851     35.904
REMARK  Name = 6256_Trifluridine.pdbqt.pdb
REMARK  5 active torsions:
REMARK  status: ('A' for Active; 'I' for Inactive)
REMARK    1  A    between atoms: N_3  and  C1*_11
REMARK    2  A    between atoms: C_7  and  C_23
REMARK    3  A    between atoms: C3*_12  and  O3*_15
REMARK    4  A    between atoms: C4*_14  and  C5*_17
REMARK    5  A    between atoms: C5*_17  and  O5*_18
REMARK                            x       y       z     vdW  Elec       q    Type
REMARK                         _______ _______ _______ _____ _____    ______ ____
ROOT
ATOM      1  O   UNL     1      27.291  21.351  33.107  0.00  0.00    +0.000 OA
ATOM      2  O   UNL     1      23.724  22.028  30.299  0.00  0.00    +0.000 OA
ATOM      3  N   UNL     1      27.690  22.440  31.042  0.00  0.00    +0.000 N 
ATOM      4  N   UNL     1      25.545  21.725  31.662  0.00  0.00    +0.000 N 
ATOM      5  C   UNL     1      27.046  22.856  29.934  0.00  0.00    +0.000 A 
ATOM      6  C   UNL     1      26.910  21.804  32.034  0.00  0.00    +0.000 A 
ATOM      7  C   UNL     1      25.825  22.826  29.509  0.00  0.00    +0.000 A 
ATOM      8  C   UNL     1      24.923  22.173  30.491  0.00  0.00    +0.000 A 
ATOM      9  H   UNL     1      24.944  21.276  32.339  0.00  0.00    +0.000 HD
ENDROOT
BRANCH   3  11
ATOM     10  O4* UNL     1      29.580  23.599  32.009  0.00  0.00    +0.000 OA
ATOM     11  C1* UNL     1      29.037  22.643  31.144  0.00  0.00    +0.000 A 
ATOM     12  C3* UNL     1      31.296  22.553  30.858  0.00  0.00    +0.000 A 
ATOM     13  C2* UNL     1      30.072  22.008  30.431  0.00  0.00    +0.000 A 
ATOM     14  C4* UNL     1      30.970  23.555  31.842  0.00  0.00    +0.000 A 
BRANCH  12  15
ATOM     15  O3* UNL     1      32.398  22.682  30.061  0.00  0.00    +0.000 OA
ATOM     16  H3* UNL     1      32.223  22.344  29.165  0.00  0.00    +0.000 HD
ENDBRANCH  12  15
BRANCH  14  17
ATOM     17  C5* UNL     1      31.831  24.518  32.404  0.00  0.00    +0.000 C 
BRANCH  17  18
ATOM     18  O5* UNL     1      32.642  25.430  32.931  0.00  0.00    +0.000 OA
ATOM     19  H5* UNL     1      32.865  26.106  32.267  0.00  0.00    +0.000 HD
ENDBRANCH  17  18
ENDBRANCH  14  17
ENDBRANCH   3  11
BRANCH   7  23
ATOM     20  F   UNL     1      24.644  22.317  27.541  0.00  0.00    +0.000 F 
ATOM     21  F   UNL     1      24.302  24.259  28.452  0.00  0.00    +0.000 F 
ATOM     22  F   UNL     1      26.180  23.872  27.434  0.00  0.00    +0.000 F 
ATOM     23  C   UNL     1      25.252  23.305  28.244  0.00  0.00    +0.000 C 
ENDBRANCH   7  23
TORSDOF 5
ENDMDL
MODEL 8
REMARK VINA RESULT:      -5.6     33.351     34.804
REMARK  Name = 6256_Trifluridine.pdbqt.pdb
REMARK  5 active torsions:
REMARK  status: ('A' for Active; 'I' for Inactive)
REMARK    1  A    between atoms: N_3  and  C1*_11
REMARK    2  A    between atoms: C_7  and  C_23
REMARK    3  A    between atoms: C3*_12  and  O3*_15
REMARK    4  A    between atoms: C4*_14  and  C5*_17
REMARK    5  A    between atoms: C5*_17  and  O5*_18
REMARK                            x       y       z     vdW  Elec       q    Type
REMARK                         _______ _______ _______ _____ _____    ______ ____
ROOT
ATOM      1  O   UNL     1      20.013   0.165   6.280  0.00  0.00    +0.000 OA
ATOM      2  O   UNL     1      18.125   0.283  10.461  0.00  0.00    +0.000 OA
ATOM      3  N   UNL     1      21.083  -1.035   8.019  0.00  0.00    +0.000 N 
ATOM      4  N   UNL     1      19.112   0.180   8.392  0.00  0.00    +0.000 N 
ATOM      5  C   UNL     1      20.958  -1.313   9.332  0.00  0.00    +0.000 A 
ATOM      6  C   UNL     1      20.090  -0.211   7.444  0.00  0.00    +0.000 A 
ATOM      7  C   UNL     1      20.119  -1.005  10.266  0.00  0.00    +0.000 A 
ATOM      8  C   UNL     1      19.030  -0.136   9.753  0.00  0.00    +0.000 A 
ATOM      9  H   UNL     1      18.379   0.773   8.030  0.00  0.00    +0.000 HD
ENDROOT
BRANCH   3  11
ATOM     10  O4* UNL     1      23.396  -0.924   7.322  0.00  0.00    +0.000 OA
ATOM     11  C1* UNL     1      22.144  -1.548   7.329  0.00  0.00    +0.000 A 
ATOM     12  C3* UNL     1      23.485  -2.824   6.000  0.00  0.00    +0.000 A 
ATOM     13  C2* UNL     1      22.184  -2.700   6.520  0.00  0.00    +0.000 A 
ATOM     14  C4* UNL     1      24.231  -1.699   6.506  0.00  0.00    +0.000 A 
BRANCH  12  15
ATOM     15  O3* UNL     1      23.776  -3.371   4.782  0.00  0.00    +0.000 OA
ATOM     16  H3* UNL     1      23.092  -4.009   4.514  0.00  0.00    +0.000 HD
ENDBRANCH  12  15
BRANCH  14  17
ATOM     17  C5* UNL     1      25.510  -1.266   6.104  0.00  0.00    +0.000 C 
BRANCH  17  18
ATOM     18  O5* UNL     1      26.718  -0.858   5.728  0.00  0.00    +0.000 OA
ATOM     19  H5* UNL     1      26.711  -0.607   4.788  0.00  0.00    +0.000 HD
ENDBRANCH  17  18
ENDBRANCH  14  17
ENDBRANCH   3  11
BRANCH   7  23
ATOM     20  F   UNL     1      21.185  -2.122  12.039  0.00  0.00    +0.000 F 
ATOM     21  F   UNL     1      20.158  -0.262  12.487  0.00  0.00    +0.000 F 
ATOM     22  F   UNL     1      18.999  -2.045  12.051  0.00  0.00    +0.000 F 
ATOM     23  C   UNL     1      20.115  -1.365  11.690  0.00  0.00    +0.000 C 
ENDBRANCH   7  23
TORSDOF 5
ENDMDL
MODEL 9
REMARK VINA RESULT:      -5.5     15.996     17.113
REMARK  Name = 6256_Trifluridine.pdbqt.pdb
REMARK  5 active torsions:
REMARK  status: ('A' for Active; 'I' for Inactive)
REMARK    1  A    between atoms: N_3  and  C1*_11
REMARK    2  A    between atoms: C_7  and  C_23
REMARK    3  A    between atoms: C3*_12  and  O3*_15
REMARK    4  A    between atoms: C4*_14  and  C5*_17
REMARK    5  A    between atoms: C5*_17  and  O5*_18
REMARK                            x       y       z     vdW  Elec       q    Type
REMARK                         _______ _______ _______ _____ _____    ______ ____
ROOT
ATOM      1  O   UNL     1      18.843 -10.155  46.384  0.00  0.00    +0.000 OA
ATOM      2  O   UNL     1      17.766  -8.782  42.139  0.00  0.00    +0.000 OA
ATOM      3  N   UNL     1      20.516  -9.070  45.107  0.00  0.00    +0.000 N 
ATOM      4  N   UNL     1      18.363  -9.438  44.256  0.00  0.00    +0.000 N 
ATOM      5  C   UNL     1      20.714  -8.509  43.897  0.00  0.00    +0.000 A 
ATOM      6  C   UNL     1      19.233  -9.603  45.361  0.00  0.00    +0.000 A 
ATOM      7  C   UNL     1      19.996  -8.318  42.839  0.00  0.00    +0.000 A 
ATOM      8  C   UNL     1      18.619  -8.848  43.013  0.00  0.00    +0.000 A 
ATOM      9  H   UNL     1      17.431  -9.805  44.387  0.00  0.00    +0.000 HD
ENDROOT
BRANCH   3  11
ATOM     10  O4* UNL     1      21.423  -9.701  47.258  0.00  0.00    +0.000 OA
ATOM     11  C1* UNL     1      21.547  -9.099  46.002  0.00  0.00    +0.000 A 
ATOM     12  C3* UNL     1      23.550  -8.808  47.050  0.00  0.00    +0.000 A 
ATOM     13  C2* UNL     1      22.835  -8.544  45.869  0.00  0.00    +0.000 A 
ATOM     14  C4* UNL     1      22.648  -9.528  47.915  0.00  0.00    +0.000 A 
BRANCH  12  15
ATOM     15  O3* UNL     1      24.512  -7.987  47.565  0.00  0.00    +0.000 OA
ATOM     16  H3* UNL     1      25.368  -8.447  47.626  0.00  0.00    +0.000 HD
ENDBRANCH  12  15
BRANCH  14  17
ATOM     17  C5* UNL     1      22.824  -9.829  49.280  0.00  0.00    +0.000 C 
BRANCH  17  18
ATOM     18  O5* UNL     1      22.991 -10.117  50.567  0.00  0.00    +0.000 OA
ATOM     19  H5* UNL     1      22.132 -10.131  51.023  0.00  0.00    +0.000 HD
ENDBRANCH  17  18
ENDBRANCH  14  17
ENDBRANCH   3  11
BRANCH   7  23
ATOM     20  F   UNL     1      19.342  -6.952  41.041  0.00  0.00    +0.000 F 
ATOM     21  F   UNL     1      21.417  -6.862  41.676  0.00  0.00    +0.000 F 
ATOM     22  F   UNL     1      20.698  -8.616  40.617  0.00  0.00    +0.000 F 
ATOM     23  C   UNL     1      20.350  -7.701  41.555  0.00  0.00    +0.000 C 
ENDBRANCH   7  23
TORSDOF 5
ENDMDL
