MODEL 1
REMARK VINA RESULT:      -6.8      0.000      0.000
REMARK  Name = 6323266_Tipiracil.pdbqt.pdb
REMARK  2 active torsions:
REMARK  status: ('A' for Active; 'I' for Inactive)
REMARK    1  A    between atoms: C_6  and  C_12
REMARK    2  A    between atoms: C_12  and  N_13
REMARK                            x       y       z     vdW  Elec       q    Type
REMARK                         _______ _______ _______ _____ _____    ______ ____
ROOT
ATOM      1 CL   UNL     1      37.010  -1.861  15.111  0.00  0.00    +0.000 Cl
ATOM      2  O   UNL     1      35.384  -1.511  17.613  0.00  0.00    +0.000 OA
ATOM      3  O   UNL     1      34.661   2.948  17.274  0.00  0.00    +0.000 OA
ATOM      4  N   UNL     1      35.879   1.919  15.660  0.00  0.00    +0.000 N 
ATOM      5  N   UNL     1      35.019   0.714  17.430  0.00  0.00    +0.000 N 
ATOM      6  C   UNL     1      36.446   0.793  15.120  0.00  0.00    +0.000 A 
ATOM      7  C   UNL     1      36.325  -0.401  15.715  0.00  0.00    +0.000 A 
ATOM      8  C   UNL     1      35.549  -0.469  16.985  0.00  0.00    +0.000 A 
ATOM      9  C   UNL     1      35.155   1.924  16.816  0.00  0.00    +0.000 A 
ATOM     10  H   UNL     1      35.989   2.814  15.190  0.00  0.00    +0.000 HD
ATOM     11  H   UNL     1      34.490   0.691  18.289  0.00  0.00    +0.000 HD
ENDROOT
BRANCH   6  12
ATOM     12  C   UNL     1      37.161   0.989  13.907  0.00  0.00    +0.000 C 
BRANCH  12  13
ATOM     13  N   UNL     1      37.778   1.173  12.608  0.00  0.00    +0.000 N 
ATOM     14  N   UNL     1      39.212  -0.837  12.633  0.00  0.00    +0.000 NA
ATOM     15  C   UNL     1      36.904   1.485  11.477  0.00  0.00    +0.000 C 
ATOM     16  C   UNL     1      36.981   0.775  10.130  0.00  0.00    +0.000 C 
ATOM     17  C   UNL     1      38.079  -0.100  10.736  0.00  0.00    +0.000 C 
ATOM     18  C   UNL     1      38.455   0.061  12.124  0.00  0.00    +0.000 C 
ATOM     19  H   UNL     1      39.486  -1.527  11.924  0.00  0.00    +0.000 HD
ENDBRANCH  12  13
ENDBRANCH   6  12
TORSDOF 2
ENDMDL
MODEL 2
REMARK VINA RESULT:      -6.7      2.194      3.217
REMARK  Name = 6323266_Tipiracil.pdbqt.pdb
REMARK  2 active torsions:
REMARK  status: ('A' for Active; 'I' for Inactive)
REMARK    1  A    between atoms: C_6  and  C_12
REMARK    2  A    between atoms: C_12  and  N_13
REMARK                            x       y       z     vdW  Elec       q    Type
REMARK                         _______ _______ _______ _____ _____    ______ ____
ROOT
ATOM      1 CL   UNL     1      35.738   2.159  13.153  0.00  0.00    +0.000 Cl
ATOM      2  O   UNL     1      35.139   1.088  15.895  0.00  0.00    +0.000 OA
ATOM      3  O   UNL     1      37.748  -2.610  15.710  0.00  0.00    +0.000 OA
ATOM      4  N   UNL     1      37.684  -1.233  13.907  0.00  0.00    +0.000 N 
ATOM      5  N   UNL     1      36.452  -0.751  15.797  0.00  0.00    +0.000 N 
ATOM      6  C   UNL     1      37.226  -0.106  13.274  0.00  0.00    +0.000 A 
ATOM      7  C   UNL     1      36.368   0.729  13.875  0.00  0.00    +0.000 A 
ATOM      8  C   UNL     1      35.926   0.395  15.259  0.00  0.00    +0.000 A 
ATOM      9  C   UNL     1      37.322  -1.594  15.172  0.00  0.00    +0.000 A 
ATOM     10  H   UNL     1      38.332  -1.853  13.427  0.00  0.00    +0.000 HD
ATOM     11  H   UNL     1      36.166  -0.996  16.734  0.00  0.00    +0.000 HD
ENDROOT
BRANCH   6  12
ATOM     12  C   UNL     1      37.721   0.101  11.958  0.00  0.00    +0.000 C 
BRANCH  12  13
ATOM     13  N   UNL     1      38.103   0.323  10.577  0.00  0.00    +0.000 N 
ATOM     14  N   UNL     1      39.231  -1.840  10.192  0.00  0.00    +0.000 NA
ATOM     15  C   UNL     1      37.083   0.836   9.662  0.00  0.00    +0.000 C 
ATOM     16  C   UNL     1      36.809   0.244   8.284  0.00  0.00    +0.000 C 
ATOM     17  C   UNL     1      37.873  -0.807   8.606  0.00  0.00    +0.000 C 
ATOM     18  C   UNL     1      38.521  -0.815   9.899  0.00  0.00    +0.000 C 
ATOM     19  H   UNL     1      39.273  -2.492   9.401  0.00  0.00    +0.000 HD
ENDBRANCH  12  13
ENDBRANCH   6  12
TORSDOF 2
ENDMDL
MODEL 3
REMARK VINA RESULT:      -5.9     12.800     13.617
REMARK  Name = 6323266_Tipiracil.pdbqt.pdb
REMARK  2 active torsions:
REMARK  status: ('A' for Active; 'I' for Inactive)
REMARK    1  A    between atoms: C_6  and  C_12
REMARK    2  A    between atoms: C_12  and  N_13
REMARK                            x       y       z     vdW  Elec       q    Type
REMARK                         _______ _______ _______ _____ _____    ______ ____
ROOT
ATOM      1 CL   UNL     1      48.446   5.217  18.904  0.00  0.00    +0.000 Cl
ATOM      2  O   UNL     1      49.364   2.364  19.109  0.00  0.00    +0.000 OA
ATOM      3  O   UNL     1      46.257   0.916  22.070  0.00  0.00    +0.000 OA
ATOM      4  N   UNL     1      46.197   3.085  21.405  0.00  0.00    +0.000 N 
ATOM      5  N   UNL     1      47.802   1.647  20.580  0.00  0.00    +0.000 N 
ATOM      6  C   UNL     1      46.693   4.126  20.662  0.00  0.00    +0.000 A 
ATOM      7  C   UNL     1      47.756   3.966  19.863  0.00  0.00    +0.000 A 
ATOM      8  C   UNL     1      48.383   2.615  19.803  0.00  0.00    +0.000 A 
ATOM      9  C   UNL     1      46.722   1.826  21.393  0.00  0.00    +0.000 A 
ATOM     10  H   UNL     1      45.391   3.233  22.007  0.00  0.00    +0.000 HD
ATOM     11  H   UNL     1      48.212   0.725  20.555  0.00  0.00    +0.000 HD
ENDROOT
BRANCH   6  12
ATOM     12  C   UNL     1      46.007   5.362  20.807  0.00  0.00    +0.000 C 
BRANCH  12  13
ATOM     13  N   UNL     1      45.422   6.679  20.968  0.00  0.00    +0.000 N 
ATOM     14  N   UNL     1      46.290   7.153  23.231  0.00  0.00    +0.000 NA
ATOM     15  C   UNL     1      45.572   7.630  19.868  0.00  0.00    +0.000 C 
ATOM     16  C   UNL     1      46.025   9.074  20.055  0.00  0.00    +0.000 C 
ATOM     17  C   UNL     1      46.180   8.755  21.543  0.00  0.00    +0.000 C 
ATOM     18  C   UNL     1      45.932   7.415  22.030  0.00  0.00    +0.000 C 
ATOM     19  H   UNL     1      46.659   7.993  23.692  0.00  0.00    +0.000 HD
ENDBRANCH  12  13
ENDBRANCH   6  12
TORSDOF 2
ENDMDL
MODEL 4
REMARK VINA RESULT:      -5.8     15.262     15.789
REMARK  Name = 6323266_Tipiracil.pdbqt.pdb
REMARK  2 active torsions:
REMARK  status: ('A' for Active; 'I' for Inactive)
REMARK    1  A    between atoms: C_6  and  C_12
REMARK    2  A    between atoms: C_12  and  N_13
REMARK                            x       y       z     vdW  Elec       q    Type
REMARK                         _______ _______ _______ _____ _____    ______ ____
ROOT
ATOM      1 CL   UNL     1      20.039  -0.516   6.464  0.00  0.00    +0.000 Cl
ATOM      2  O   UNL     1      18.638  -0.819   9.105  0.00  0.00    +0.000 OA
ATOM      3  O   UNL     1      22.312  -1.011  11.748  0.00  0.00    +0.000 OA
ATOM      4  N   UNL     1      22.595  -0.774   9.508  0.00  0.00    +0.000 N 
ATOM      5  N   UNL     1      20.479  -0.903  10.418  0.00  0.00    +0.000 N 
ATOM      6  C   UNL     1      22.085  -0.652   8.241  0.00  0.00    +0.000 A 
ATOM      7  C   UNL     1      20.763  -0.656   8.020  0.00  0.00    +0.000 A 
ATOM      8  C   UNL     1      19.862  -0.796   9.199  0.00  0.00    +0.000 A 
ATOM      9  C   UNL     1      21.826  -0.902  10.628  0.00  0.00    +0.000 A 
ATOM     10  H   UNL     1      23.603  -0.772   9.649  0.00  0.00    +0.000 HD
ATOM     11  H   UNL     1      19.886  -0.999  11.230  0.00  0.00    +0.000 HD
ENDROOT
BRANCH   6  12
ATOM     12  C   UNL     1      23.047  -0.526   7.203  0.00  0.00    +0.000 C 
BRANCH  12  13
ATOM     13  N   UNL     1      24.020  -0.270   6.160  0.00  0.00    +0.000 N 
ATOM     14  N   UNL     1      26.012  -1.120   7.346  0.00  0.00    +0.000 NA
ATOM     15  C   UNL     1      23.690  -0.698   4.800  0.00  0.00    +0.000 C 
ATOM     16  C   UNL     1      24.646  -1.477   3.904  0.00  0.00    +0.000 C 
ATOM     17  C   UNL     1      25.627  -1.479   5.077  0.00  0.00    +0.000 C 
ATOM     18  C   UNL     1      25.249  -0.893   6.344  0.00  0.00    +0.000 C 
ATOM     19  H   UNL     1      26.838  -1.658   7.060  0.00  0.00    +0.000 HD
ENDBRANCH  12  13
ENDBRANCH   6  12
TORSDOF 2
ENDMDL
MODEL 5
REMARK VINA RESULT:      -5.6     12.097     12.881
REMARK  Name = 6323266_Tipiracil.pdbqt.pdb
REMARK  2 active torsions:
REMARK  status: ('A' for Active; 'I' for Inactive)
REMARK    1  A    between atoms: C_6  and  C_12
REMARK    2  A    between atoms: C_12  and  N_13
REMARK                            x       y       z     vdW  Elec       q    Type
REMARK                         _______ _______ _______ _____ _____    ______ ____
ROOT
ATOM      1 CL   UNL     1      48.503   5.350  18.918  0.00  0.00    +0.000 Cl
ATOM      2  O   UNL     1      49.459   2.522  19.255  0.00  0.00    +0.000 OA
ATOM      3  O   UNL     1      46.190   1.080  22.039  0.00  0.00    +0.000 OA
ATOM      4  N   UNL     1      46.133   3.231  21.317  0.00  0.00    +0.000 N 
ATOM      5  N   UNL     1      47.817   1.808  20.637  0.00  0.00    +0.000 N 
ATOM      6  C   UNL     1      46.657   4.264  20.583  0.00  0.00    +0.000 A 
ATOM      7  C   UNL     1      47.774   4.107  19.860  0.00  0.00    +0.000 A 
ATOM      8  C   UNL     1      48.430   2.769  19.876  0.00  0.00    +0.000 A 
ATOM      9  C   UNL     1      46.682   1.983  21.372  0.00  0.00    +0.000 A 
ATOM     10  H   UNL     1      45.285   3.377  21.861  0.00  0.00    +0.000 HD
ATOM     11  H   UNL     1      48.245   0.894  20.662  0.00  0.00    +0.000 HD
ENDROOT
BRANCH   6  12
ATOM     12  C   UNL     1      45.939   5.488  20.651  0.00  0.00    +0.000 C 
BRANCH  12  13
ATOM     13  N   UNL     1      45.284   6.781  20.626  0.00  0.00    +0.000 N 
ATOM     14  N   UNL     1      45.774   7.359  18.276  0.00  0.00    +0.000 NA
ATOM     15  C   UNL     1      43.932   6.871  21.178  0.00  0.00    +0.000 C 
ATOM     16  C   UNL     1      42.773   7.559  20.466  0.00  0.00    +0.000 C 
ATOM     17  C   UNL     1      43.734   7.815  19.305  0.00  0.00    +0.000 C 
ATOM     18  C   UNL     1      45.090   7.311  19.357  0.00  0.00    +0.000 C 
ATOM     19  H   UNL     1      45.243   7.821  17.529  0.00  0.00    +0.000 HD
ENDBRANCH  12  13
ENDBRANCH   6  12
TORSDOF 2
ENDMDL
MODEL 6
REMARK VINA RESULT:      -5.3     25.597     27.560
REMARK  Name = 6323266_Tipiracil.pdbqt.pdb
REMARK  2 active torsions:
REMARK  status: ('A' for Active; 'I' for Inactive)
REMARK    1  A    between atoms: C_6  and  C_12
REMARK    2  A    between atoms: C_12  and  N_13
REMARK                            x       y       z     vdW  Elec       q    Type
REMARK                         _______ _______ _______ _____ _____    ______ ____
ROOT
ATOM      1 CL   UNL     1      16.204   4.280  34.982  0.00  0.00    +0.000 Cl
ATOM      2  O   UNL     1      14.902   3.088  32.551  0.00  0.00    +0.000 OA
ATOM      3  O   UNL     1      18.106   4.153  29.533  0.00  0.00    +0.000 OA
ATOM      4  N   UNL     1      18.407   4.761  31.698  0.00  0.00    +0.000 N 
ATOM      5  N   UNL     1      16.512   3.615  31.053  0.00  0.00    +0.000 N 
ATOM      6  C   UNL     1      17.984   4.805  33.002  0.00  0.00    +0.000 A 
ATOM      7  C   UNL     1      16.815   4.264  33.372  0.00  0.00    +0.000 A 
ATOM      8  C   UNL     1      15.989   3.608  32.320  0.00  0.00    +0.000 A 
ATOM      9  C   UNL     1      17.701   4.175  30.689  0.00  0.00    +0.000 A 
ATOM     10  H   UNL     1      19.297   5.184  31.442  0.00  0.00    +0.000 HD
ATOM     11  H   UNL     1      15.968   3.176  30.324  0.00  0.00    +0.000 HD
ENDROOT
BRANCH   6  12
ATOM     12  C   UNL     1      18.861   5.459  33.909  0.00  0.00    +0.000 C 
BRANCH  12  13
ATOM     13  N   UNL     1      19.662   6.211  34.855  0.00  0.00    +0.000 N 
ATOM     14  N   UNL     1      19.320   8.451  33.873  0.00  0.00    +0.000 NA
ATOM     15  C   UNL     1      19.455   5.952  36.280  0.00  0.00    +0.000 C 
ATOM     16  C   UNL     1      19.275   7.052  37.320  0.00  0.00    +0.000 C 
ATOM     17  C   UNL     1      19.356   8.054  36.168  0.00  0.00    +0.000 C 
ATOM     18  C   UNL     1      19.481   7.588  34.804  0.00  0.00    +0.000 C 
ATOM     19  H   UNL     1      19.179   9.389  34.266  0.00  0.00    +0.000 HD
ENDBRANCH  12  13
ENDBRANCH   6  12
TORSDOF 2
ENDMDL
MODEL 7
REMARK VINA RESULT:      -5.2     11.606     12.383
REMARK  Name = 6323266_Tipiracil.pdbqt.pdb
REMARK  2 active torsions:
REMARK  status: ('A' for Active; 'I' for Inactive)
REMARK    1  A    between atoms: C_6  and  C_12
REMARK    2  A    between atoms: C_12  and  N_13
REMARK                            x       y       z     vdW  Elec       q    Type
REMARK                         _______ _______ _______ _____ _____    ______ ____
ROOT
ATOM      1 CL   UNL     1      46.029   9.386  21.264  0.00  0.00    +0.000 Cl
ATOM      2  O   UNL     1      47.827   7.465  22.716  0.00  0.00    +0.000 OA
ATOM      3  O   UNL     1      45.981   3.614  21.208  0.00  0.00    +0.000 OA
ATOM      4  N   UNL     1      45.106   5.586  20.505  0.00  0.00    +0.000 N 
ATOM      5  N   UNL     1      46.905   5.547  21.950  0.00  0.00    +0.000 N 
ATOM      6  C   UNL     1      45.095   6.958  20.496  0.00  0.00    +0.000 A 
ATOM      7  C   UNL     1      45.978   7.666  21.212  0.00  0.00    +0.000 A 
ATOM      8  C   UNL     1      46.979   6.914  22.020  0.00  0.00    +0.000 A 
ATOM      9  C   UNL     1      45.997   4.839  21.220  0.00  0.00    +0.000 A 
ATOM     10  H   UNL     1      44.422   5.072  19.955  0.00  0.00    +0.000 HD
ATOM     11  H   UNL     1      47.574   5.018  22.490  0.00  0.00    +0.000 HD
ENDROOT
BRANCH   6  12
ATOM     12  C   UNL     1      44.091   7.555  19.687  0.00  0.00    +0.000 C 
BRANCH  12  13
ATOM     13  N   UNL     1      43.003   8.054  18.868  0.00  0.00    +0.000 N 
ATOM     14  N   UNL     1      43.406   6.640  16.884  0.00  0.00    +0.000 NA
ATOM     15  C   UNL     1      41.681   8.162  19.484  0.00  0.00    +0.000 C 
ATOM     16  C   UNL     1      40.402   7.647  18.834  0.00  0.00    +0.000 C 
ATOM     17  C   UNL     1      41.277   7.133  17.690  0.00  0.00    +0.000 C 
ATOM     18  C   UNL     1      42.715   7.280  17.750  0.00  0.00    +0.000 C 
ATOM     19  H   UNL     1      42.795   6.150  16.220  0.00  0.00    +0.000 HD
ENDBRANCH  12  13
ENDBRANCH   6  12
TORSDOF 2
ENDMDL
MODEL 8
REMARK VINA RESULT:      -5.2      4.118      6.158
REMARK  Name = 6323266_Tipiracil.pdbqt.pdb
REMARK  2 active torsions:
REMARK  status: ('A' for Active; 'I' for Inactive)
REMARK    1  A    between atoms: C_6  and  C_12
REMARK    2  A    between atoms: C_12  and  N_13
REMARK                            x       y       z     vdW  Elec       q    Type
REMARK                         _______ _______ _______ _____ _____    ______ ____
ROOT
ATOM      1 CL   UNL     1      38.090   4.093  14.134  0.00  0.00    +0.000 Cl
ATOM      2  O   UNL     1      39.586   5.917  12.273  0.00  0.00    +0.000 OA
ATOM      3  O   UNL     1      39.385   3.331   8.560  0.00  0.00    +0.000 OA
ATOM      4  N   UNL     1      38.419   2.571  10.468  0.00  0.00    +0.000 N 
ATOM      5  N   UNL     1      39.472   4.623  10.421  0.00  0.00    +0.000 N 
ATOM      6  C   UNL     1      38.094   2.724  11.791  0.00  0.00    +0.000 A 
ATOM      7  C   UNL     1      38.449   3.823  12.472  0.00  0.00    +0.000 A 
ATOM      8  C   UNL     1      39.208   4.877  11.742  0.00  0.00    +0.000 A 
ATOM      9  C   UNL     1      39.108   3.498   9.742  0.00  0.00    +0.000 A 
ATOM     10  H   UNL     1      38.141   1.725   9.974  0.00  0.00    +0.000 HD
ATOM     11  H   UNL     1      39.985   5.325   9.908  0.00  0.00    +0.000 HD
ENDROOT
BRANCH   6  12
ATOM     12  C   UNL     1      37.370   1.649  12.372  0.00  0.00    +0.000 C 
BRANCH  12  13
ATOM     13  N   UNL     1      36.712   0.471  12.905  0.00  0.00    +0.000 N 
ATOM     14  N   UNL     1      38.736  -0.872  13.344  0.00  0.00    +0.000 NA
ATOM     15  C   UNL     1      35.679   0.669  13.922  0.00  0.00    +0.000 C 
ATOM     16  C   UNL     1      35.614  -0.122  15.224  0.00  0.00    +0.000 C 
ATOM     17  C   UNL     1      36.905  -0.813  14.783  0.00  0.00    +0.000 C 
ATOM     18  C   UNL     1      37.555  -0.424  13.550  0.00  0.00    +0.000 C 
ATOM     19  H   UNL     1      39.020  -1.509  14.097  0.00  0.00    +0.000 HD
ENDBRANCH  12  13
ENDBRANCH   6  12
TORSDOF 2
ENDMDL
MODEL 9
REMARK VINA RESULT:      -5.1      2.812      3.795
REMARK  Name = 6323266_Tipiracil.pdbqt.pdb
REMARK  2 active torsions:
REMARK  status: ('A' for Active; 'I' for Inactive)
REMARK    1  A    between atoms: C_6  and  C_12
REMARK    2  A    between atoms: C_12  and  N_13
REMARK                            x       y       z     vdW  Elec       q    Type
REMARK                         _______ _______ _______ _____ _____    ______ ____
ROOT
ATOM      1 CL   UNL     1      39.894   2.673  13.268  0.00  0.00    +0.000 Cl
ATOM      2  O   UNL     1      37.679   3.624  15.062  0.00  0.00    +0.000 OA
ATOM      3  O   UNL     1      34.590   0.500  13.959  0.00  0.00    +0.000 OA
ATOM      4  N   UNL     1      36.624   0.421  12.955  0.00  0.00    +0.000 N 
ATOM      5  N   UNL     1      36.147   2.054  14.513  0.00  0.00    +0.000 N 
ATOM      6  C   UNL     1      37.891   0.912  12.771  0.00  0.00    +0.000 A 
ATOM      7  C   UNL     1      38.325   1.987  13.443  0.00  0.00    +0.000 A 
ATOM      8  C   UNL     1      37.384   2.632  14.403  0.00  0.00    +0.000 A 
ATOM      9  C   UNL     1      35.717   0.962  13.818  0.00  0.00    +0.000 A 
ATOM     10  H   UNL     1      36.317  -0.395  12.429  0.00  0.00    +0.000 HD
ATOM     11  H   UNL     1      35.494   2.475  15.157  0.00  0.00    +0.000 HD
ENDROOT
BRANCH   6  12
ATOM     12  C   UNL     1      38.689   0.209  11.829  0.00  0.00    +0.000 C 
BRANCH  12  13
ATOM     13  N   UNL     1      39.405  -0.499  10.785  0.00  0.00    +0.000 N 
ATOM     14  N   UNL     1      37.529  -1.885   9.976  0.00  0.00    +0.000 NA
ATOM     15  C   UNL     1      40.234   0.288   9.873  0.00  0.00    +0.000 C 
ATOM     16  C   UNL     1      40.201   0.135   8.357  0.00  0.00    +0.000 C 
ATOM     17  C   UNL     1      39.094  -0.900   8.559  0.00  0.00    +0.000 C 
ATOM     18  C   UNL     1      38.597  -1.185   9.888  0.00  0.00    +0.000 C 
ATOM     19  H   UNL     1      37.218  -2.193   9.047  0.00  0.00    +0.000 HD
ENDBRANCH  12  13
ENDBRANCH   6  12
TORSDOF 2
ENDMDL
