MODEL 1
REMARK VINA RESULT:      -7.5      0.000      0.000
REMARK  Name = 6325056_Deoxyelephantopin.pdbqt.pdb
REMARK  3 active torsions:
REMARK  status: ('A' for Active; 'I' for Inactive)
REMARK    1  A    between atoms: C_6  and  O_20
REMARK    2  A    between atoms: O_20  and  C_22
REMARK    3  A    between atoms: C_22  and  C_23
REMARK                            x       y       z     vdW  Elec       q    Type
REMARK                         _______ _______ _______ _____ _____    ______ ____
ROOT
ATOM      1  O   UNL     1      19.445  13.005  22.089  0.00  0.00    +0.000 OA
ATOM      2  O   UNL     1      21.999  11.804  16.210  0.00  0.00    +0.000 OA
ATOM      3  O   UNL     1      17.947  12.479  23.748  0.00  0.00    +0.000 OA
ATOM      4  O   UNL     1      21.601   9.522  16.358  0.00  0.00    +0.000 OA
ATOM      5  C   UNL     1      19.039  11.214  20.607  0.00  0.00    +0.000 C 
ATOM      6  C   UNL     1      19.153  10.281  19.485  0.00  0.00    +0.000 C 
ATOM      7  C   UNL     1      19.798  12.424  20.865  0.00  0.00    +0.000 C 
ATOM      8  C   UNL     1      19.419  10.690  18.152  0.00  0.00    +0.000 C 
ATOM      9  C   UNL     1      18.174  11.090  21.762  0.00  0.00    +0.000 C 
ATOM     10  C   UNL     1      19.856  11.128  16.861  0.00  0.00    +0.000 C 
ATOM     11  C   UNL     1      20.735  13.092  20.041  0.00  0.00    +0.000 C 
ATOM     12  C   UNL     1      21.186  12.896  16.581  0.00  0.00    +0.000 C 
ATOM     13  C   UNL     1      21.586  13.547  17.786  0.00  0.00    +0.000 C 
ATOM     14  C   UNL     1      21.615  13.805  19.175  0.00  0.00    +0.000 C 
ATOM     15  C   UNL     1      19.836  12.495  16.543  0.00  0.00    +0.000 C 
ATOM     16  C   UNL     1      18.465  12.229  22.673  0.00  0.00    +0.000 C 
ATOM     17  C   UNL     1      21.219  10.676  16.421  0.00  0.00    +0.000 C 
ATOM     18  C   UNL     1      17.222  10.170  21.956  0.00  0.00    +0.000 C 
ATOM     19  C   UNL     1      22.360  14.992  19.695  0.00  0.00    +0.000 C 
ENDROOT
BRANCH   6  20
ATOM     20  O   UNL     1      18.744   8.945  19.641  0.00  0.00    +0.000 OA
BRANCH  20  22
ATOM     21  O   UNL     1      20.397   8.245  21.081  0.00  0.00    +0.000 OA
ATOM     22  C   UNL     1      19.725   8.076  20.067  0.00  0.00    +0.000 C 
BRANCH  22  23
ATOM     23  C   UNL     1      19.829   6.911  19.116  0.00  0.00    +0.000 C 
ATOM     24  C   UNL     1      19.117   5.588  19.344  0.00  0.00    +0.000 C 
ATOM     25  C   UNL     1      20.513   6.994  17.968  0.00  0.00    +0.000 C 
ENDBRANCH  22  23
ENDBRANCH  20  22
ENDBRANCH   6  20
TORSDOF 3
ENDMDL
MODEL 2
REMARK VINA RESULT:      -7.4      1.771      5.148
REMARK  Name = 6325056_Deoxyelephantopin.pdbqt.pdb
REMARK  3 active torsions:
REMARK  status: ('A' for Active; 'I' for Inactive)
REMARK    1  A    between atoms: C_6  and  O_20
REMARK    2  A    between atoms: O_20  and  C_22
REMARK    3  A    between atoms: C_22  and  C_23
REMARK                            x       y       z     vdW  Elec       q    Type
REMARK                         _______ _______ _______ _____ _____    ______ ____
ROOT
ATOM      1  O   UNL     1      19.152  10.333  21.377  0.00  0.00    +0.000 OA
ATOM      2  O   UNL     1      21.642  10.013  15.358  0.00  0.00    +0.000 OA
ATOM      3  O   UNL     1      18.488  11.580  23.188  0.00  0.00    +0.000 OA
ATOM      4  O   UNL     1      20.769  12.076  14.746  0.00  0.00    +0.000 OA
ATOM      5  C   UNL     1      19.696  12.072  19.877  0.00  0.00    +0.000 C 
ATOM      6  C   UNL     1      20.067  12.798  18.661  0.00  0.00    +0.000 C 
ATOM      7  C   UNL     1      19.623  10.639  20.094  0.00  0.00    +0.000 C 
ATOM      8  C   UNL     1      21.085  12.365  17.772  0.00  0.00    +0.000 C 
ATOM      9  C   UNL     1      19.244  12.639  21.130  0.00  0.00    +0.000 C 
ATOM     10  C   UNL     1      21.996  11.806  16.820  0.00  0.00    +0.000 C 
ATOM     11  C   UNL     1      20.025   9.578  19.248  0.00  0.00    +0.000 C 
ATOM     12  C   UNL     1      22.259   9.606  16.560  0.00  0.00    +0.000 C 
ATOM     13  C   UNL     1      21.437   8.797  17.400  0.00  0.00    +0.000 C 
ATOM     14  C   UNL     1      20.506   8.517  18.427  0.00  0.00    +0.000 C 
ATOM     15  C   UNL     1      22.823  10.734  17.190  0.00  0.00    +0.000 C 
ATOM     16  C   UNL     1      18.903  11.516  22.043  0.00  0.00    +0.000 C 
ATOM     17  C   UNL     1      21.415  11.374  15.504  0.00  0.00    +0.000 C 
ATOM     18  C   UNL     1      19.207  13.936  21.456  0.00  0.00    +0.000 C 
ATOM     19  C   UNL     1      20.238   7.100  18.819  0.00  0.00    +0.000 C 
ENDROOT
BRANCH   6  20
ATOM     20  O   UNL     1      19.598  14.106  18.456  0.00  0.00    +0.000 OA
BRANCH  20  22
ATOM     21  O   UNL     1      20.794  15.180  16.809  0.00  0.00    +0.000 OA
ATOM     22  C   UNL     1      20.537  15.004  17.998  0.00  0.00    +0.000 C 
BRANCH  22  23
ATOM     23  C   UNL     1      21.175  15.721  19.160  0.00  0.00    +0.000 C 
ATOM     24  C   UNL     1      22.469  15.259  19.811  0.00  0.00    +0.000 C 
ATOM     25  C   UNL     1      20.668  16.857  19.654  0.00  0.00    +0.000 C 
ENDBRANCH  22  23
ENDBRANCH  20  22
ENDBRANCH   6  20
TORSDOF 3
ENDMDL
MODEL 3
REMARK VINA RESULT:      -7.1      1.617      2.005
REMARK  Name = 6325056_Deoxyelephantopin.pdbqt.pdb
REMARK  3 active torsions:
REMARK  status: ('A' for Active; 'I' for Inactive)
REMARK    1  A    between atoms: C_6  and  O_20
REMARK    2  A    between atoms: O_20  and  C_22
REMARK    3  A    between atoms: C_22  and  C_23
REMARK                            x       y       z     vdW  Elec       q    Type
REMARK                         _______ _______ _______ _____ _____    ______ ____
ROOT
ATOM      1  O   UNL     1      18.255  13.193  20.527  0.00  0.00    +0.000 OA
ATOM      2  O   UNL     1      23.232  10.794  17.062  0.00  0.00    +0.000 OA
ATOM      3  O   UNL     1      16.127  12.970  21.362  0.00  0.00    +0.000 OA
ATOM      4  O   UNL     1      22.709   8.594  17.587  0.00  0.00    +0.000 OA
ATOM      5  C   UNL     1      18.519  11.063  19.543  0.00  0.00    +0.000 C 
ATOM      6  C   UNL     1      19.109   9.895  18.888  0.00  0.00    +0.000 C 
ATOM      7  C   UNL     1      19.119  12.358  19.807  0.00  0.00    +0.000 C 
ATOM      8  C   UNL     1      19.993   9.983  17.781  0.00  0.00    +0.000 C 
ATOM      9  C   UNL     1      17.206  11.157  20.146  0.00  0.00    +0.000 C 
ATOM     10  C   UNL     1      21.008  10.123  16.782  0.00  0.00    +0.000 C 
ATOM     11  C   UNL     1      20.363  12.878  19.378  0.00  0.00    +0.000 C 
ATOM     12  C   UNL     1      22.391  11.872  16.714  0.00  0.00    +0.000 C 
ATOM     13  C   UNL     1      22.201  12.831  17.753  0.00  0.00    +0.000 C 
ATOM     14  C   UNL     1      21.580  13.426  18.875  0.00  0.00    +0.000 C 
ATOM     15  C   UNL     1      21.202  11.363  16.153  0.00  0.00    +0.000 C 
ATOM     16  C   UNL     1      17.081  12.506  20.761  0.00  0.00    +0.000 C 
ATOM     17  C   UNL     1      22.395   9.692  17.164  0.00  0.00    +0.000 C 
ATOM     18  C   UNL     1      16.235  10.238  20.101  0.00  0.00    +0.000 C 
ATOM     19  C   UNL     1      22.043  14.762  19.358  0.00  0.00    +0.000 C 
ENDROOT
BRANCH   6  20
ATOM     20  O   UNL     1      18.615   8.610  19.171  0.00  0.00    +0.000 OA
BRANCH  20  22
ATOM     21  O   UNL     1      20.216   6.970  18.967  0.00  0.00    +0.000 OA
ATOM     22  C   UNL     1      19.542   7.720  19.668  0.00  0.00    +0.000 C 
BRANCH  22  23
ATOM     23  C   UNL     1      19.599   7.821  21.171  0.00  0.00    +0.000 C 
ATOM     24  C   UNL     1      20.710   8.547  21.912  0.00  0.00    +0.000 C 
ATOM     25  C   UNL     1      18.630   7.326  21.951  0.00  0.00    +0.000 C 
ENDBRANCH  22  23
ENDBRANCH  20  22
ENDBRANCH   6  20
TORSDOF 3
ENDMDL
MODEL 4
REMARK VINA RESULT:      -6.9      1.565      4.926
REMARK  Name = 6325056_Deoxyelephantopin.pdbqt.pdb
REMARK  3 active torsions:
REMARK  status: ('A' for Active; 'I' for Inactive)
REMARK    1  A    between atoms: C_6  and  O_20
REMARK    2  A    between atoms: O_20  and  C_22
REMARK    3  A    between atoms: C_22  and  C_23
REMARK                            x       y       z     vdW  Elec       q    Type
REMARK                         _______ _______ _______ _____ _____    ______ ____
ROOT
ATOM      1  O   UNL     1      21.677  11.466  16.803  0.00  0.00    +0.000 OA
ATOM      2  O   UNL     1      18.321  12.677  22.261  0.00  0.00    +0.000 OA
ATOM      3  O   UNL     1      22.699   9.970  15.390  0.00  0.00    +0.000 OA
ATOM      4  O   UNL     1      17.241  10.622  22.209  0.00  0.00    +0.000 OA
ATOM      5  C   UNL     1      20.734   9.961  18.356  0.00  0.00    +0.000 C 
ATOM      6  C   UNL     1      19.951   9.411  19.464  0.00  0.00    +0.000 C 
ATOM      7  C   UNL     1      20.914  11.348  17.971  0.00  0.00    +0.000 C 
ATOM      8  C   UNL     1      19.854  10.032  20.737  0.00  0.00    +0.000 C 
ATOM      9  C   UNL     1      21.455   9.219  17.343  0.00  0.00    +0.000 C 
ATOM     10  C   UNL     1      19.646  10.775  21.942  0.00  0.00    +0.000 C 
ATOM     11  C   UNL     1      20.507  12.529  18.637  0.00  0.00    +0.000 C 
ATOM     12  C   UNL     1      19.668  13.005  21.996  0.00  0.00    +0.000 C 
ATOM     13  C   UNL     1      19.884  13.636  20.735  0.00  0.00    +0.000 C 
ATOM     14  C   UNL     1      20.168  13.714  19.353  0.00  0.00    +0.000 C 
ATOM     15  C   UNL     1      20.470  11.872  22.238  0.00  0.00    +0.000 C 
ATOM     16  C   UNL     1      22.026  10.199  16.381  0.00  0.00    +0.000 C 
ATOM     17  C   UNL     1      18.257  11.293  22.185  0.00  0.00    +0.000 C 
ATOM     18  C   UNL     1      21.651   7.897  17.305  0.00  0.00    +0.000 C 
ATOM     19  C   UNL     1      20.373  15.048  18.710  0.00  0.00    +0.000 C 
ENDROOT
BRANCH   6  20
ATOM     20  O   UNL     1      19.463   8.095  19.391  0.00  0.00    +0.000 OA
BRANCH  20  22
ATOM     21  O   UNL     1      17.225   8.611  19.537  0.00  0.00    +0.000 OA
ATOM     22  C   UNL     1      18.183   7.915  19.865  0.00  0.00    +0.000 C 
BRANCH  22  23
ATOM     23  C   UNL     1      18.146   6.749  20.821  0.00  0.00    +0.000 C 
ATOM     24  C   UNL     1      18.242   5.302  20.369  0.00  0.00    +0.000 C 
ATOM     25  C   UNL     1      18.090   6.924  22.148  0.00  0.00    +0.000 C 
ENDBRANCH  22  23
ENDBRANCH  20  22
ENDBRANCH   6  20
TORSDOF 3
ENDMDL
MODEL 5
REMARK VINA RESULT:      -6.8      1.900      5.053
REMARK  Name = 6325056_Deoxyelephantopin.pdbqt.pdb
REMARK  3 active torsions:
REMARK  status: ('A' for Active; 'I' for Inactive)
REMARK    1  A    between atoms: C_6  and  O_20
REMARK    2  A    between atoms: O_20  and  C_22
REMARK    3  A    between atoms: C_22  and  C_23
REMARK                            x       y       z     vdW  Elec       q    Type
REMARK                         _______ _______ _______ _____ _____    ______ ____
ROOT
ATOM      1  O   UNL     1      20.064  11.388  16.118  0.00  0.00    +0.000 OA
ATOM      2  O   UNL     1      16.789  12.249  21.691  0.00  0.00    +0.000 OA
ATOM      3  O   UNL     1      21.817  10.449  14.969  0.00  0.00    +0.000 OA
ATOM      4  O   UNL     1      17.365  10.153  22.506  0.00  0.00    +0.000 OA
ATOM      5  C   UNL     1      20.381  10.372  18.224  0.00  0.00    +0.000 C 
ATOM      6  C   UNL     1      20.174   9.938  19.606  0.00  0.00    +0.000 C 
ATOM      7  C   UNL     1      19.582  11.286  17.429  0.00  0.00    +0.000 C 
ATOM      8  C   UNL     1      19.692  10.794  20.631  0.00  0.00    +0.000 C 
ATOM      9  C   UNL     1      21.408   9.918  17.310  0.00  0.00    +0.000 C 
ATOM     10  C   UNL     1      19.046  11.640  21.587  0.00  0.00    +0.000 C 
ATOM     11  C   UNL     1      18.492  12.101  17.816  0.00  0.00    +0.000 C 
ATOM     12  C   UNL     1      17.568  13.204  21.002  0.00  0.00    +0.000 C 
ATOM     13  C   UNL     1      17.298  13.285  19.603  0.00  0.00    +0.000 C 
ATOM     14  C   UNL     1      17.450  12.981  18.231  0.00  0.00    +0.000 C 
ATOM     15  C   UNL     1      18.924  13.015  21.335  0.00  0.00    +0.000 C 
ATOM     16  C   UNL     1      21.170  10.572  15.995  0.00  0.00    +0.000 C 
ATOM     17  C   UNL     1      17.670  11.232  22.028  0.00  0.00    +0.000 C 
ATOM     18  C   UNL     1      22.440   9.118  17.597  0.00  0.00    +0.000 C 
ATOM     19  C   UNL     1      16.704  13.775  17.207  0.00  0.00    +0.000 C 
ENDROOT
BRANCH   6  20
ATOM     20  O   UNL     1      20.695   8.706  20.038  0.00  0.00    +0.000 OA
BRANCH  20  22
ATOM     21  O   UNL     1      19.603   7.896  21.896  0.00  0.00    +0.000 OA
ATOM     22  C   UNL     1      19.798   7.883  20.683  0.00  0.00    +0.000 C 
BRANCH  22  23
ATOM     23  C   UNL     1      19.106   6.991  19.683  0.00  0.00    +0.000 C 
ATOM     24  C   UNL     1      17.606   6.747  19.687  0.00  0.00    +0.000 C 
ATOM     25  C   UNL     1      19.771   6.404  18.680  0.00  0.00    +0.000 C 
ENDBRANCH  22  23
ENDBRANCH  20  22
ENDBRANCH   6  20
TORSDOF 3
ENDMDL
MODEL 6
REMARK VINA RESULT:      -6.8     32.414     33.555
REMARK  Name = 6325056_Deoxyelephantopin.pdbqt.pdb
REMARK  3 active torsions:
REMARK  status: ('A' for Active; 'I' for Inactive)
REMARK    1  A    between atoms: C_6  and  O_20
REMARK    2  A    between atoms: O_20  and  C_22
REMARK    3  A    between atoms: C_22  and  C_23
REMARK                            x       y       z     vdW  Elec       q    Type
REMARK                         _______ _______ _______ _____ _____    ______ ____
ROOT
ATOM      1  O   UNL     1      51.045   4.089  35.697  0.00  0.00    +0.000 OA
ATOM      2  O   UNL     1      49.640   6.039  29.635  0.00  0.00    +0.000 OA
ATOM      3  O   UNL     1      50.867   2.529  37.373  0.00  0.00    +0.000 OA
ATOM      4  O   UNL     1      49.535   3.868  28.820  0.00  0.00    +0.000 OA
ATOM      5  C   UNL     1      49.932   2.937  33.964  0.00  0.00    +0.000 C 
ATOM      6  C   UNL     1      49.404   2.574  32.649  0.00  0.00    +0.000 C 
ATOM      7  C   UNL     1      50.628   4.148  34.362  0.00  0.00    +0.000 C 
ATOM      8  C   UNL     1      48.798   3.505  31.765  0.00  0.00    +0.000 C 
ATOM      9  C   UNL     1      49.937   2.122  35.160  0.00  0.00    +0.000 C 
ATOM     10  C   UNL     1      48.352   4.502  30.840  0.00  0.00    +0.000 C 
ATOM     11  C   UNL     1      50.849   5.341  33.634  0.00  0.00    +0.000 C 
ATOM     12  C   UNL     1      49.152   6.584  30.842  0.00  0.00    +0.000 C 
ATOM     13  C   UNL     1      50.157   6.843  31.821  0.00  0.00    +0.000 C 
ATOM     14  C   UNL     1      50.996   6.569  32.925  0.00  0.00    +0.000 C 
ATOM     15  C   UNL     1      48.071   5.800  31.293  0.00  0.00    +0.000 C 
ATOM     16  C   UNL     1      50.653   2.876  36.224  0.00  0.00    +0.000 C 
ATOM     17  C   UNL     1      49.203   4.722  29.623  0.00  0.00    +0.000 C 
ATOM     18  C   UNL     1      49.342   0.935  35.323  0.00  0.00    +0.000 C 
ATOM     19  C   UNL     1      51.838   7.659  33.506  0.00  0.00    +0.000 C 
ENDROOT
BRANCH   6  20
ATOM     20  O   UNL     1      49.243   1.220  32.309  0.00  0.00    +0.000 OA
BRANCH  20  22
ATOM     21  O   UNL     1      51.369   0.921  31.479  0.00  0.00    +0.000 OA
ATOM     22  C   UNL     1      50.158   0.727  31.405  0.00  0.00    +0.000 C 
BRANCH  22  23
ATOM     23  C   UNL     1      49.451  -0.076  30.342  0.00  0.00    +0.000 C 
ATOM     24  C   UNL     1      49.385  -1.594  30.356  0.00  0.00    +0.000 C 
ATOM     25  C   UNL     1      48.778   0.510  29.344  0.00  0.00    +0.000 C 
ENDBRANCH  22  23
ENDBRANCH  20  22
ENDBRANCH   6  20
TORSDOF 3
ENDMDL
MODEL 7
REMARK VINA RESULT:      -6.6      1.799      5.486
REMARK  Name = 6325056_Deoxyelephantopin.pdbqt.pdb
REMARK  3 active torsions:
REMARK  status: ('A' for Active; 'I' for Inactive)
REMARK    1  A    between atoms: C_6  and  O_20
REMARK    2  A    between atoms: O_20  and  C_22
REMARK    3  A    between atoms: C_22  and  C_23
REMARK                            x       y       z     vdW  Elec       q    Type
REMARK                         _______ _______ _______ _____ _____    ______ ____
ROOT
ATOM      1  O   UNL     1      22.011  14.027  17.519  0.00  0.00    +0.000 OA
ATOM      2  O   UNL     1      20.371   8.077  19.624  0.00  0.00    +0.000 OA
ATOM      3  O   UNL     1      21.926  16.311  17.754  0.00  0.00    +0.000 OA
ATOM      4  O   UNL     1      20.301   8.740  21.848  0.00  0.00    +0.000 OA
ATOM      5  C   UNL     1      20.878  13.385  19.487  0.00  0.00    +0.000 C 
ATOM      6  C   UNL     1      20.320  12.576  20.572  0.00  0.00    +0.000 C 
ATOM      7  C   UNL     1      21.552  12.944  18.279  0.00  0.00    +0.000 C 
ATOM      8  C   UNL     1      19.663  11.336  20.365  0.00  0.00    +0.000 C 
ATOM      9  C   UNL     1      20.942  14.829  19.416  0.00  0.00    +0.000 C 
ATOM     10  C   UNL     1      19.162  10.016  20.128  0.00  0.00    +0.000 C 
ATOM     11  C   UNL     1      21.718  11.637  17.766  0.00  0.00    +0.000 C 
ATOM     12  C   UNL     1      19.905   8.731  18.464  0.00  0.00    +0.000 C 
ATOM     13  C   UNL     1      20.932   9.315  17.663  0.00  0.00    +0.000 C 
ATOM     14  C   UNL     1      21.811  10.326  17.212  0.00  0.00    +0.000 C 
ATOM     15  C   UNL     1      18.860   9.607  18.821  0.00  0.00    +0.000 C 
ATOM     16  C   UNL     1      21.668  15.194  18.171  0.00  0.00    +0.000 C 
ATOM     17  C   UNL     1      19.970   8.878  20.683  0.00  0.00    +0.000 C 
ATOM     18  C   UNL     1      20.385  15.699  20.267  0.00  0.00    +0.000 C 
ATOM     19  C   UNL     1      22.640  10.098  15.990  0.00  0.00    +0.000 C 
ENDROOT
BRANCH   6  20
ATOM     20  O   UNL     1      20.186  13.128  21.857  0.00  0.00    +0.000 OA
BRANCH  20  22
ATOM     21  O   UNL     1      18.936  11.768  23.230  0.00  0.00    +0.000 OA
ATOM     22  C   UNL     1      19.039  12.774  22.533  0.00  0.00    +0.000 C 
BRANCH  22  23
ATOM     23  C   UNL     1      17.961  13.801  22.292  0.00  0.00    +0.000 C 
ATOM     24  C   UNL     1      16.821  13.591  21.309  0.00  0.00    +0.000 C 
ATOM     25  C   UNL     1      17.909  14.946  22.983  0.00  0.00    +0.000 C 
ENDBRANCH  22  23
ENDBRANCH  20  22
ENDBRANCH   6  20
TORSDOF 3
ENDMDL
MODEL 8
REMARK VINA RESULT:      -6.5     40.273     42.185
REMARK  Name = 6325056_Deoxyelephantopin.pdbqt.pdb
REMARK  3 active torsions:
REMARK  status: ('A' for Active; 'I' for Inactive)
REMARK    1  A    between atoms: C_6  and  O_20
REMARK    2  A    between atoms: O_20  and  C_22
REMARK    3  A    between atoms: C_22  and  C_23
REMARK                            x       y       z     vdW  Elec       q    Type
REMARK                         _______ _______ _______ _____ _____    ______ ____
ROOT
ATOM      1  O   UNL     1      48.757 -21.069  17.151  0.00  0.00    +0.000 OA
ATOM      2  O   UNL     1      51.451 -15.524  15.025  0.00  0.00    +0.000 OA
ATOM      3  O   UNL     1      47.148 -22.698  16.957  0.00  0.00    +0.000 OA
ATOM      4  O   UNL     1      50.855 -15.926  12.818  0.00  0.00    +0.000 OA
ATOM      5  C   UNL     1      48.264 -19.796  15.226  0.00  0.00    +0.000 C 
ATOM      6  C   UNL     1      48.347 -18.802  14.154  0.00  0.00    +0.000 C 
ATOM      7  C   UNL     1      49.112 -19.945  16.395  0.00  0.00    +0.000 C 
ATOM      8  C   UNL     1      48.704 -17.446  14.371  0.00  0.00    +0.000 C 
ATOM      9  C   UNL     1      47.343 -20.909  15.317  0.00  0.00    +0.000 C 
ATOM     10  C   UNL     1      49.232 -16.137  14.608  0.00  0.00    +0.000 C 
ATOM     11  C   UNL     1      50.136 -19.098  16.878  0.00  0.00    +0.000 C 
ATOM     12  C   UNL     1      50.719 -15.716  16.216  0.00  0.00    +0.000 C 
ATOM     13  C   UNL     1      51.120 -16.853  16.979  0.00  0.00    +0.000 C 
ATOM     14  C   UNL     1      51.110 -18.200  17.405  0.00  0.00    +0.000 C 
ATOM     15  C   UNL     1      49.342 -15.655  15.921  0.00  0.00    +0.000 C 
ATOM     16  C   UNL     1      47.690 -21.690  16.534  0.00  0.00    +0.000 C 
ATOM     17  C   UNL     1      50.569 -15.828  13.998  0.00  0.00    +0.000 C 
ATOM     18  C   UNL     1      46.309 -21.162  14.506  0.00  0.00    +0.000 C 
ATOM     19  C   UNL     1      51.931 -18.611  18.585  0.00  0.00    +0.000 C 
ENDROOT
BRANCH   6  20
ATOM     20  O   UNL     1      47.820 -19.097  12.885  0.00  0.00    +0.000 OA
BRANCH  20  22
ATOM     21  O   UNL     1      49.363 -18.503  11.284  0.00  0.00    +0.000 OA
ATOM     22  C   UNL     1      48.753 -19.367  11.908  0.00  0.00    +0.000 C 
BRANCH  22  23
ATOM     23  C   UNL     1      48.907 -20.858  11.741  0.00  0.00    +0.000 C 
ATOM     24  C   UNL     1      49.976 -21.667  12.458  0.00  0.00    +0.000 C 
ATOM     25  C   UNL     1      48.063 -21.576  10.991  0.00  0.00    +0.000 C 
ENDBRANCH  22  23
ENDBRANCH  20  22
ENDBRANCH   6  20
TORSDOF 3
ENDMDL
MODEL 9
REMARK VINA RESULT:      -6.4     17.579     19.090
REMARK  Name = 6325056_Deoxyelephantopin.pdbqt.pdb
REMARK  3 active torsions:
REMARK  status: ('A' for Active; 'I' for Inactive)
REMARK    1  A    between atoms: C_6  and  O_20
REMARK    2  A    between atoms: O_20  and  C_22
REMARK    3  A    between atoms: C_22  and  C_23
REMARK                            x       y       z     vdW  Elec       q    Type
REMARK                         _______ _______ _______ _____ _____    ______ ____
ROOT
ATOM      1  O   UNL     1      25.328  25.619  30.478  0.00  0.00    +0.000 OA
ATOM      2  O   UNL     1      31.491  24.826  28.497  0.00  0.00    +0.000 OA
ATOM      3  O   UNL     1      23.361  24.723  31.256  0.00  0.00    +0.000 OA
ATOM      4  O   UNL     1      31.833  22.985  29.870  0.00  0.00    +0.000 OA
ATOM      5  C   UNL     1      26.673  23.679  30.477  0.00  0.00    +0.000 C 
ATOM      6  C   UNL     1      27.828  22.786  30.387  0.00  0.00    +0.000 C 
ATOM      7  C   UNL     1      26.600  25.102  30.200  0.00  0.00    +0.000 C 
ATOM      8  C   UNL     1      28.818  22.888  29.375  0.00  0.00    +0.000 C 
ATOM      9  C   UNL     1      25.343  23.344  30.941  0.00  0.00    +0.000 C 
ATOM     10  C   UNL     1      29.877  23.132  28.444  0.00  0.00    +0.000 C 
ATOM     11  C   UNL     1      27.573  25.962  29.638  0.00  0.00    +0.000 C 
ATOM     12  C   UNL     1      30.377  25.176  27.704  0.00  0.00    +0.000 C 
ATOM     13  C   UNL     1      29.575  26.225  28.244  0.00  0.00    +0.000 C 
ATOM     14  C   UNL     1      28.527  26.804  28.995  0.00  0.00    +0.000 C 
ATOM     15  C   UNL     1      29.671  24.004  27.364  0.00  0.00    +0.000 C 
ATOM     16  C   UNL     1      24.530  24.590  30.935  0.00  0.00    +0.000 C 
ATOM     17  C   UNL     1      31.192  23.575  29.019  0.00  0.00    +0.000 C 
ATOM     18  C   UNL     1      24.884  22.126  31.247  0.00  0.00    +0.000 C 
ATOM     19  C   UNL     1      28.266  28.272  28.896  0.00  0.00    +0.000 C 
ENDROOT
BRANCH   6  20
ATOM     20  O   UNL     1      27.868  21.613  31.161  0.00  0.00    +0.000 OA
BRANCH  20  22
ATOM     21  O   UNL     1      29.924  20.932  31.941  0.00  0.00    +0.000 OA
ATOM     22  C   UNL     1      28.879  21.559  32.096  0.00  0.00    +0.000 C 
BRANCH  22  23
ATOM     23  C   UNL     1      28.508  22.381  33.304  0.00  0.00    +0.000 C 
ATOM     24  C   UNL     1      27.275  22.104  34.149  0.00  0.00    +0.000 C 
ATOM     25  C   UNL     1      29.284  23.378  33.747  0.00  0.00    +0.000 C 
ENDBRANCH  22  23
ENDBRANCH  20  22
ENDBRANCH   6  20
TORSDOF 3
ENDMDL
