MODEL 1
REMARK VINA RESULT:      -7.2      0.000      0.000
REMARK  Name = 641785_Cardamonin.pdbqt.pdb
REMARK  6 active torsions:
REMARK  status: ('A' for Active; 'I' for Inactive)
REMARK    1  A    between atoms: C_1  and  C_14
REMARK    2  A    between atoms: C_2  and  O_7
REMARK    3  A    between atoms: C_3  and  O_9
REMARK    4  A    between atoms: C_6  and  O_11
REMARK    5  A    between atoms: C_14  and  C_15
REMARK    6  A    between atoms: C_16  and  C_17
REMARK                            x       y       z     vdW  Elec       q    Type
REMARK                         _______ _______ _______ _____ _____    ______ ____
ROOT
ATOM      1  C   UNL     1      38.040   0.145  10.753  0.00  0.00    +0.000 A 
ATOM      2  C   UNL     1      37.213   1.198  10.317  0.00  0.00    +0.000 A 
ATOM      3  C   UNL     1      38.366  -0.883   9.846  0.00  0.00    +0.000 A 
ATOM      4  C   UNL     1      36.717   1.182   9.005  0.00  0.00    +0.000 A 
ATOM      5  C   UNL     1      37.855  -0.889   8.548  0.00  0.00    +0.000 A 
ATOM      6  C   UNL     1      37.027   0.142   8.138  0.00  0.00    +0.000 A 
ENDROOT
BRANCH   2   7
ATOM      7  O   UNL     1      36.975   2.256  11.164  0.00  0.00    +0.000 OA
ATOM      8  C   UNL     1      37.669   3.438  10.880  0.00  0.00    +0.000 C 
ENDBRANCH   2   7
BRANCH   3   9
ATOM      9  O   UNL     1      39.188  -1.937  10.157  0.00  0.00    +0.000 OA
ATOM     10  H   UNL     1      38.886  -2.743   9.683  0.00  0.00    +0.000 HD
ENDBRANCH   3   9
BRANCH   6  11
ATOM     11  O   UNL     1      36.535   0.123   6.868  0.00  0.00    +0.000 OA
ATOM     12  H   UNL     1      36.744   0.970   6.437  0.00  0.00    +0.000 HD
ENDBRANCH   6  11
BRANCH   1  14
ATOM     13  O   UNL     1      39.808   0.132  12.309  0.00  0.00    +0.000 OA
ATOM     14  C   UNL     1      38.598   0.057  12.127  0.00  0.00    +0.000 C 
BRANCH  14  15
ATOM     15  C   UNL     1      37.734  -0.192  13.254  0.00  0.00    +0.000 C 
ATOM     16  C   UNL     1      37.011  -0.417  14.188  0.00  0.00    +0.000 C 
BRANCH  16  17
ATOM     17  C   UNL     1      36.153  -0.677  15.297  0.00  0.00    +0.000 A 
ATOM     18  C   UNL     1      36.320  -1.840  16.046  0.00  0.00    +0.000 A 
ATOM     19  C   UNL     1      35.149   0.230  15.628  0.00  0.00    +0.000 A 
ATOM     20  C   UNL     1      35.482  -2.096  17.129  0.00  0.00    +0.000 A 
ATOM     21  C   UNL     1      34.310  -0.027  16.711  0.00  0.00    +0.000 A 
ATOM     22  C   UNL     1      34.477  -1.189  17.459  0.00  0.00    +0.000 A 
ENDBRANCH  16  17
ENDBRANCH  14  15
ENDBRANCH   1  14
TORSDOF 6
ENDMDL
MODEL 2
REMARK VINA RESULT:      -6.4     19.255     21.784
REMARK  Name = 641785_Cardamonin.pdbqt.pdb
REMARK  6 active torsions:
REMARK  status: ('A' for Active; 'I' for Inactive)
REMARK    1  A    between atoms: C_1  and  C_14
REMARK    2  A    between atoms: C_2  and  O_7
REMARK    3  A    between atoms: C_3  and  O_9
REMARK    4  A    between atoms: C_6  and  O_11
REMARK    5  A    between atoms: C_14  and  C_15
REMARK    6  A    between atoms: C_16  and  C_17
REMARK                            x       y       z     vdW  Elec       q    Type
REMARK                         _______ _______ _______ _____ _____    ______ ____
ROOT
ATOM      1  C   UNL     1      16.479   3.108  18.594  0.00  0.00    +0.000 A 
ATOM      2  C   UNL     1      15.426   3.919  19.057  0.00  0.00    +0.000 A 
ATOM      3  C   UNL     1      16.203   2.126  17.620  0.00  0.00    +0.000 A 
ATOM      4  C   UNL     1      14.131   3.712  18.559  0.00  0.00    +0.000 A 
ATOM      5  C   UNL     1      14.908   1.927  17.144  0.00  0.00    +0.000 A 
ATOM      6  C   UNL     1      13.878   2.719  17.622  0.00  0.00    +0.000 A 
ENDROOT
BRANCH   2   7
ATOM      7  O   UNL     1      15.707   4.945  19.930  0.00  0.00    +0.000 OA
ATOM      8  C   UNL     1      15.360   6.231  19.497  0.00  0.00    +0.000 C 
ENDBRANCH   2   7
BRANCH   3   9
ATOM      9  O   UNL     1      17.160   1.305  17.078  0.00  0.00    +0.000 OA
ATOM     10  H   UNL     1      16.990   1.189  16.117  0.00  0.00    +0.000 HD
ENDBRANCH   3   9
BRANCH   6  11
ATOM     11  O   UNL     1      12.618   2.513  17.149  0.00  0.00    +0.000 OA
ATOM     12  H   UNL     1      12.039   3.226  17.472  0.00  0.00    +0.000 HD
ENDBRANCH   6  11
BRANCH   1  14
ATOM     13  O   UNL     1      18.427   2.287  19.634  0.00  0.00    +0.000 OA
ATOM     14  C   UNL     1      17.880   3.231  19.074  0.00  0.00    +0.000 C 
BRANCH  14  15
ATOM     15  C   UNL     1      18.589   4.481  18.955  0.00  0.00    +0.000 C 
ATOM     16  C   UNL     1      19.167   5.532  18.867  0.00  0.00    +0.000 C 
BRANCH  16  17
ATOM     17  C   UNL     1      19.856   6.775  18.758  0.00  0.00    +0.000 A 
ATOM     18  C   UNL     1      20.691   7.012  17.667  0.00  0.00    +0.000 A 
ATOM     19  C   UNL     1      19.696   7.748  19.741  0.00  0.00    +0.000 A 
ATOM     20  C   UNL     1      21.366   8.226  17.560  0.00  0.00    +0.000 A 
ATOM     21  C   UNL     1      20.371   8.962  19.633  0.00  0.00    +0.000 A 
ATOM     22  C   UNL     1      21.206   9.199  18.543  0.00  0.00    +0.000 A 
ENDBRANCH  16  17
ENDBRANCH  14  15
ENDBRANCH   1  14
TORSDOF 6
ENDMDL
MODEL 3
REMARK VINA RESULT:      -5.8      1.953      3.903
REMARK  Name = 641785_Cardamonin.pdbqt.pdb
REMARK  6 active torsions:
REMARK  status: ('A' for Active; 'I' for Inactive)
REMARK    1  A    between atoms: C_1  and  C_14
REMARK    2  A    between atoms: C_2  and  O_7
REMARK    3  A    between atoms: C_3  and  O_9
REMARK    4  A    between atoms: C_6  and  O_11
REMARK    5  A    between atoms: C_14  and  C_15
REMARK    6  A    between atoms: C_16  and  C_17
REMARK                            x       y       z     vdW  Elec       q    Type
REMARK                         _______ _______ _______ _____ _____    ______ ____
ROOT
ATOM      1  C   UNL     1      39.103   1.165  11.665  0.00  0.00    +0.000 A 
ATOM      2  C   UNL     1      39.563  -0.024  11.067  0.00  0.00    +0.000 A 
ATOM      3  C   UNL     1      40.048   2.091  12.151  0.00  0.00    +0.000 A 
ATOM      4  C   UNL     1      40.942  -0.265  10.995  0.00  0.00    +0.000 A 
ATOM      5  C   UNL     1      41.416   1.830  12.081  0.00  0.00    +0.000 A 
ATOM      6  C   UNL     1      41.854   0.648  11.507  0.00  0.00    +0.000 A 
ENDROOT
BRANCH   2   7
ATOM      7  O   UNL     1      38.650  -0.882  10.499  0.00  0.00    +0.000 OA
ATOM      8  C   UNL     1      38.851  -1.186   9.147  0.00  0.00    +0.000 C 
ENDBRANCH   2   7
BRANCH   3   9
ATOM      9  O   UNL     1      39.710   3.292  12.722  0.00  0.00    +0.000 OA
ATOM     10  H   UNL     1      40.083   3.344  13.629  0.00  0.00    +0.000 HD
ENDBRANCH   3   9
BRANCH   6  11
ATOM     11  O   UNL     1      43.193   0.406  11.446  0.00  0.00    +0.000 OA
ATOM     12  H   UNL     1      43.398  -0.013  10.591  0.00  0.00    +0.000 HD
ENDBRANCH   6  11
BRANCH   1  14
ATOM     13  O   UNL     1      37.148   2.341  11.078  0.00  0.00    +0.000 OA
ATOM     14  C   UNL     1      37.664   1.505  11.811  0.00  0.00    +0.000 C 
BRANCH  14  15
ATOM     15  C   UNL     1      36.874   0.915  12.863  0.00  0.00    +0.000 C 
ATOM     16  C   UNL     1      36.208   0.439  13.744  0.00  0.00    +0.000 C 
BRANCH  16  17
ATOM     17  C   UNL     1      35.421  -0.131  14.788  0.00  0.00    +0.000 A 
ATOM     18  C   UNL     1      34.071   0.196  14.897  0.00  0.00    +0.000 A 
ATOM     19  C   UNL     1      36.004  -1.010  15.697  0.00  0.00    +0.000 A 
ATOM     20  C   UNL     1      33.302  -0.359  15.918  0.00  0.00    +0.000 A 
ATOM     21  C   UNL     1      35.234  -1.565  16.718  0.00  0.00    +0.000 A 
ATOM     22  C   UNL     1      33.885  -1.239  16.827  0.00  0.00    +0.000 A 
ENDBRANCH  16  17
ENDBRANCH  14  15
ENDBRANCH   1  14
TORSDOF 6
ENDMDL
MODEL 4
REMARK VINA RESULT:      -5.7     12.504     14.143
REMARK  Name = 641785_Cardamonin.pdbqt.pdb
REMARK  6 active torsions:
REMARK  status: ('A' for Active; 'I' for Inactive)
REMARK    1  A    between atoms: C_1  and  C_14
REMARK    2  A    between atoms: C_2  and  O_7
REMARK    3  A    between atoms: C_3  and  O_9
REMARK    4  A    between atoms: C_6  and  O_11
REMARK    5  A    between atoms: C_14  and  C_15
REMARK    6  A    between atoms: C_16  and  C_17
REMARK                            x       y       z     vdW  Elec       q    Type
REMARK                         _______ _______ _______ _____ _____    ______ ____
ROOT
ATOM      1  C   UNL     1      46.391   7.378  20.661  0.00  0.00    +0.000 A 
ATOM      2  C   UNL     1      46.748   6.564  19.569  0.00  0.00    +0.000 A 
ATOM      3  C   UNL     1      46.973   7.120  21.919  0.00  0.00    +0.000 A 
ATOM      4  C   UNL     1      47.649   5.507  19.767  0.00  0.00    +0.000 A 
ATOM      5  C   UNL     1      47.859   6.059  22.101  0.00  0.00    +0.000 A 
ATOM      6  C   UNL     1      48.187   5.254  21.022  0.00  0.00    +0.000 A 
ENDROOT
BRANCH   2   7
ATOM      7  O   UNL     1      46.264   6.873  18.319  0.00  0.00    +0.000 OA
ATOM      8  C   UNL     1      47.143   7.559  17.472  0.00  0.00    +0.000 C 
ENDBRANCH   2   7
BRANCH   3   9
ATOM      9  O   UNL     1      46.719   7.870  23.040  0.00  0.00    +0.000 OA
ATOM     10  H   UNL     1      47.381   8.594  23.111  0.00  0.00    +0.000 HD
ENDBRANCH   3   9
BRANCH   6  11
ATOM     11  O   UNL     1      49.053   4.221  21.214  0.00  0.00    +0.000 OA
ATOM     12  H   UNL     1      48.542   3.401  21.336  0.00  0.00    +0.000 HD
ENDBRANCH   6  11
BRANCH   1  14
ATOM     13  O   UNL     1      45.835   9.663  20.533  0.00  0.00    +0.000 OA
ATOM     14  C   UNL     1      45.430   8.506  20.562  0.00  0.00    +0.000 C 
BRANCH  14  15
ATOM     15  C   UNL     1      44.009   8.262  20.575  0.00  0.00    +0.000 C 
ATOM     16  C   UNL     1      42.824   8.053  20.567  0.00  0.00    +0.000 C 
BRANCH  16  17
ATOM     17  C   UNL     1      41.420   7.809  20.565  0.00  0.00    +0.000 A 
ATOM     18  C   UNL     1      40.745   7.623  21.770  0.00  0.00    +0.000 A 
ATOM     19  C   UNL     1      40.725   7.754  19.358  0.00  0.00    +0.000 A 
ATOM     20  C   UNL     1      39.373   7.383  21.768  0.00  0.00    +0.000 A 
ATOM     21  C   UNL     1      39.353   7.514  19.357  0.00  0.00    +0.000 A 
ATOM     22  C   UNL     1      38.678   7.328  20.562  0.00  0.00    +0.000 A 
ENDBRANCH  16  17
ENDBRANCH  14  15
ENDBRANCH   1  14
TORSDOF 6
ENDMDL
MODEL 5
REMARK VINA RESULT:      -5.6     12.485     13.889
REMARK  Name = 641785_Cardamonin.pdbqt.pdb
REMARK  6 active torsions:
REMARK  status: ('A' for Active; 'I' for Inactive)
REMARK    1  A    between atoms: C_1  and  C_14
REMARK    2  A    between atoms: C_2  and  O_7
REMARK    3  A    between atoms: C_3  and  O_9
REMARK    4  A    between atoms: C_6  and  O_11
REMARK    5  A    between atoms: C_14  and  C_15
REMARK    6  A    between atoms: C_16  and  C_17
REMARK                            x       y       z     vdW  Elec       q    Type
REMARK                         _______ _______ _______ _____ _____    ______ ____
ROOT
ATOM      1  C   UNL     1      46.455   7.441  20.460  0.00  0.00    +0.000 A 
ATOM      2  C   UNL     1      46.941   8.696  20.047  0.00  0.00    +0.000 A 
ATOM      3  C   UNL     1      46.923   6.283  19.807  0.00  0.00    +0.000 A 
ATOM      4  C   UNL     1      47.854   8.762  18.983  0.00  0.00    +0.000 A 
ATOM      5  C   UNL     1      47.822   6.367  18.744  0.00  0.00    +0.000 A 
ATOM      6  C   UNL     1      48.278   7.609  18.335  0.00  0.00    +0.000 A 
ENDROOT
BRANCH   2   7
ATOM      7  O   UNL     1      46.568   9.820  20.746  0.00  0.00    +0.000 OA
ATOM      8  C   UNL     1      45.776  10.742  20.051  0.00  0.00    +0.000 C 
ENDBRANCH   2   7
BRANCH   3   9
ATOM      9  O   UNL     1      46.539   5.011  20.150  0.00  0.00    +0.000 OA
ATOM     10  H   UNL     1      46.607   4.896  21.124  0.00  0.00    +0.000 HD
ENDBRANCH   3   9
BRANCH   6  11
ATOM     11  O   UNL     1      49.155   7.676  17.296  0.00  0.00    +0.000 OA
ATOM     12  H   UNL     1      49.601   6.815  17.204  0.00  0.00    +0.000 HD
ENDBRANCH   6  11
BRANCH   1  14
ATOM     13  O   UNL     1      45.850   6.980  22.689  0.00  0.00    +0.000 OA
ATOM     14  C   UNL     1      45.471   7.265  21.559  0.00  0.00    +0.000 C 
BRANCH  14  15
ATOM     15  C   UNL     1      44.056   7.352  21.296  0.00  0.00    +0.000 C 
ATOM     16  C   UNL     1      42.878   7.416  21.061  0.00  0.00    +0.000 C 
BRANCH  16  17
ATOM     17  C   UNL     1      41.481   7.496  20.787  0.00  0.00    +0.000 A 
ATOM     18  C   UNL     1      40.564   7.427  21.834  0.00  0.00    +0.000 A 
ATOM     19  C   UNL     1      41.036   7.642  19.475  0.00  0.00    +0.000 A 
ATOM     20  C   UNL     1      39.199   7.504  21.567  0.00  0.00    +0.000 A 
ATOM     21  C   UNL     1      39.671   7.718  19.209  0.00  0.00    +0.000 A 
ATOM     22  C   UNL     1      38.754   7.649  20.255  0.00  0.00    +0.000 A 
ENDBRANCH  16  17
ENDBRANCH  14  15
ENDBRANCH   1  14
TORSDOF 6
ENDMDL
MODEL 6
REMARK VINA RESULT:      -5.6     20.539     22.374
REMARK  Name = 641785_Cardamonin.pdbqt.pdb
REMARK  6 active torsions:
REMARK  status: ('A' for Active; 'I' for Inactive)
REMARK    1  A    between atoms: C_1  and  C_14
REMARK    2  A    between atoms: C_2  and  O_7
REMARK    3  A    between atoms: C_3  and  O_9
REMARK    4  A    between atoms: C_6  and  O_11
REMARK    5  A    between atoms: C_14  and  C_15
REMARK    6  A    between atoms: C_16  and  C_17
REMARK                            x       y       z     vdW  Elec       q    Type
REMARK                         _______ _______ _______ _____ _____    ______ ____
ROOT
ATOM      1  C   UNL     1      49.663  -1.174  29.697  0.00  0.00    +0.000 A 
ATOM      2  C   UNL     1      50.303  -2.033  30.611  0.00  0.00    +0.000 A 
ATOM      3  C   UNL     1      48.358  -1.489  29.268  0.00  0.00    +0.000 A 
ATOM      4  C   UNL     1      49.636  -3.187  31.049  0.00  0.00    +0.000 A 
ATOM      5  C   UNL     1      47.714  -2.646  29.705  0.00  0.00    +0.000 A 
ATOM      6  C   UNL     1      48.361  -3.492  30.589  0.00  0.00    +0.000 A 
ENDROOT
BRANCH   2   7
ATOM      7  O   UNL     1      51.534  -1.679  31.112  0.00  0.00    +0.000 OA
ATOM      8  C   UNL     1      52.620  -2.444  30.671  0.00  0.00    +0.000 C 
ENDBRANCH   2   7
BRANCH   3   9
ATOM      9  O   UNL     1      47.633  -0.705  28.405  0.00  0.00    +0.000 OA
ATOM     10  H   UNL     1      46.767  -0.479  28.812  0.00  0.00    +0.000 HD
ENDBRANCH   3   9
BRANCH   6  11
ATOM     11  O   UNL     1      47.721  -4.619  31.007  0.00  0.00    +0.000 OA
ATOM     12  H   UNL     1      48.381  -5.321  31.151  0.00  0.00    +0.000 HD
ENDBRANCH   6  11
BRANCH   1  14
ATOM     13  O   UNL     1      51.248  -0.017  28.394  0.00  0.00    +0.000 OA
ATOM     14  C   UNL     1      50.290   0.059  29.155  0.00  0.00    +0.000 C 
BRANCH  14  15
ATOM     15  C   UNL     1      49.831   1.360  29.575  0.00  0.00    +0.000 C 
ATOM     16  C   UNL     1      49.452   2.440  29.943  0.00  0.00    +0.000 C 
BRANCH  16  17
ATOM     17  C   UNL     1      49.000   3.722  30.374  0.00  0.00    +0.000 A 
ATOM     18  C   UNL     1      48.112   3.822  31.443  0.00  0.00    +0.000 A 
ATOM     19  C   UNL     1      49.445   4.871  29.724  0.00  0.00    +0.000 A 
ATOM     20  C   UNL     1      47.669   5.074  31.863  0.00  0.00    +0.000 A 
ATOM     21  C   UNL     1      49.001   6.123  30.145  0.00  0.00    +0.000 A 
ATOM     22  C   UNL     1      48.113   6.223  31.213  0.00  0.00    +0.000 A 
ENDBRANCH  16  17
ENDBRANCH  14  15
ENDBRANCH   1  14
TORSDOF 6
ENDMDL
MODEL 7
REMARK VINA RESULT:      -5.5     10.614     13.474
REMARK  Name = 641785_Cardamonin.pdbqt.pdb
REMARK  6 active torsions:
REMARK  status: ('A' for Active; 'I' for Inactive)
REMARK    1  A    between atoms: C_1  and  C_14
REMARK    2  A    between atoms: C_2  and  O_7
REMARK    3  A    between atoms: C_3  and  O_9
REMARK    4  A    between atoms: C_6  and  O_11
REMARK    5  A    between atoms: C_14  and  C_15
REMARK    6  A    between atoms: C_16  and  C_17
REMARK                            x       y       z     vdW  Elec       q    Type
REMARK                         _______ _______ _______ _____ _____    ______ ____
ROOT
ATOM      1  C   UNL     1      46.946  -4.544  12.832  0.00  0.00    +0.000 A 
ATOM      2  C   UNL     1      47.818  -3.439  12.801  0.00  0.00    +0.000 A 
ATOM      3  C   UNL     1      46.926  -5.362  13.980  0.00  0.00    +0.000 A 
ATOM      4  C   UNL     1      48.657  -3.197  13.899  0.00  0.00    +0.000 A 
ATOM      5  C   UNL     1      47.775  -5.113  15.058  0.00  0.00    +0.000 A 
ATOM      6  C   UNL     1      48.641  -4.034  15.007  0.00  0.00    +0.000 A 
ENDROOT
BRANCH   2   7
ATOM      7  O   UNL     1      47.769  -2.579  11.728  0.00  0.00    +0.000 OA
ATOM      8  C   UNL     1      47.194  -1.326  11.972  0.00  0.00    +0.000 C 
ENDBRANCH   2   7
BRANCH   3   9
ATOM      9  O   UNL     1      46.094  -6.443  14.127  0.00  0.00    +0.000 OA
ATOM     10  H   UNL     1      46.608  -7.274  14.018  0.00  0.00    +0.000 HD
ENDBRANCH   3   9
BRANCH   6  11
ATOM     11  O   UNL     1      49.465  -3.804  16.066  0.00  0.00    +0.000 OA
ATOM     12  H   UNL     1      49.117  -3.052  16.578  0.00  0.00    +0.000 HD
ENDBRANCH   6  11
BRANCH   1  14
ATOM     13  O   UNL     1      44.819  -4.863  11.871  0.00  0.00    +0.000 OA
ATOM     14  C   UNL     1      46.034  -4.900  11.714  0.00  0.00    +0.000 C 
BRANCH  14  15
ATOM     15  C   UNL     1      46.564  -5.364  10.456  0.00  0.00    +0.000 C 
ATOM     16  C   UNL     1      47.020  -5.759   9.416  0.00  0.00    +0.000 C 
BRANCH  16  17
ATOM     17  C   UNL     1      47.556  -6.223   8.179  0.00  0.00    +0.000 A 
ATOM     18  C   UNL     1      48.794  -6.864   8.155  0.00  0.00    +0.000 A 
ATOM     19  C   UNL     1      46.844  -6.034   6.997  0.00  0.00    +0.000 A 
ATOM     20  C   UNL     1      49.319  -7.316   6.947  0.00  0.00    +0.000 A 
ATOM     21  C   UNL     1      47.370  -6.487   5.788  0.00  0.00    +0.000 A 
ATOM     22  C   UNL     1      48.607  -7.126   5.765  0.00  0.00    +0.000 A 
ENDBRANCH  16  17
ENDBRANCH  14  15
ENDBRANCH   1  14
TORSDOF 6
ENDMDL
MODEL 8
REMARK VINA RESULT:      -5.3     33.703     36.752
REMARK  Name = 641785_Cardamonin.pdbqt.pdb
REMARK  6 active torsions:
REMARK  status: ('A' for Active; 'I' for Inactive)
REMARK    1  A    between atoms: C_1  and  C_14
REMARK    2  A    between atoms: C_2  and  O_7
REMARK    3  A    between atoms: C_3  and  O_9
REMARK    4  A    between atoms: C_6  and  O_11
REMARK    5  A    between atoms: C_14  and  C_15
REMARK    6  A    between atoms: C_16  and  C_17
REMARK                            x       y       z     vdW  Elec       q    Type
REMARK                         _______ _______ _______ _____ _____    ______ ____
ROOT
ATOM      1  C   UNL     1      20.272  -9.032  42.739  0.00  0.00    +0.000 A 
ATOM      2  C   UNL     1      19.989 -10.361  42.371  0.00  0.00    +0.000 A 
ATOM      3  C   UNL     1      20.491  -8.078  41.725  0.00  0.00    +0.000 A 
ATOM      4  C   UNL     1      19.956 -10.704  41.011  0.00  0.00    +0.000 A 
ATOM      5  C   UNL     1      20.465  -8.438  40.378  0.00  0.00    +0.000 A 
ATOM      6  C   UNL     1      20.204  -9.752  40.030  0.00  0.00    +0.000 A 
ENDROOT
BRANCH   2   7
ATOM      7  O   UNL     1      19.674 -11.274  43.351  0.00  0.00    +0.000 OA
ATOM      8  C   UNL     1      19.777 -12.623  42.991  0.00  0.00    +0.000 C 
ENDBRANCH   2   7
BRANCH   3   9
ATOM      9  O   UNL     1      20.743  -6.752  41.973  0.00  0.00    +0.000 OA
ATOM     10  H   UNL     1      20.138  -6.194  41.435  0.00  0.00    +0.000 HD
ENDBRANCH   3   9
BRANCH   6  11
ATOM     11  O   UNL     1      20.183 -10.090  38.711  0.00  0.00    +0.000 OA
ATOM     12  H   UNL     1      20.430 -11.027  38.622  0.00  0.00    +0.000 HD
ENDBRANCH   6  11
BRANCH   1  14
ATOM     13  O   UNL     1      19.546  -7.756  44.581  0.00  0.00    +0.000 OA
ATOM     14  C   UNL     1      20.352  -8.573  44.150  0.00  0.00    +0.000 C 
BRANCH  14  15
ATOM     15  C   UNL     1      21.421  -9.021  45.008  0.00  0.00    +0.000 C 
ATOM     16  C   UNL     1      22.307  -9.383  45.737  0.00  0.00    +0.000 C 
BRANCH  16  17
ATOM     17  C   UNL     1      23.360  -9.815  46.595  0.00  0.00    +0.000 A 
ATOM     18  C   UNL     1      23.199  -9.749  47.978  0.00  0.00    +0.000 A 
ATOM     19  C   UNL     1      24.547 -10.300  46.051  0.00  0.00    +0.000 A 
ATOM     20  C   UNL     1      24.228 -10.169  48.818  0.00  0.00    +0.000 A 
ATOM     21  C   UNL     1      25.575 -10.720  46.892  0.00  0.00    +0.000 A 
ATOM     22  C   UNL     1      25.415 -10.654  48.274  0.00  0.00    +0.000 A 
ENDBRANCH  16  17
ENDBRANCH  14  15
ENDBRANCH   1  14
TORSDOF 6
ENDMDL
MODEL 9
REMARK VINA RESULT:      -5.3      8.479     11.018
REMARK  Name = 641785_Cardamonin.pdbqt.pdb
REMARK  6 active torsions:
REMARK  status: ('A' for Active; 'I' for Inactive)
REMARK    1  A    between atoms: C_1  and  C_14
REMARK    2  A    between atoms: C_2  and  O_7
REMARK    3  A    between atoms: C_3  and  O_9
REMARK    4  A    between atoms: C_6  and  O_11
REMARK    5  A    between atoms: C_14  and  C_15
REMARK    6  A    between atoms: C_16  and  C_17
REMARK                            x       y       z     vdW  Elec       q    Type
REMARK                         _______ _______ _______ _____ _____    ______ ____
ROOT
ATOM      1  C   UNL     1      47.075  -4.714  12.984  0.00  0.00    +0.000 A 
ATOM      2  C   UNL     1      48.002  -3.658  12.894  0.00  0.00    +0.000 A 
ATOM      3  C   UNL     1      47.025  -5.475  14.170  0.00  0.00    +0.000 A 
ATOM      4  C   UNL     1      48.865  -3.410  13.971  0.00  0.00    +0.000 A 
ATOM      5  C   UNL     1      47.898  -5.221  15.227  0.00  0.00    +0.000 A 
ATOM      6  C   UNL     1      48.818  -4.192  15.118  0.00  0.00    +0.000 A 
ENDROOT
BRANCH   2   7
ATOM      7  O   UNL     1      47.986  -2.848  11.782  0.00  0.00    +0.000 OA
ATOM      8  C   UNL     1      49.080  -2.969  10.917  0.00  0.00    +0.000 C 
ENDBRANCH   2   7
BRANCH   3   9
ATOM      9  O   UNL     1      46.140  -6.503  14.375  0.00  0.00    +0.000 OA
ATOM     10  H   UNL     1      45.822  -6.843  13.510  0.00  0.00    +0.000 HD
ENDBRANCH   3   9
BRANCH   6  11
ATOM     11  O   UNL     1      49.665  -3.956  16.158  0.00  0.00    +0.000 OA
ATOM     12  H   UNL     1      49.150  -3.927  16.983  0.00  0.00    +0.000 HD
ENDBRANCH   6  11
BRANCH   1  14
ATOM     13  O   UNL     1      46.297  -6.103  11.249  0.00  0.00    +0.000 OA
ATOM     14  C   UNL     1      46.133  -5.073  11.893  0.00  0.00    +0.000 C 
BRANCH  14  15
ATOM     15  C   UNL     1      45.061  -4.181  11.526  0.00  0.00    +0.000 C 
ATOM     16  C   UNL     1      44.158  -3.442  11.236  0.00  0.00    +0.000 C 
BRANCH  16  17
ATOM     17  C   UNL     1      43.089  -2.566  10.885  0.00  0.00    +0.000 A 
ATOM     18  C   UNL     1      42.834  -1.437  11.662  0.00  0.00    +0.000 A 
ATOM     19  C   UNL     1      42.302  -2.839   9.769  0.00  0.00    +0.000 A 
ATOM     20  C   UNL     1      41.789  -0.581  11.322  0.00  0.00    +0.000 A 
ATOM     21  C   UNL     1      41.258  -1.982   9.429  0.00  0.00    +0.000 A 
ATOM     22  C   UNL     1      41.002  -0.855  10.205  0.00  0.00    +0.000 A 
ENDBRANCH  16  17
ENDBRANCH  14  15
ENDBRANCH   1  14
TORSDOF 6
ENDMDL
