MODEL 1
REMARK VINA RESULT:      -7.3      0.000      0.000
REMARK  Name = 6440856_Goniothalamin.pdbqt.pdb
REMARK  2 active torsions:
REMARK  status: ('A' for Active; 'I' for Inactive)
REMARK    1  A    between atoms: C_1  and  C_5
REMARK    2  A    between atoms: C_2  and  C_10
REMARK                            x       y       z     vdW  Elec       q    Type
REMARK                         _______ _______ _______ _____ _____    ______ ____
ROOT
ATOM      1  C   UNL     1      35.779   1.637  18.274  0.00  0.00    +0.000 C 
ATOM      2  C   UNL     1      36.155   2.403  19.118  0.00  0.00    +0.000 C 
ENDROOT
BRANCH   1   5
ATOM      3  O   UNL     1      33.988   0.229  17.363  0.00  0.00    +0.000 OA
ATOM      4  O   UNL     1      32.445  -1.161  16.332  0.00  0.00    +0.000 OA
ATOM      5  C   UNL     1      35.333   0.737  17.279  0.00  0.00    +0.000 A 
ATOM      6  C   UNL     1      36.093   0.268  16.173  0.00  0.00    +0.000 A 
ATOM      7  C   UNL     1      35.694  -0.687  15.072  0.00  0.00    +0.000 A 
ATOM      8  C   UNL     1      34.565  -0.953  15.369  0.00  0.00    +0.000 A 
ATOM      9  C   UNL     1      33.559  -0.662  16.372  0.00  0.00    +0.000 A 
ENDBRANCH   1   5
BRANCH   2  10
ATOM     10  C   UNL     1      36.602   3.314  20.121  0.00  0.00    +0.000 A 
ATOM     11  C   UNL     1      36.075   3.245  21.408  0.00  0.00    +0.000 A 
ATOM     12  C   UNL     1      37.566   4.271  19.811  0.00  0.00    +0.000 A 
ATOM     13  C   UNL     1      36.511   4.136  22.387  0.00  0.00    +0.000 A 
ATOM     14  C   UNL     1      38.003   5.161  20.790  0.00  0.00    +0.000 A 
ATOM     15  C   UNL     1      37.475   5.092  22.077  0.00  0.00    +0.000 A 
ENDBRANCH   2  10
TORSDOF 2
ENDMDL
MODEL 2
REMARK VINA RESULT:      -6.9     16.287     17.594
REMARK  Name = 6440856_Goniothalamin.pdbqt.pdb
REMARK  2 active torsions:
REMARK  status: ('A' for Active; 'I' for Inactive)
REMARK    1  A    between atoms: C_1  and  C_5
REMARK    2  A    between atoms: C_2  and  C_10
REMARK                            x       y       z     vdW  Elec       q    Type
REMARK                         _______ _______ _______ _____ _____    ______ ____
ROOT
ATOM      1  C   UNL     1      20.219   7.897  18.511  0.00  0.00    +0.000 C 
ATOM      2  C   UNL     1      19.745   6.905  18.993  0.00  0.00    +0.000 C 
ENDROOT
BRANCH   1   5
ATOM      3  O   UNL     1      21.700   8.930  16.849  0.00  0.00    +0.000 OA
ATOM      4  O   UNL     1      23.035  10.113  15.368  0.00  0.00    +0.000 OA
ATOM      5  C   UNL     1      20.772   9.067  17.942  0.00  0.00    +0.000 A 
ATOM      6  C   UNL     1      20.501  10.403  18.347  0.00  0.00    +0.000 A 
ATOM      7  C   UNL     1      21.046  11.700  17.796  0.00  0.00    +0.000 A 
ATOM      8  C   UNL     1      21.772  11.316  16.924  0.00  0.00    +0.000 A 
ATOM      9  C   UNL     1      22.240  10.096  16.295  0.00  0.00    +0.000 A 
ENDBRANCH   1   5
BRANCH   2  10
ATOM     10  C   UNL     1      19.183   5.726  19.566  0.00  0.00    +0.000 A 
ATOM     11  C   UNL     1      18.325   5.825  20.659  0.00  0.00    +0.000 A 
ATOM     12  C   UNL     1      19.493   4.477  19.032  0.00  0.00    +0.000 A 
ATOM     13  C   UNL     1      17.777   4.673  21.220  0.00  0.00    +0.000 A 
ATOM     14  C   UNL     1      18.945   3.326  19.593  0.00  0.00    +0.000 A 
ATOM     15  C   UNL     1      18.086   3.425  20.686  0.00  0.00    +0.000 A 
ENDBRANCH   2  10
TORSDOF 2
ENDMDL
MODEL 3
REMARK VINA RESULT:      -6.9     16.150     17.118
REMARK  Name = 6440856_Goniothalamin.pdbqt.pdb
REMARK  2 active torsions:
REMARK  status: ('A' for Active; 'I' for Inactive)
REMARK    1  A    between atoms: C_1  and  C_5
REMARK    2  A    between atoms: C_2  and  C_10
REMARK                            x       y       z     vdW  Elec       q    Type
REMARK                         _______ _______ _______ _____ _____    ______ ____
ROOT
ATOM      1  C   UNL     1      19.682   6.811  18.789  0.00  0.00    +0.000 C 
ATOM      2  C   UNL     1      20.243   7.803  18.410  0.00  0.00    +0.000 C 
ENDROOT
BRANCH   1   5
ATOM      3  O   UNL     1      18.798   4.577  18.288  0.00  0.00    +0.000 OA
ATOM      4  O   UNL     1      17.895   2.456  18.038  0.00  0.00    +0.000 OA
ATOM      5  C   UNL     1      19.022   5.642  19.232  0.00  0.00    +0.000 A 
ATOM      6  C   UNL     1      18.544   5.398  20.548  0.00  0.00    +0.000 A 
ATOM      7  C   UNL     1      17.834   4.184  21.100  0.00  0.00    +0.000 A 
ATOM      8  C   UNL     1      17.774   3.471  20.140  0.00  0.00    +0.000 A 
ATOM      9  C   UNL     1      18.144   3.425  18.739  0.00  0.00    +0.000 A 
ENDBRANCH   1   5
BRANCH   2  10
ATOM     10  C   UNL     1      20.909   8.980  17.959  0.00  0.00    +0.000 A 
ATOM     11  C   UNL     1      20.325  10.229  18.157  0.00  0.00    +0.000 A 
ATOM     12  C   UNL     1      22.145   8.880  17.323  0.00  0.00    +0.000 A 
ATOM     13  C   UNL     1      20.976  11.379  17.715  0.00  0.00    +0.000 A 
ATOM     14  C   UNL     1      22.796  10.030  16.883  0.00  0.00    +0.000 A 
ATOM     15  C   UNL     1      22.211  11.279  17.080  0.00  0.00    +0.000 A 
ENDBRANCH   2  10
TORSDOF 2
ENDMDL
MODEL 4
REMARK VINA RESULT:      -6.9     16.433     17.712
REMARK  Name = 6440856_Goniothalamin.pdbqt.pdb
REMARK  2 active torsions:
REMARK  status: ('A' for Active; 'I' for Inactive)
REMARK    1  A    between atoms: C_1  and  C_5
REMARK    2  A    between atoms: C_2  and  C_10
REMARK                            x       y       z     vdW  Elec       q    Type
REMARK                         _______ _______ _______ _____ _____    ______ ____
ROOT
ATOM      1  C   UNL     1      20.476   8.231  18.524  0.00  0.00    +0.000 C 
ATOM      2  C   UNL     1      19.930   7.283  19.020  0.00  0.00    +0.000 C 
ENDROOT
BRANCH   1   5
ATOM      3  O   UNL     1      20.640  10.667  18.273  0.00  0.00    +0.000 OA
ATOM      4  O   UNL     1      20.974  12.929  17.892  0.00  0.00    +0.000 OA
ATOM      5  C   UNL     1      21.119   9.349  17.944  0.00  0.00    +0.000 A 
ATOM      6  C   UNL     1      22.220   9.308  17.045  0.00  0.00    +0.000 A 
ATOM      7  C   UNL     1      22.960  10.448  16.386  0.00  0.00    +0.000 A 
ATOM      8  C   UNL     1      22.381  11.404  16.813  0.00  0.00    +0.000 A 
ATOM      9  C   UNL     1      21.285  11.765  17.693  0.00  0.00    +0.000 A 
ENDBRANCH   1   5
BRANCH   2  10
ATOM     10  C   UNL     1      19.283   6.157  19.608  0.00  0.00    +0.000 A 
ATOM     11  C   UNL     1      19.459   4.889  19.061  0.00  0.00    +0.000 A 
ATOM     12  C   UNL     1      18.475   6.328  20.731  0.00  0.00    +0.000 A 
ATOM     13  C   UNL     1      18.825   3.789  19.636  0.00  0.00    +0.000 A 
ATOM     14  C   UNL     1      17.842   5.228  21.306  0.00  0.00    +0.000 A 
ATOM     15  C   UNL     1      18.018   3.960  20.758  0.00  0.00    +0.000 A 
ENDBRANCH   2  10
TORSDOF 2
ENDMDL
MODEL 5
REMARK VINA RESULT:      -6.5      4.984      7.210
REMARK  Name = 6440856_Goniothalamin.pdbqt.pdb
REMARK  2 active torsions:
REMARK  status: ('A' for Active; 'I' for Inactive)
REMARK    1  A    between atoms: C_1  and  C_5
REMARK    2  A    between atoms: C_2  and  C_10
REMARK                            x       y       z     vdW  Elec       q    Type
REMARK                         _______ _______ _______ _____ _____    ______ ____
ROOT
ATOM      1  C   UNL     1      36.268   0.291  13.892  0.00  0.00    +0.000 C 
ATOM      2  C   UNL     1      36.805   0.833  12.965  0.00  0.00    +0.000 C 
ENDROOT
BRANCH   1   5
ATOM      3  O   UNL     1      34.198  -0.266  15.087  0.00  0.00    +0.000 OA
ATOM      4  O   UNL     1      32.376  -0.904  16.371  0.00  0.00    +0.000 OA
ATOM      5  C   UNL     1      35.633  -0.345  14.984  0.00  0.00    +0.000 A 
ATOM      6  C   UNL     1      36.278  -1.075  16.018  0.00  0.00    +0.000 A 
ATOM      7  C   UNL     1      35.677  -1.781  17.211  0.00  0.00    +0.000 A 
ATOM      8  C   UNL     1      34.508  -1.567  17.066  0.00  0.00    +0.000 A 
ATOM      9  C   UNL     1      33.581  -0.899  16.172  0.00  0.00    +0.000 A 
ENDBRANCH   1   5
BRANCH   2  10
ATOM     10  C   UNL     1      37.442   1.475  11.863  0.00  0.00    +0.000 A 
ATOM     11  C   UNL     1      37.243   2.836  11.641  0.00  0.00    +0.000 A 
ATOM     12  C   UNL     1      38.263   0.741  11.009  0.00  0.00    +0.000 A 
ATOM     13  C   UNL     1      37.866   3.463  10.564  0.00  0.00    +0.000 A 
ATOM     14  C   UNL     1      38.885   1.369   9.933  0.00  0.00    +0.000 A 
ATOM     15  C   UNL     1      38.687   2.730   9.711  0.00  0.00    +0.000 A 
ENDBRANCH   2  10
TORSDOF 2
ENDMDL
MODEL 6
REMARK VINA RESULT:      -6.4      4.255      8.552
REMARK  Name = 6440856_Goniothalamin.pdbqt.pdb
REMARK  2 active torsions:
REMARK  status: ('A' for Active; 'I' for Inactive)
REMARK    1  A    between atoms: C_1  and  C_5
REMARK    2  A    between atoms: C_2  and  C_10
REMARK                            x       y       z     vdW  Elec       q    Type
REMARK                         _______ _______ _______ _____ _____    ______ ____
ROOT
ATOM      1  C   UNL     1      36.416   0.665  13.271  0.00  0.00    +0.000 C 
ATOM      2  C   UNL     1      36.726   0.535  12.118  0.00  0.00    +0.000 C 
ENDROOT
BRANCH   1   5
ATOM      3  O   UNL     1      35.419   2.052  15.033  0.00  0.00    +0.000 OA
ATOM      4  O   UNL     1      34.523   3.188  16.845  0.00  0.00    +0.000 OA
ATOM      5  C   UNL     1      36.048   0.822  14.627  0.00  0.00    +0.000 A 
ATOM      6  C   UNL     1      36.239  -0.134  15.662  0.00  0.00    +0.000 A 
ATOM      7  C   UNL     1      35.878  -0.046  17.126  0.00  0.00    +0.000 A 
ATOM      8  C   UNL     1      35.385   1.043  17.197  0.00  0.00    +0.000 A 
ATOM      9  C   UNL     1      35.061   2.195  16.378  0.00  0.00    +0.000 A 
ENDBRANCH   1   5
BRANCH   2  10
ATOM     10  C   UNL     1      37.094   0.380  10.749  0.00  0.00    +0.000 A 
ATOM     11  C   UNL     1      37.363   1.503   9.969  0.00  0.00    +0.000 A 
ATOM     12  C   UNL     1      37.184  -0.894  10.193  0.00  0.00    +0.000 A 
ATOM     13  C   UNL     1      37.721   1.351   8.632  0.00  0.00    +0.000 A 
ATOM     14  C   UNL     1      37.543  -1.045   8.856  0.00  0.00    +0.000 A 
ATOM     15  C   UNL     1      37.812   0.077   8.076  0.00  0.00    +0.000 A 
ENDBRANCH   2  10
TORSDOF 2
ENDMDL
MODEL 7
REMARK VINA RESULT:      -6.3      8.547     11.549
REMARK  Name = 6440856_Goniothalamin.pdbqt.pdb
REMARK  2 active torsions:
REMARK  status: ('A' for Active; 'I' for Inactive)
REMARK    1  A    between atoms: C_1  and  C_5
REMARK    2  A    between atoms: C_2  and  C_10
REMARK                            x       y       z     vdW  Elec       q    Type
REMARK                         _______ _______ _______ _____ _____    ______ ____
ROOT
ATOM      1  C   UNL     1      43.899   7.379  21.228  0.00  0.00    +0.000 C 
ATOM      2  C   UNL     1      42.712   7.421  21.050  0.00  0.00    +0.000 C 
ENDROOT
BRANCH   1   5
ATOM      3  O   UNL     1      45.940   6.045  21.506  0.00  0.00    +0.000 OA
ATOM      4  O   UNL     1      47.983   4.987  21.793  0.00  0.00    +0.000 OA
ATOM      5  C   UNL     1      45.296   7.332  21.440  0.00  0.00    +0.000 A 
ATOM      6  C   UNL     1      46.157   8.452  21.598  0.00  0.00    +0.000 A 
ATOM      7  C   UNL     1      47.650   8.488  21.827  0.00  0.00    +0.000 A 
ATOM      8  C   UNL     1      47.929   7.324  21.842  0.00  0.00    +0.000 A 
ATOM      9  C   UNL     1      47.323   6.012  21.717  0.00  0.00    +0.000 A 
ENDBRANCH   1   5
BRANCH   2  10
ATOM     10  C   UNL     1      41.303   7.472  20.838  0.00  0.00    +0.000 A 
ATOM     11  C   UNL     1      40.433   7.385  21.923  0.00  0.00    +0.000 A 
ATOM     12  C   UNL     1      40.798   7.610  19.547  0.00  0.00    +0.000 A 
ATOM     13  C   UNL     1      39.056   7.433  21.716  0.00  0.00    +0.000 A 
ATOM     14  C   UNL     1      39.421   7.659  19.341  0.00  0.00    +0.000 A 
ATOM     15  C   UNL     1      38.551   7.571  20.426  0.00  0.00    +0.000 A 
ENDBRANCH   2  10
TORSDOF 2
ENDMDL
MODEL 8
REMARK VINA RESULT:      -5.9     15.638     17.211
REMARK  Name = 6440856_Goniothalamin.pdbqt.pdb
REMARK  2 active torsions:
REMARK  status: ('A' for Active; 'I' for Inactive)
REMARK    1  A    between atoms: C_1  and  C_5
REMARK    2  A    between atoms: C_2  and  C_10
REMARK                            x       y       z     vdW  Elec       q    Type
REMARK                         _______ _______ _______ _____ _____    ______ ____
ROOT
ATOM      1  C   UNL     1      26.225  -1.204   4.733  0.00  0.00    +0.000 C 
ATOM      2  C   UNL     1      27.379  -0.899   4.602  0.00  0.00    +0.000 C 
ENDROOT
BRANCH   1   5
ATOM      3  O   UNL     1      24.324  -1.637   6.224  0.00  0.00    +0.000 OA
ATOM      4  O   UNL     1      22.403  -2.091   7.440  0.00  0.00    +0.000 OA
ATOM      5  C   UNL     1      24.867  -1.563   4.892  0.00  0.00    +0.000 A 
ATOM      6  C   UNL     1      23.954  -1.866   3.845  0.00  0.00    +0.000 A 
ATOM      7  C   UNL     1      22.496  -2.255   3.928  0.00  0.00    +0.000 A 
ATOM      8  C   UNL     1      22.301  -2.244   5.109  0.00  0.00    +0.000 A 
ATOM      9  C   UNL     1      22.978  -1.993   6.367  0.00  0.00    +0.000 A 
ENDBRANCH   1   5
BRANCH   2  10
ATOM     10  C   UNL     1      28.749  -0.535   4.446  0.00  0.00    +0.000 A 
ATOM     11  C   UNL     1      29.720  -1.524   4.310  0.00  0.00    +0.000 A 
ATOM     12  C   UNL     1      29.114   0.810   4.431  0.00  0.00    +0.000 A 
ATOM     13  C   UNL     1      31.059  -1.168   4.158  0.00  0.00    +0.000 A 
ATOM     14  C   UNL     1      30.453   1.165   4.279  0.00  0.00    +0.000 A 
ATOM     15  C   UNL     1      31.424   0.175   4.142  0.00  0.00    +0.000 A 
ENDBRANCH   2  10
TORSDOF 2
ENDMDL
MODEL 9
REMARK VINA RESULT:      -5.9      5.597      7.441
REMARK  Name = 6440856_Goniothalamin.pdbqt.pdb
REMARK  2 active torsions:
REMARK  status: ('A' for Active; 'I' for Inactive)
REMARK    1  A    between atoms: C_1  and  C_5
REMARK    2  A    between atoms: C_2  and  C_10
REMARK                            x       y       z     vdW  Elec       q    Type
REMARK                         _______ _______ _______ _____ _____    ______ ____
ROOT
ATOM      1  C   UNL     1      37.642   0.026  13.039  0.00  0.00    +0.000 C 
ATOM      2  C   UNL     1      36.961  -0.286  13.977  0.00  0.00    +0.000 C 
ENDROOT
BRANCH   1   5
ATOM      3  O   UNL     1      37.975   1.424  11.050  0.00  0.00    +0.000 OA
ATOM      4  O   UNL     1      38.493   2.633   9.141  0.00  0.00    +0.000 OA
ATOM      5  C   UNL     1      38.447   0.391  11.935  0.00  0.00    +0.000 A 
ATOM      6  C   UNL     1      39.710  -0.169  11.599  0.00  0.00    +0.000 A 
ATOM      7  C   UNL     1      40.628   0.162  10.446  0.00  0.00    +0.000 A 
ATOM      8  C   UNL     1      40.019   1.024   9.880  0.00  0.00    +0.000 A 
ATOM      9  C   UNL     1      38.782   1.776   9.961  0.00  0.00    +0.000 A 
ENDBRANCH   1   5
BRANCH   2  10
ATOM     10  C   UNL     1      36.152  -0.656  15.092  0.00  0.00    +0.000 A 
ATOM     11  C   UNL     1      36.535  -1.718  15.907  0.00  0.00    +0.000 A 
ATOM     12  C   UNL     1      34.979   0.045  15.363  0.00  0.00    +0.000 A 
ATOM     13  C   UNL     1      35.744  -2.080  16.995  0.00  0.00    +0.000 A 
ATOM     14  C   UNL     1      34.188  -0.317  16.452  0.00  0.00    +0.000 A 
ATOM     15  C   UNL     1      34.572  -1.379  17.267  0.00  0.00    +0.000 A 
ENDBRANCH   2  10
TORSDOF 2
ENDMDL
