MODEL 1
REMARK VINA RESULT:      -5.1      0.000      0.000
REMARK  Name = 649_Dihydrouracil.pdb
REMARK  0 active torsions:
REMARK  status: ('A' for Active; 'I' for Inactive)
REMARK                            x       y       z     vdW  Elec       q    Type
REMARK                         _______ _______ _______ _____ _____    ______ ____
ROOT
ATOM      1  O   UNL     1      38.936  -2.103  38.908  0.00  0.00    +0.000 OA
ATOM      2  O   UNL     1      41.209  -0.271  35.335  0.00  0.00    +0.000 OA
ATOM      3  N   UNL     1      39.351   0.837  36.094  0.00  0.00    +0.000 N 
ATOM      4  N   UNL     1      40.062  -1.167  37.114  0.00  0.00    +0.000 N 
ATOM      5  C   UNL     1      38.325   0.922  36.951  0.00  0.00    +0.000 A 
ATOM      6  C   UNL     1      38.125  -0.124  37.999  0.00  0.00    +0.000 A 
ATOM      7  C   UNL     1      39.051  -1.220  38.073  0.00  0.00    +0.000 A 
ATOM      8  C   UNL     1      40.273  -0.201  36.123  0.00  0.00    +0.000 A 
ATOM      9  H   UNL     1      39.477   1.552  35.388  0.00  0.00    +0.000 HD
ATOM     10  H   UNL     1      40.729  -1.922  37.138  0.00  0.00    +0.000 HD
ENDROOT
TORSDOF 0
ENDMDL
MODEL 2
REMARK VINA RESULT:      -5.1      1.845      2.136
REMARK  Name = 649_Dihydrouracil.pdb
REMARK  0 active torsions:
REMARK  status: ('A' for Active; 'I' for Inactive)
REMARK                            x       y       z     vdW  Elec       q    Type
REMARK                         _______ _______ _______ _____ _____    ______ ____
ROOT
ATOM      1  O   UNL     1      38.712   1.626  38.944  0.00  0.00    +0.000 OA
ATOM      2  O   UNL     1      40.937  -1.636  36.556  0.00  0.00    +0.000 OA
ATOM      3  N   UNL     1      39.989   0.085  35.375  0.00  0.00    +0.000 N 
ATOM      4  N   UNL     1      39.824  -0.001  37.726  0.00  0.00    +0.000 N 
ATOM      5  C   UNL     1      39.289   1.227  35.357  0.00  0.00    +0.000 A 
ATOM      6  C   UNL     1      38.798   1.835  36.631  0.00  0.00    +0.000 A 
ATOM      7  C   UNL     1      39.088   1.175  37.873  0.00  0.00    +0.000 A 
ATOM      8  C   UNL     1      40.296  -0.592  36.549  0.00  0.00    +0.000 A 
ATOM      9  H   UNL     1      40.317  -0.317  34.506  0.00  0.00    +0.000 HD
ATOM     10  H   UNL     1      40.044  -0.489  38.580  0.00  0.00    +0.000 HD
ENDROOT
TORSDOF 0
ENDMDL
MODEL 3
REMARK VINA RESULT:      -4.9      1.991      3.100
REMARK  Name = 649_Dihydrouracil.pdb
REMARK  0 active torsions:
REMARK  status: ('A' for Active; 'I' for Inactive)
REMARK                            x       y       z     vdW  Elec       q    Type
REMARK                         _______ _______ _______ _____ _____    ______ ____
ROOT
ATOM      1  O   UNL     1      36.382   1.467  37.942  0.00  0.00    +0.000 OA
ATOM      2  O   UNL     1      38.896  -2.238  39.056  0.00  0.00    +0.000 OA
ATOM      3  N   UNL     1      39.776  -0.779  37.522  0.00  0.00    +0.000 N 
ATOM      4  N   UNL     1      37.661  -0.386  38.487  0.00  0.00    +0.000 N 
ATOM      5  C   UNL     1      39.667   0.344  36.800  0.00  0.00    +0.000 A 
ATOM      6  C   UNL     1      38.450   1.203  36.915  0.00  0.00    +0.000 A 
ATOM      7  C   UNL     1      37.400   0.804  37.809  0.00  0.00    +0.000 A 
ATOM      8  C   UNL     1      38.789  -1.209  38.400  0.00  0.00    +0.000 A 
ATOM      9  H   UNL     1      40.605  -1.354  37.437  0.00  0.00    +0.000 HD
ATOM     10  H   UNL     1      36.942  -0.695  39.124  0.00  0.00    +0.000 HD
ENDROOT
TORSDOF 0
ENDMDL
MODEL 4
REMARK VINA RESULT:      -4.8      8.045      9.023
REMARK  Name = 649_Dihydrouracil.pdb
REMARK  0 active torsions:
REMARK  status: ('A' for Active; 'I' for Inactive)
REMARK                            x       y       z     vdW  Elec       q    Type
REMARK                         _______ _______ _______ _____ _____    ______ ____
ROOT
ATOM      1  O   UNL     1      33.257  -0.902  40.013  0.00  0.00    +0.000 OA
ATOM      2  O   UNL     1      28.934  -2.397  39.404  0.00  0.00    +0.000 OA
ATOM      3  N   UNL     1      29.826  -1.037  37.787  0.00  0.00    +0.000 N 
ATOM      4  N   UNL     1      31.086  -1.641  39.688  0.00  0.00    +0.000 N 
ATOM      5  C   UNL     1      30.854  -0.314  37.323  0.00  0.00    +0.000 A 
ATOM      6  C   UNL     1      32.131  -0.231  38.094  0.00  0.00    +0.000 A 
ATOM      7  C   UNL     1      32.238  -0.936  39.340  0.00  0.00    +0.000 A 
ATOM      8  C   UNL     1      29.879  -1.738  38.986  0.00  0.00    +0.000 A 
ATOM      9  H   UNL     1      28.966  -1.088  37.257  0.00  0.00    +0.000 HD
ATOM     10  H   UNL     1      31.128  -2.148  40.558  0.00  0.00    +0.000 HD
ENDROOT
TORSDOF 0
ENDMDL
MODEL 5
REMARK VINA RESULT:      -4.7      2.347      2.838
REMARK  Name = 649_Dihydrouracil.pdb
REMARK  0 active torsions:
REMARK  status: ('A' for Active; 'I' for Inactive)
REMARK                            x       y       z     vdW  Elec       q    Type
REMARK                         _______ _______ _______ _____ _____    ______ ____
ROOT
ATOM      1  O   UNL     1      36.050   0.588  38.285  0.00  0.00    +0.000 OA
ATOM      2  O   UNL     1      39.657   3.130  36.935  0.00  0.00    +0.000 OA
ATOM      3  N   UNL     1      39.768   0.864  36.599  0.00  0.00    +0.000 N 
ATOM      4  N   UNL     1      37.871   1.846  37.600  0.00  0.00    +0.000 N 
ATOM      5  C   UNL     1      39.209  -0.349  36.705  0.00  0.00    +0.000 A 
ATOM      6  C   UNL     1      37.853  -0.508  37.312  0.00  0.00    +0.000 A 
ATOM      7  C   UNL     1      37.160   0.659  37.779  0.00  0.00    +0.000 A 
ATOM      8  C   UNL     1      39.139   2.024  37.036  0.00  0.00    +0.000 A 
ATOM      9  H   UNL     1      40.687   0.961  36.186  0.00  0.00    +0.000 HD
ATOM     10  H   UNL     1      37.412   2.684  37.918  0.00  0.00    +0.000 HD
ENDROOT
TORSDOF 0
ENDMDL
MODEL 6
REMARK VINA RESULT:      -4.2     17.518     18.489
REMARK  Name = 649_Dihydrouracil.pdb
REMARK  0 active torsions:
REMARK  status: ('A' for Active; 'I' for Inactive)
REMARK                            x       y       z     vdW  Elec       q    Type
REMARK                         _______ _______ _______ _____ _____    ______ ____
ROOT
ATOM      1  O   UNL     1      46.290   1.130  21.694  0.00  0.00    +0.000 OA
ATOM      2  O   UNL     1      45.909   5.695  21.139  0.00  0.00    +0.000 OA
ATOM      3  N   UNL     1      47.548   4.613  19.955  0.00  0.00    +0.000 N 
ATOM      4  N   UNL     1      46.116   3.422  21.401  0.00  0.00    +0.000 N 
ATOM      5  C   UNL     1      48.185   3.479  19.633  0.00  0.00    +0.000 A 
ATOM      6  C   UNL     1      47.766   2.178  20.238  0.00  0.00    +0.000 A 
ATOM      7  C   UNL     1      46.673   2.164  21.169  0.00  0.00    +0.000 A 
ATOM      8  C   UNL     1      46.486   4.653  20.850  0.00  0.00    +0.000 A 
ATOM      9  H   UNL     1      47.839   5.489  19.540  0.00  0.00    +0.000 HD
ATOM     10  H   UNL     1      45.346   3.446  22.051  0.00  0.00    +0.000 HD
ENDROOT
TORSDOF 0
ENDMDL
MODEL 7
REMARK VINA RESULT:      -4.0     24.853     25.819
REMARK  Name = 649_Dihydrouracil.pdb
REMARK  0 active torsions:
REMARK  status: ('A' for Active; 'I' for Inactive)
REMARK                            x       y       z     vdW  Elec       q    Type
REMARK                         _______ _______ _______ _____ _____    ______ ____
ROOT
ATOM      1  O   UNL     1      47.196 -20.109  21.185  0.00  0.00    +0.000 OA
ATOM      2  O   UNL     1      46.349 -19.902  25.716  0.00  0.00    +0.000 OA
ATOM      3  N   UNL     1      48.123 -21.178  25.023  0.00  0.00    +0.000 N 
ATOM      4  N   UNL     1      46.788 -20.018  23.463  0.00  0.00    +0.000 N 
ATOM      5  C   UNL     1      48.884 -21.659  24.031  0.00  0.00    +0.000 A 
ATOM      6  C   UNL     1      48.591 -21.300  22.610  0.00  0.00    +0.000 A 
ATOM      7  C   UNL     1      47.482 -20.434  22.327  0.00  0.00    +0.000 A 
ATOM      8  C   UNL     1      47.040 -20.337  24.802  0.00  0.00    +0.000 A 
ATOM      9  H   UNL     1      48.331 -21.427  25.982  0.00  0.00    +0.000 HD
ATOM     10  H   UNL     1      46.003 -19.409  23.298  0.00  0.00    +0.000 HD
ENDROOT
TORSDOF 0
ENDMDL
MODEL 8
REMARK VINA RESULT:      -3.9     18.594     19.548
REMARK  Name = 649_Dihydrouracil.pdb
REMARK  0 active torsions:
REMARK  status: ('A' for Active; 'I' for Inactive)
REMARK                            x       y       z     vdW  Elec       q    Type
REMARK                         _______ _______ _______ _____ _____    ______ ____
ROOT
ATOM      1  O   UNL     1      38.510   4.946  17.765  0.00  0.00    +0.000 OA
ATOM      2  O   UNL     1      34.612   2.581  17.051  0.00  0.00    +0.000 OA
ATOM      3  N   UNL     1      35.581   2.433  19.124  0.00  0.00    +0.000 N 
ATOM      4  N   UNL     1      36.554   3.751  17.428  0.00  0.00    +0.000 N 
ATOM      5  C   UNL     1      36.565   2.772  19.967  0.00  0.00    +0.000 A 
ATOM      6  C   UNL     1      37.660   3.687  19.525  0.00  0.00    +0.000 A 
ATOM      7  C   UNL     1      37.640   4.195  18.182  0.00  0.00    +0.000 A 
ATOM      8  C   UNL     1      35.516   2.897  17.816  0.00  0.00    +0.000 A 
ATOM      9  H   UNL     1      34.843   1.813  19.435  0.00  0.00    +0.000 HD
ATOM     10  H   UNL     1      36.511   4.090  16.479  0.00  0.00    +0.000 HD
ENDROOT
TORSDOF 0
ENDMDL
MODEL 9
REMARK VINA RESULT:      -3.9     17.641     18.194
REMARK  Name = 649_Dihydrouracil.pdb
REMARK  0 active torsions:
REMARK  status: ('A' for Active; 'I' for Inactive)
REMARK                            x       y       z     vdW  Elec       q    Type
REMARK                         _______ _______ _______ _____ _____    ______ ____
ROOT
ATOM      1  O   UNL     1      46.111   4.379  20.170  0.00  0.00    +0.000 OA
ATOM      2  O   UNL     1      47.466   6.950  23.755  0.00  0.00    +0.000 OA
ATOM      3  N   UNL     1      45.756   7.754  22.456  0.00  0.00    +0.000 N 
ATOM      4  N   UNL     1      46.776   5.685  21.965  0.00  0.00    +0.000 N 
ATOM      5  C   UNL     1      44.934   7.610  21.408  0.00  0.00    +0.000 A 
ATOM      6  C   UNL     1      45.019   6.397  20.540  0.00  0.00    +0.000 A 
ATOM      7  C   UNL     1      45.996   5.390  20.846  0.00  0.00    +0.000 A 
ATOM      8  C   UNL     1      46.718   6.810  22.795  0.00  0.00    +0.000 A 
ATOM      9  H   UNL     1      45.690   8.579  23.038  0.00  0.00    +0.000 HD
ATOM     10  H   UNL     1      47.472   4.998  22.207  0.00  0.00    +0.000 HD
ENDROOT
TORSDOF 0
ENDMDL
