MODEL 1
REMARK VINA RESULT:     -10.3      0.000      0.000
REMARK  Name = 6509753_ManzamineA.pdbqt.pdb
REMARK  2 active torsions:
REMARK  status: ('A' for Active; 'I' for Inactive)
REMARK    1  A    between atoms: C_7  and  O_42
REMARK    2  A    between atoms: C_11  and  C_30
REMARK                            x       y       z     vdW  Elec       q    Type
REMARK                         _______ _______ _______ _____ _____    ______ ____
ROOT
ATOM      1  N   UNL     1      18.019  13.081  22.747  0.00  0.00    +0.000 N 
ATOM      2  N   UNL     1      16.324  13.391  18.070  0.00  0.00    +0.000 N 
ATOM      3  C   UNL     1      17.517  12.230  20.416  0.00  0.00    +0.000 C 
ATOM      4  C   UNL     1      18.578  12.832  21.394  0.00  0.00    +0.000 C 
ATOM      5  C   UNL     1      17.867  10.905  19.621  0.00  0.00    +0.000 C 
ATOM      6  C   UNL     1      16.491  11.976  21.423  0.00  0.00    +0.000 C 
ATOM      7  C   UNL     1      20.029  12.352  21.300  0.00  0.00    +0.000 C 
ATOM      8  C   UNL     1      16.992  13.209  19.401  0.00  0.00    +0.000 C 
ATOM      9  C   UNL     1      16.620  12.604  22.676  0.00  0.00    +0.000 C 
ATOM     10  C   UNL     1      17.227  10.832  18.332  0.00  0.00    +0.000 C 
ATOM     11  C   UNL     1      19.209  10.363  19.782  0.00  0.00    +0.000 C 
ATOM     12  C   UNL     1      19.950  11.146  20.502  0.00  0.00    +0.000 C 
ATOM     13  C   UNL     1      16.556  12.010  17.619  0.00  0.00    +0.000 C 
ATOM     14  C   UNL     1      18.127  14.489  23.137  0.00  0.00    +0.000 C 
ATOM     15  C   UNL     1      20.877  13.398  20.735  0.00  0.00    +0.000 C 
ATOM     16  C   UNL     1      15.571  13.258  23.388  0.00  0.00    +0.000 C 
ATOM     17  C   UNL     1      17.155  14.278  17.273  0.00  0.00    +0.000 C 
ATOM     18  C   UNL     1      17.708  15.843  23.740  0.00  0.00    +0.000 C 
ATOM     19  C   UNL     1      21.659  14.484  19.993  0.00  0.00    +0.000 C 
ATOM     20  C   UNL     1      15.011  14.152  23.965  0.00  0.00    +0.000 C 
ATOM     21  C   UNL     1      16.431  16.396  24.369  0.00  0.00    +0.000 C 
ATOM     22  C   UNL     1      18.139  15.229  16.586  0.00  0.00    +0.000 C 
ATOM     23  C   UNL     1      15.148  15.582  24.490  0.00  0.00    +0.000 C 
ATOM     24  C   UNL     1      22.034  15.526  18.943  0.00  0.00    +0.000 C 
ATOM     25  C   UNL     1      19.400  16.053  16.345  0.00  0.00    +0.000 C 
ATOM     26  C   UNL     1      20.788  16.444  16.824  0.00  0.00    +0.000 C 
ATOM     27  C   UNL     1      21.761  16.135  17.949  0.00  0.00    +0.000 C 
ENDROOT
BRANCH  11  30
ATOM     28  N   UNL     1      20.649   9.391  18.089  0.00  0.00    +0.000 NA
ATOM     29  N   UNL     1      18.523   7.450  20.414  0.00  0.00    +0.000 N 
ATOM     30  C   UNL     1      19.762   9.206  19.092  0.00  0.00    +0.000 A 
ATOM     31  C   UNL     1      19.381   7.913  19.442  0.00  0.00    +0.000 A 
ATOM     32  C   UNL     1      19.890   6.794  18.781  0.00  0.00    +0.000 A 
ATOM     33  C   UNL     1      21.138   8.303  17.454  0.00  0.00    +0.000 A 
ATOM     34  C   UNL     1      20.809   6.985  17.737  0.00  0.00    +0.000 A 
ATOM     35  C   UNL     1      19.304   5.637  19.380  0.00  0.00    +0.000 A 
ATOM     36  C   UNL     1      18.457   6.078  20.395  0.00  0.00    +0.000 A 
ATOM     37  C   UNL     1      19.422   4.254  19.150  0.00  0.00    +0.000 A 
ATOM     38  C   UNL     1      17.716   5.207  21.200  0.00  0.00    +0.000 A 
ATOM     39  C   UNL     1      18.689   3.367  19.944  0.00  0.00    +0.000 A 
ATOM     40  C   UNL     1      17.853   3.840  20.949  0.00  0.00    +0.000 A 
ATOM     41  H   UNL     1      18.017   8.036  21.064  0.00  0.00    +0.000 HD
ENDBRANCH  11  30
BRANCH   7  42
ATOM     42  O   UNL     1      20.527  11.993  22.581  0.00  0.00    +0.000 OA
ATOM     43  H   UNL     1      19.751  11.742  23.110  0.00  0.00    +0.000 HD
ENDBRANCH   7  42
TORSDOF 2
ENDMDL
MODEL 2
REMARK VINA RESULT:      -9.5      2.075      8.113
REMARK  Name = 6509753_ManzamineA.pdbqt.pdb
REMARK  2 active torsions:
REMARK  status: ('A' for Active; 'I' for Inactive)
REMARK    1  A    between atoms: C_7  and  O_42
REMARK    2  A    between atoms: C_11  and  C_30
REMARK                            x       y       z     vdW  Elec       q    Type
REMARK                         _______ _______ _______ _____ _____    ______ ____
ROOT
ATOM      1  N   UNL     1      19.736   8.731  20.628  0.00  0.00    +0.000 N 
ATOM      2  N   UNL     1      16.829  11.044  17.306  0.00  0.00    +0.000 N 
ATOM      3  C   UNL     1      19.095  10.572  19.013  0.00  0.00    +0.000 C 
ATOM      4  C   UNL     1      19.137  10.084  20.498  0.00  0.00    +0.000 C 
ATOM      5  C   UNL     1      19.702  11.990  18.652  0.00  0.00    +0.000 C 
ATOM      6  C   UNL     1      19.918   9.499  18.464  0.00  0.00    +0.000 C 
ATOM      7  C   UNL     1      19.427  11.101  21.605  0.00  0.00    +0.000 C 
ATOM      8  C   UNL     1      17.726  10.524  18.390  0.00  0.00    +0.000 C 
ATOM      9  C   UNL     1      20.128   8.352  19.252  0.00  0.00    +0.000 C 
ATOM     10  C   UNL     1      19.035  12.626  17.544  0.00  0.00    +0.000 C 
ATOM     11  C   UNL     1      20.193  12.808  19.752  0.00  0.00    +0.000 C 
ATOM     12  C   UNL     1      19.949  12.252  20.897  0.00  0.00    +0.000 C 
ATOM     13  C   UNL     1      17.684  12.191  16.968  0.00  0.00    +0.000 C 
ATOM     14  C   UNL     1      18.812   7.776  21.245  0.00  0.00    +0.000 C 
ATOM     15  C   UNL     1      18.221  11.365  22.384  0.00  0.00    +0.000 C 
ATOM     16  C   UNL     1      20.041   7.003  18.795  0.00  0.00    +0.000 C 
ATOM     17  C   UNL     1      15.618  11.546  17.934  0.00  0.00    +0.000 C 
ATOM     18  C   UNL     1      18.072   6.445  21.475  0.00  0.00    +0.000 C 
ATOM     19  C   UNL     1      16.881  11.701  23.042  0.00  0.00    +0.000 C 
ATOM     20  C   UNL     1      19.666   5.862  18.773  0.00  0.00    +0.000 C 
ATOM     21  C   UNL     1      18.026   5.097  20.758  0.00  0.00    +0.000 C 
ATOM     22  C   UNL     1      14.414  12.011  18.757  0.00  0.00    +0.000 C 
ATOM     23  C   UNL     1      18.800   4.815  19.476  0.00  0.00    +0.000 C 
ATOM     24  C   UNL     1      15.412  12.080  23.208  0.00  0.00    +0.000 C 
ATOM     25  C   UNL     1      13.562  12.362  19.973  0.00  0.00    +0.000 C 
ATOM     26  C   UNL     1      13.476  12.492  21.485  0.00  0.00    +0.000 C 
ATOM     27  C   UNL     1      14.349  12.332  22.718  0.00  0.00    +0.000 C 
ENDROOT
BRANCH  11  30
ATOM     28  N   UNL     1      21.762  14.413  18.833  0.00  0.00    +0.000 NA
ATOM     29  N   UNL     1      19.120  15.222  21.293  0.00  0.00    +0.000 N 
ATOM     30  C   UNL     1      20.719  14.162  19.655  0.00  0.00    +0.000 A 
ATOM     31  C   UNL     1      20.172  15.200  20.406  0.00  0.00    +0.000 A 
ATOM     32  C   UNL     1      20.675  16.500  20.335  0.00  0.00    +0.000 A 
ATOM     33  C   UNL     1      22.243  15.674  18.769  0.00  0.00    +0.000 A 
ATOM     34  C   UNL     1      21.760  16.761  19.484  0.00  0.00    +0.000 A 
ATOM     35  C   UNL     1      19.896  17.310  21.218  0.00  0.00    +0.000 A 
ATOM     36  C   UNL     1      18.935  16.486  21.800  0.00  0.00    +0.000 A 
ATOM     37  C   UNL     1      19.923  18.672  21.570  0.00  0.00    +0.000 A 
ATOM     38  C   UNL     1      17.991  16.951  22.721  0.00  0.00    +0.000 A 
ATOM     39  C   UNL     1      18.988  19.156  22.489  0.00  0.00    +0.000 A 
ATOM     40  C   UNL     1      18.041  18.307  23.051  0.00  0.00    +0.000 A 
ATOM     41  H   UNL     1      18.551  14.422  21.534  0.00  0.00    +0.000 HD
ENDBRANCH  11  30
BRANCH   7  42
ATOM     42  O   UNL     1      20.445  10.626  22.474  0.00  0.00    +0.000 OA
ATOM     43  H   UNL     1      20.852  11.417  22.867  0.00  0.00    +0.000 HD
ENDBRANCH   7  42
TORSDOF 2
ENDMDL
MODEL 3
REMARK VINA RESULT:      -8.4      2.535      8.914
REMARK  Name = 6509753_ManzamineA.pdbqt.pdb
REMARK  2 active torsions:
REMARK  status: ('A' for Active; 'I' for Inactive)
REMARK    1  A    between atoms: C_7  and  O_42
REMARK    2  A    between atoms: C_11  and  C_30
REMARK                            x       y       z     vdW  Elec       q    Type
REMARK                         _______ _______ _______ _____ _____    ______ ____
ROOT
ATOM      1  N   UNL     1      19.862  10.323  20.602  0.00  0.00    +0.000 N 
ATOM      2  N   UNL     1      16.248  12.446  17.904  0.00  0.00    +0.000 N 
ATOM      3  C   UNL     1      18.554  12.252  19.612  0.00  0.00    +0.000 C 
ATOM      4  C   UNL     1      18.800  11.331  20.851  0.00  0.00    +0.000 C 
ATOM      5  C   UNL     1      18.584  13.824  19.804  0.00  0.00    +0.000 C 
ATOM      6  C   UNL     1      19.709  11.801  18.841  0.00  0.00    +0.000 C 
ATOM      7  C   UNL     1      18.708  11.935  22.255  0.00  0.00    +0.000 C 
ATOM      8  C   UNL     1      17.292  11.939  18.855  0.00  0.00    +0.000 C 
ATOM      9  C   UNL     1      20.344  10.607  19.232  0.00  0.00    +0.000 C 
ATOM     10  C   UNL     1      17.710  14.522  18.895  0.00  0.00    +0.000 C 
ATOM     11  C   UNL     1      18.753  14.330  21.159  0.00  0.00    +0.000 C 
ATOM     12  C   UNL     1      18.752  13.365  22.025  0.00  0.00    +0.000 C 
ATOM     13  C   UNL     1      16.609  13.863  18.059  0.00  0.00    +0.000 C 
ATOM     14  C   UNL     1      19.370   8.952  20.764  0.00  0.00    +0.000 C 
ATOM     15  C   UNL     1      17.503  11.468  22.934  0.00  0.00    +0.000 C 
ATOM     16  C   UNL     1      20.758   9.562  18.354  0.00  0.00    +0.000 C 
ATOM     17  C   UNL     1      14.948  12.236  18.519  0.00  0.00    +0.000 C 
ATOM     18  C   UNL     1      19.183   7.454  20.462  0.00  0.00    +0.000 C 
ATOM     19  C   UNL     1      16.146  11.058  23.509  0.00  0.00    +0.000 C 
ATOM     20  C   UNL     1      20.835   8.444  17.918  0.00  0.00    +0.000 C 
ATOM     21  C   UNL     1      19.631   6.513  19.345  0.00  0.00    +0.000 C 
ATOM     22  C   UNL     1      13.671  11.929  19.306  0.00  0.00    +0.000 C 
ATOM     23  C   UNL     1      20.434   6.985  18.138  0.00  0.00    +0.000 C 
ATOM     24  C   UNL     1      14.644  10.809  23.620  0.00  0.00    +0.000 C 
ATOM     25  C   UNL     1      12.770  11.512  20.464  0.00  0.00    +0.000 C 
ATOM     26  C   UNL     1      12.666  11.074  21.916  0.00  0.00    +0.000 C 
ATOM     27  C   UNL     1      13.556  10.819  23.121  0.00  0.00    +0.000 C 
ENDROOT
BRANCH  11  30
ATOM     28  N   UNL     1      17.773  16.159  22.415  0.00  0.00    +0.000 NA
ATOM     29  N   UNL     1      20.758  16.453  20.248  0.00  0.00    +0.000 N 
ATOM     30  C   UNL     1      18.735  15.727  21.569  0.00  0.00    +0.000 A 
ATOM     31  C   UNL     1      19.684  16.627  21.092  0.00  0.00    +0.000 A 
ATOM     32  C   UNL     1      19.671  17.972  21.463  0.00  0.00    +0.000 A 
ATOM     33  C   UNL     1      17.767  17.462  22.771  0.00  0.00    +0.000 A 
ATOM     34  C   UNL     1      18.671  18.423  22.339  0.00  0.00    +0.000 A 
ATOM     35  C   UNL     1      20.768  18.610  20.807  0.00  0.00    +0.000 A 
ATOM     36  C   UNL     1      21.427  17.638  20.057  0.00  0.00    +0.000 A 
ATOM     37  C   UNL     1      21.261  19.928  20.788  0.00  0.00    +0.000 A 
ATOM     38  C   UNL     1      22.560  17.911  19.284  0.00  0.00    +0.000 A 
ATOM     39  C   UNL     1      22.391  20.221  20.020  0.00  0.00    +0.000 A 
ATOM     40  C   UNL     1      23.026  19.227  19.284  0.00  0.00    +0.000 A 
ATOM     41  H   UNL     1      21.027  15.572  19.831  0.00  0.00    +0.000 HD
ENDBRANCH  11  30
BRANCH   7  42
ATOM     42  O   UNL     1      19.844  11.585  23.032  0.00  0.00    +0.000 OA
ATOM     43  H   UNL     1      20.377  12.395  23.109  0.00  0.00    +0.000 HD
ENDBRANCH   7  42
TORSDOF 2
ENDMDL
MODEL 4
REMARK VINA RESULT:      -8.3      2.781      6.314
REMARK  Name = 6509753_ManzamineA.pdbqt.pdb
REMARK  2 active torsions:
REMARK  status: ('A' for Active; 'I' for Inactive)
REMARK    1  A    between atoms: C_7  and  O_42
REMARK    2  A    between atoms: C_11  and  C_30
REMARK                            x       y       z     vdW  Elec       q    Type
REMARK                         _______ _______ _______ _____ _____    ______ ____
ROOT
ATOM      1  N   UNL     1      20.510  16.750  15.644  0.00  0.00    +0.000 N 
ATOM      2  N   UNL     1      19.952  15.506  20.438  0.00  0.00    +0.000 N 
ATOM      3  C   UNL     1      20.818  15.309  17.703  0.00  0.00    +0.000 C 
ATOM      4  C   UNL     1      20.016  15.561  16.385  0.00  0.00    +0.000 C 
ATOM      5  C   UNL     1      21.432  13.872  17.968  0.00  0.00    +0.000 C 
ATOM      6  C   UNL     1      21.873  16.284  17.443  0.00  0.00    +0.000 C 
ATOM      7  C   UNL     1      19.540  14.359  15.565  0.00  0.00    +0.000 C 
ATOM      8  C   UNL     1      20.078  15.693  18.955  0.00  0.00    +0.000 C 
ATOM      9  C   UNL     1      21.655  17.248  16.440  0.00  0.00    +0.000 C 
ATOM     10  C   UNL     1      21.500  13.535  19.367  0.00  0.00    +0.000 C 
ATOM     11  C   UNL     1      21.135  12.829  16.996  0.00  0.00    +0.000 C 
ATOM     12  C   UNL     1      20.304  13.248  16.094  0.00  0.00    +0.000 C 
ATOM     13  C   UNL     1      20.770  14.285  20.486  0.00  0.00    +0.000 C 
ATOM     14  C   UNL     1      19.462  17.756  15.456  0.00  0.00    +0.000 C 
ATOM     15  C   UNL     1      18.093  14.206  15.676  0.00  0.00    +0.000 C 
ATOM     16  C   UNL     1      21.936  18.642  16.553  0.00  0.00    +0.000 C 
ATOM     17  C   UNL     1      18.574  15.145  20.725  0.00  0.00    +0.000 C 
ATOM     18  C   UNL     1      18.812  19.151  15.390  0.00  0.00    +0.000 C 
ATOM     19  C   UNL     1      16.603  14.025  15.974  0.00  0.00    +0.000 C 
ATOM     20  C   UNL     1      21.717  19.823  16.526  0.00  0.00    +0.000 C 
ATOM     21  C   UNL     1      19.278  20.575  15.687  0.00  0.00    +0.000 C 
ATOM     22  C   UNL     1      17.089  14.790  20.845  0.00  0.00    +0.000 C 
ATOM     23  C   UNL     1      20.672  20.896  16.216  0.00  0.00    +0.000 C 
ATOM     24  C   UNL     1      15.293  13.897  16.747  0.00  0.00    +0.000 C 
ATOM     25  C   UNL     1      15.668  14.426  20.427  0.00  0.00    +0.000 C 
ATOM     26  C   UNL     1      14.707  14.095  19.297  0.00  0.00    +0.000 C 
ATOM     27  C   UNL     1      14.703  13.915  17.789  0.00  0.00    +0.000 C 
ENDROOT
BRANCH  11  30
ATOM     28  N   UNL     1      22.647  11.016  16.439  0.00  0.00    +0.000 NA
ATOM     29  N   UNL     1      19.626  10.667  18.546  0.00  0.00    +0.000 N 
ATOM     30  C   UNL     1      21.533  11.431  17.081  0.00  0.00    +0.000 A 
ATOM     31  C   UNL     1      20.774  10.512  17.803  0.00  0.00    +0.000 A 
ATOM     32  C   UNL     1      21.133   9.166  17.882  0.00  0.00    +0.000 A 
ATOM     33  C   UNL     1      22.989   9.711  16.520  0.00  0.00    +0.000 A 
ATOM     34  C   UNL     1      22.289   8.733  17.213  0.00  0.00    +0.000 A 
ATOM     35  C   UNL     1      20.157   8.507  18.691  0.00  0.00    +0.000 A 
ATOM     36  C   UNL     1      19.230   9.468  19.090  0.00  0.00    +0.000 A 
ATOM     37  C   UNL     1      19.982   7.179  19.121  0.00  0.00    +0.000 A 
ATOM     38  C   UNL     1      18.131   9.174  19.903  0.00  0.00    +0.000 A 
ATOM     39  C   UNL     1      18.888   6.865  19.933  0.00  0.00    +0.000 A 
ATOM     40  C   UNL     1      17.983   7.848  20.314  0.00  0.00    +0.000 A 
ATOM     41  H   UNL     1      19.141  11.543  18.684  0.00  0.00    +0.000 HD
ENDBRANCH  11  30
BRANCH   7  42
ATOM     42  O   UNL     1      19.887  14.511  14.196  0.00  0.00    +0.000 OA
ATOM     43  H   UNL     1      20.297  13.671  13.928  0.00  0.00    +0.000 HD
ENDBRANCH   7  42
TORSDOF 2
ENDMDL
MODEL 5
REMARK VINA RESULT:      -8.2     24.668     29.286
REMARK  Name = 6509753_ManzamineA.pdbqt.pdb
REMARK  2 active torsions:
REMARK  status: ('A' for Active; 'I' for Inactive)
REMARK    1  A    between atoms: C_7  and  O_42
REMARK    2  A    between atoms: C_11  and  C_30
REMARK                            x       y       z     vdW  Elec       q    Type
REMARK                         _______ _______ _______ _____ _____    ______ ____
ROOT
ATOM      1  N   UNL     1      44.523  -1.185   6.871  0.00  0.00    +0.000 N 
ATOM      2  N   UNL     1      44.601  -1.121  11.854  0.00  0.00    +0.000 N 
ATOM      3  C   UNL     1      43.537  -1.378   9.195  0.00  0.00    +0.000 C 
ATOM      4  C   UNL     1      43.769  -0.478   7.938  0.00  0.00    +0.000 C 
ATOM      5  C   UNL     1      42.067  -1.539   9.765  0.00  0.00    +0.000 C 
ATOM      6  C   UNL     1      43.999  -2.625   8.591  0.00  0.00    +0.000 C 
ATOM      7  C   UNL     1      42.667   0.494   7.508  0.00  0.00    +0.000 C 
ATOM      8  C   UNL     1      44.413  -1.033  10.369  0.00  0.00    +0.000 C 
ATOM      9  C   UNL     1      44.742  -2.550   7.398  0.00  0.00    +0.000 C 
ATOM     10  C   UNL     1      42.032  -1.744  11.191  0.00  0.00    +0.000 C 
ATOM     11  C   UNL     1      41.014  -0.759   9.130  0.00  0.00    +0.000 C 
ATOM     12  C   UNL     1      41.497   0.042   8.233  0.00  0.00    +0.000 C 
ATOM     13  C   UNL     1      43.210  -1.502  12.140  0.00  0.00    +0.000 C 
ATOM     14  C   UNL     1      45.769  -0.495   6.527  0.00  0.00    +0.000 C 
ATOM     15  C   UNL     1      43.061   1.870   7.791  0.00  0.00    +0.000 C 
ATOM     16  C   UNL     1      45.938  -3.276   7.118  0.00  0.00    +0.000 C 
ATOM     17  C   UNL     1      44.818   0.227  12.354  0.00  0.00    +0.000 C 
ATOM     18  C   UNL     1      47.255  -0.322   6.162  0.00  0.00    +0.000 C 
ATOM     19  C   UNL     1      43.483   3.263   8.265  0.00  0.00    +0.000 C 
ATOM     20  C   UNL     1      47.086  -3.443   6.806  0.00  0.00    +0.000 C 
ATOM     21  C   UNL     1      48.452  -1.263   6.034  0.00  0.00    +0.000 C 
ATOM     22  C   UNL     1      45.043   1.701  12.701  0.00  0.00    +0.000 C 
ATOM     23  C   UNL     1      48.366  -2.756   6.327  0.00  0.00    +0.000 C 
ATOM     24  C   UNL     1      43.992   4.386   9.165  0.00  0.00    +0.000 C 
ATOM     25  C   UNL     1      45.123   3.215  12.529  0.00  0.00    +0.000 C 
ATOM     26  C   UNL     1      44.919   4.416  11.619  0.00  0.00    +0.000 C 
ATOM     27  C   UNL     1      44.437   4.745  10.217  0.00  0.00    +0.000 C 
ENDROOT
BRANCH  11  30
ATOM     28  N   UNL     1      38.713  -1.500   8.933  0.00  0.00    +0.000 NA
ATOM     29  N   UNL     1      39.899   1.079  11.306  0.00  0.00    +0.000 N 
ATOM     30  C   UNL     1      39.618  -0.699   9.538  0.00  0.00    +0.000 A 
ATOM     31  C   UNL     1      39.198   0.181  10.534  0.00  0.00    +0.000 A 
ATOM     32  C   UNL     1      37.861   0.261  10.925  0.00  0.00    +0.000 A 
ATOM     33  C   UNL     1      37.420  -1.417   9.317  0.00  0.00    +0.000 A 
ATOM     34  C   UNL     1      36.920  -0.568  10.294  0.00  0.00    +0.000 A 
ATOM     35  C   UNL     1      37.773   1.247  11.956  0.00  0.00    +0.000 A 
ATOM     36  C   UNL     1      39.059   1.739  12.172  0.00  0.00    +0.000 A 
ATOM     37  C   UNL     1      36.714   1.761  12.726  0.00  0.00    +0.000 A 
ATOM     38  C   UNL     1      39.348   2.722  13.122  0.00  0.00    +0.000 A 
ATOM     39  C   UNL     1      36.982   2.746  13.681  0.00  0.00    +0.000 A 
ATOM     40  C   UNL     1      38.277   3.214  13.872  0.00  0.00    +0.000 A 
ATOM     41  H   UNL     1      40.897   1.229  11.255  0.00  0.00    +0.000 HD
ENDBRANCH  11  30
BRANCH   7  42
ATOM     42  O   UNL     1      42.393   0.366   6.120  0.00  0.00    +0.000 OA
ATOM     43  H   UNL     1      42.228  -0.580   5.965  0.00  0.00    +0.000 HD
ENDBRANCH   7  42
TORSDOF 2
ENDMDL
MODEL 6
REMARK VINA RESULT:      -8.0     14.576     18.046
REMARK  Name = 6509753_ManzamineA.pdbqt.pdb
REMARK  2 active torsions:
REMARK  status: ('A' for Active; 'I' for Inactive)
REMARK    1  A    between atoms: C_7  and  O_42
REMARK    2  A    between atoms: C_11  and  C_30
REMARK                            x       y       z     vdW  Elec       q    Type
REMARK                         _______ _______ _______ _____ _____    ______ ____
ROOT
ATOM      1  N   UNL     1      19.805  -3.116  11.916  0.00  0.00    +0.000 N 
ATOM      2  N   UNL     1      17.373  -3.394   7.573  0.00  0.00    +0.000 N 
ATOM      3  C   UNL     1      19.555  -2.972   9.400  0.00  0.00    +0.000 C 
ATOM      4  C   UNL     1      19.577  -2.207  10.763  0.00  0.00    +0.000 C 
ATOM      5  C   UNL     1      20.486  -2.471   8.221  0.00  0.00    +0.000 C 
ATOM      6  C   UNL     1      20.022  -4.253   9.923  0.00  0.00    +0.000 C 
ATOM      7  C   UNL     1      20.206  -0.813  10.821  0.00  0.00    +0.000 C 
ATOM      8  C   UNL     1      18.179  -3.141   8.813  0.00  0.00    +0.000 C 
ATOM      9  C   UNL     1      19.979  -4.458  11.315  0.00  0.00    +0.000 C 
ATOM     10  C   UNL     1      19.931  -2.721   6.915  0.00  0.00    +0.000 C 
ATOM     11  C   UNL     1      21.257  -1.256   8.447  0.00  0.00    +0.000 C 
ATOM     12  C   UNL     1      20.960  -0.716   9.588  0.00  0.00    +0.000 C 
ATOM     13  C   UNL     1      18.474  -3.107   6.642  0.00  0.00    +0.000 C 
ATOM     14  C   UNL     1      18.710  -3.060  12.887  0.00  0.00    +0.000 C 
ATOM     15  C   UNL     1      19.175   0.207  10.982  0.00  0.00    +0.000 C 
ATOM     16  C   UNL     1      19.505  -5.635  11.966  0.00  0.00    +0.000 C 
ATOM     17  C   UNL     1      16.389  -2.331   7.460  0.00  0.00    +0.000 C 
ATOM     18  C   UNL     1      17.664  -3.572  13.895  0.00  0.00    +0.000 C 
ATOM     19  C   UNL     1      18.024   1.216  10.989  0.00  0.00    +0.000 C 
ATOM     20  C   UNL     1      18.841  -6.295  12.720  0.00  0.00    +0.000 C 
ATOM     21  C   UNL     1      17.210  -4.949  14.376  0.00  0.00    +0.000 C 
ATOM     22  C   UNL     1      15.415  -1.151   7.505  0.00  0.00    +0.000 C 
ATOM     23  C   UNL     1      17.785  -6.248  13.825  0.00  0.00    +0.000 C 
ATOM     24  C   UNL     1      16.724   1.922  10.613  0.00  0.00    +0.000 C 
ATOM     25  C   UNL     1      14.779   0.163   7.951  0.00  0.00    +0.000 C 
ATOM     26  C   UNL     1      14.844   1.374   8.867  0.00  0.00    +0.000 C 
ATOM     27  C   UNL     1      15.732   1.971   9.945  0.00  0.00    +0.000 C 
ENDROOT
BRANCH  11  30
ATOM     28  N   UNL     1      23.355  -1.062   7.246  0.00  0.00    +0.000 NA
ATOM     29  N   UNL     1      20.479   1.231   6.845  0.00  0.00    +0.000 N 
ATOM     30  C   UNL     1      22.113  -0.583   7.481  0.00  0.00    +0.000 A 
ATOM     31  C   UNL     1      21.677   0.554   6.805  0.00  0.00    +0.000 A 
ATOM     32  C   UNL     1      22.491   1.219   5.887  0.00  0.00    +0.000 A 
ATOM     33  C   UNL     1      24.138  -0.413   6.356  0.00  0.00    +0.000 A 
ATOM     34  C   UNL     1      23.782   0.725   5.645  0.00  0.00    +0.000 A 
ATOM     35  C   UNL     1      21.748   2.329   5.379  0.00  0.00    +0.000 A 
ATOM     36  C   UNL     1      20.499   2.310   5.994  0.00  0.00    +0.000 A 
ATOM     37  C   UNL     1      22.029   3.346   4.448  0.00  0.00    +0.000 A 
ATOM     38  C   UNL     1      19.505   3.257   5.728  0.00  0.00    +0.000 A 
ATOM     39  C   UNL     1      21.049   4.302   4.169  0.00  0.00    +0.000 A 
ATOM     40  C   UNL     1      19.811   4.254   4.800  0.00  0.00    +0.000 A 
ATOM     41  H   UNL     1      19.686   0.968   7.414  0.00  0.00    +0.000 HD
ENDBRANCH  11  30
BRANCH   7  42
ATOM     42  O   UNL     1      21.125  -0.717  11.900  0.00  0.00    +0.000 OA
ATOM     43  H   UNL     1      20.592  -0.764  12.712  0.00  0.00    +0.000 HD
ENDBRANCH   7  42
TORSDOF 2
ENDMDL
MODEL 7
REMARK VINA RESULT:      -8.0     25.199     29.467
REMARK  Name = 6509753_ManzamineA.pdbqt.pdb
REMARK  2 active torsions:
REMARK  status: ('A' for Active; 'I' for Inactive)
REMARK    1  A    between atoms: C_7  and  O_42
REMARK    2  A    between atoms: C_11  and  C_30
REMARK                            x       y       z     vdW  Elec       q    Type
REMARK                         _______ _______ _______ _____ _____    ______ ____
ROOT
ATOM      1  N   UNL     1      42.149   2.117   6.691  0.00  0.00    +0.000 N 
ATOM      2  N   UNL     1      41.824   2.906  11.602  0.00  0.00    +0.000 N 
ATOM      3  C   UNL     1      42.694   1.718   9.131  0.00  0.00    +0.000 C 
ATOM      4  C   UNL     1      41.855   1.285   7.886  0.00  0.00    +0.000 C 
ATOM      5  C   UNL     1      43.529   0.623   9.915  0.00  0.00    +0.000 C 
ATOM      6  C   UNL     1      43.579   2.637   8.421  0.00  0.00    +0.000 C 
ATOM      7  C   UNL     1      41.570  -0.203   7.664  0.00  0.00    +0.000 C 
ATOM      8  C   UNL     1      41.910   2.477  10.167  0.00  0.00    +0.000 C 
ATOM      9  C   UNL     1      43.205   3.056   7.131  0.00  0.00    +0.000 C 
ATOM     10  C   UNL     1      43.658   0.909  11.322  0.00  0.00    +0.000 C 
ATOM     11  C   UNL     1      43.397  -0.759   9.478  0.00  0.00    +0.000 C 
ATOM     12  C   UNL     1      42.504  -0.875   8.545  0.00  0.00    +0.000 C 
ATOM     13  C   UNL     1      42.825   1.943  12.086  0.00  0.00    +0.000 C 
ATOM     14  C   UNL     1      40.953   2.794   6.184  0.00  0.00    +0.000 C 
ATOM     15  C   UNL     1      40.166  -0.500   7.930  0.00  0.00    +0.000 C 
ATOM     16  C   UNL     1      43.262   4.397   6.645  0.00  0.00    +0.000 C 
ATOM     17  C   UNL     1      40.522   2.504  12.109  0.00  0.00    +0.000 C 
ATOM     18  C   UNL     1      40.090   3.929   5.600  0.00  0.00    +0.000 C 
ATOM     19  C   UNL     1      38.726  -0.752   8.381  0.00  0.00    +0.000 C 
ATOM     20  C   UNL     1      42.858   5.416   6.154  0.00  0.00    +0.000 C 
ATOM     21  C   UNL     1      40.326   5.398   5.257  0.00  0.00    +0.000 C 
ATOM     22  C   UNL     1      39.113   2.023  12.467  0.00  0.00    +0.000 C 
ATOM     23  C   UNL     1      41.654   6.104   5.507  0.00  0.00    +0.000 C 
ATOM     24  C   UNL     1      37.457  -0.732   9.230  0.00  0.00    +0.000 C 
ATOM     25  C   UNL     1      37.765   1.321  12.337  0.00  0.00    +0.000 C 
ATOM     26  C   UNL     1      36.863   0.419  11.512  0.00  0.00    +0.000 C 
ATOM     27  C   UNL     1      36.878  -0.368  10.213  0.00  0.00    +0.000 C 
ENDROOT
BRANCH  11  30
ATOM     28  N   UNL     1      43.714  -2.229  11.381  0.00  0.00    +0.000 NA
ATOM     29  N   UNL     1      45.370  -2.647   8.099  0.00  0.00    +0.000 N 
ATOM     30  C   UNL     1      44.011  -1.925  10.098  0.00  0.00    +0.000 A 
ATOM     31  C   UNL     1      44.911  -2.722   9.394  0.00  0.00    +0.000 A 
ATOM     32  C   UNL     1      45.520  -3.833   9.980  0.00  0.00    +0.000 A 
ATOM     33  C   UNL     1      44.307  -3.306  11.941  0.00  0.00    +0.000 A 
ATOM     34  C   UNL     1      45.214  -4.148  11.313  0.00  0.00    +0.000 A 
ATOM     35  C   UNL     1      46.372  -4.423   8.997  0.00  0.00    +0.000 A 
ATOM     36  C   UNL     1      46.258  -3.662   7.835  0.00  0.00    +0.000 A 
ATOM     37  C   UNL     1      47.229  -5.540   8.992  0.00  0.00    +0.000 A 
ATOM     38  C   UNL     1      46.955  -3.958   6.660  0.00  0.00    +0.000 A 
ATOM     39  C   UNL     1      47.935  -5.851   7.827  0.00  0.00    +0.000 A 
ATOM     40  C   UNL     1      47.797  -5.071   6.685  0.00  0.00    +0.000 A 
ATOM     41  H   UNL     1      45.088  -1.947   7.426  0.00  0.00    +0.000 HD
ENDBRANCH  11  30
BRANCH   7  42
ATOM     42  O   UNL     1      41.881  -0.585   6.332  0.00  0.00    +0.000 OA
ATOM     43  H   UNL     1      42.806  -0.882   6.346  0.00  0.00    +0.000 HD
ENDBRANCH   7  42
TORSDOF 2
ENDMDL
MODEL 8
REMARK VINA RESULT:      -8.0     15.281     18.499
REMARK  Name = 6509753_ManzamineA.pdbqt.pdb
REMARK  2 active torsions:
REMARK  status: ('A' for Active; 'I' for Inactive)
REMARK    1  A    between atoms: C_7  and  O_42
REMARK    2  A    between atoms: C_11  and  C_30
REMARK                            x       y       z     vdW  Elec       q    Type
REMARK                         _______ _______ _______ _____ _____    ______ ____
ROOT
ATOM      1  N   UNL     1      19.444  -3.063  11.965  0.00  0.00    +0.000 N 
ATOM      2  N   UNL     1      16.882  -4.295   7.870  0.00  0.00    +0.000 N 
ATOM      3  C   UNL     1      18.950  -3.112   9.482  0.00  0.00    +0.000 C 
ATOM      4  C   UNL     1      18.835  -2.326  10.828  0.00  0.00    +0.000 C 
ATOM      5  C   UNL     1      19.564  -2.385   8.216  0.00  0.00    +0.000 C 
ATOM      6  C   UNL     1      19.852  -4.149   9.974  0.00  0.00    +0.000 C 
ATOM      7  C   UNL     1      18.976  -0.802  10.811  0.00  0.00    +0.000 C 
ATOM      8  C   UNL     1      17.662  -3.743   9.027  0.00  0.00    +0.000 C 
ATOM      9  C   UNL     1      19.996  -4.299  11.366  0.00  0.00    +0.000 C 
ATOM     10  C   UNL     1      19.014  -2.855   6.970  0.00  0.00    +0.000 C 
ATOM     11  C   UNL     1      19.911  -0.977   8.356  0.00  0.00    +0.000 C 
ATOM     12  C   UNL     1      19.551  -0.516   9.512  0.00  0.00    +0.000 C 
ATOM     13  C   UNL     1      17.746  -3.704   6.837  0.00  0.00    +0.000 C 
ATOM     14  C   UNL     1      18.476  -3.326  13.033  0.00  0.00    +0.000 C 
ATOM     15  C   UNL     1      17.684  -0.167  11.055  0.00  0.00    +0.000 C 
ATOM     16  C   UNL     1      19.990  -5.539  12.073  0.00  0.00    +0.000 C 
ATOM     17  C   UNL     1      15.598  -3.615   7.836  0.00  0.00    +0.000 C 
ATOM     18  C   UNL     1      17.742  -4.107  14.139  0.00  0.00    +0.000 C 
ATOM     19  C   UNL     1      16.272   0.414  11.156  0.00  0.00    +0.000 C 
ATOM     20  C   UNL     1      19.644  -6.346  12.892  0.00  0.00    +0.000 C 
ATOM     21  C   UNL     1      17.806  -5.536  14.677  0.00  0.00    +0.000 C 
ATOM     22  C   UNL     1      14.299  -2.814   7.957  0.00  0.00    +0.000 C 
ATOM     23  C   UNL     1      18.726  -6.600  14.090  0.00  0.00    +0.000 C 
ATOM     24  C   UNL     1      14.786   0.643  10.895  0.00  0.00    +0.000 C 
ATOM     25  C   UNL     1      13.308  -1.761   8.445  0.00  0.00    +0.000 C 
ATOM     26  C   UNL     1      13.049  -0.558   9.336  0.00  0.00    +0.000 C 
ATOM     27  C   UNL     1      13.780   0.340  10.320  0.00  0.00    +0.000 C 
ENDROOT
BRANCH  11  30
ATOM     28  N   UNL     1      19.571   0.754   6.691  0.00  0.00    +0.000 NA
ATOM     29  N   UNL     1      22.809  -0.900   7.378  0.00  0.00    +0.000 N 
ATOM     30  C   UNL     1      20.416  -0.103   7.306  0.00  0.00    +0.000 A 
ATOM     31  C   UNL     1      21.753  -0.146   6.918  0.00  0.00    +0.000 A 
ATOM     32  C   UNL     1      22.249   0.674   5.903  0.00  0.00    +0.000 A 
ATOM     33  C   UNL     1      20.058   1.545   5.710  0.00  0.00    +0.000 A 
ATOM     34  C   UNL     1      21.371   1.562   5.261  0.00  0.00    +0.000 A 
ATOM     35  C   UNL     1      23.640   0.384   5.758  0.00  0.00    +0.000 A 
ATOM     36  C   UNL     1      23.960  -0.600   6.690  0.00  0.00    +0.000 A 
ATOM     37  C   UNL     1      24.656   0.876   4.917  0.00  0.00    +0.000 A 
ATOM     38  C   UNL     1      25.249  -1.125   6.832  0.00  0.00    +0.000 A 
ATOM     39  C   UNL     1      25.950   0.363   5.042  0.00  0.00    +0.000 A 
ATOM     40  C   UNL     1      26.236  -0.618   5.985  0.00  0.00    +0.000 A 
ATOM     41  H   UNL     1      22.752  -1.577   8.127  0.00  0.00    +0.000 HD
ENDBRANCH  11  30
BRANCH   7  42
ATOM     42  O   UNL     1      19.899  -0.368  11.799  0.00  0.00    +0.000 OA
ATOM     43  H   UNL     1      20.441   0.320  11.377  0.00  0.00    +0.000 HD
ENDBRANCH   7  42
TORSDOF 2
ENDMDL
MODEL 9
REMARK VINA RESULT:      -7.9      3.259      8.411
REMARK  Name = 6509753_ManzamineA.pdbqt.pdb
REMARK  2 active torsions:
REMARK  status: ('A' for Active; 'I' for Inactive)
REMARK    1  A    between atoms: C_7  and  O_42
REMARK    2  A    between atoms: C_11  and  C_30
REMARK                            x       y       z     vdW  Elec       q    Type
REMARK                         _______ _______ _______ _____ _____    ______ ____
ROOT
ATOM      1  N   UNL     1      17.795  11.235  19.849  0.00  0.00    +0.000 N 
ATOM      2  N   UNL     1      21.367  10.647  16.422  0.00  0.00    +0.000 N 
ATOM      3  C   UNL     1      19.937  11.813  18.629  0.00  0.00    +0.000 C 
ATOM      4  C   UNL     1      18.405  12.081  18.792  0.00  0.00    +0.000 C 
ATOM      5  C   UNL     1      20.942  13.038  18.673  0.00  0.00    +0.000 C 
ATOM      6  C   UNL     1      20.084  10.977  19.816  0.00  0.00    +0.000 C 
ATOM      7  C   UNL     1      17.882  13.511  18.633  0.00  0.00    +0.000 C 
ATOM      8  C   UNL     1      20.294  11.015  17.404  0.00  0.00    +0.000 C 
ATOM      9  C   UNL     1      18.920  10.454  20.409  0.00  0.00    +0.000 C 
ATOM     10  C   UNL     1      22.116  12.837  17.862  0.00  0.00    +0.000 C 
ATOM     11  C   UNL     1      20.366  14.372  18.777  0.00  0.00    +0.000 C 
ATOM     12  C   UNL     1      19.072  14.333  18.713  0.00  0.00    +0.000 C 
ATOM     13  C   UNL     1      22.269  11.746  16.797  0.00  0.00    +0.000 C 
ATOM     14  C   UNL     1      16.716  10.394  19.326  0.00  0.00    +0.000 C 
ATOM     15  C   UNL     1      17.136  13.647  17.386  0.00  0.00    +0.000 C 
ATOM     16  C   UNL     1      18.747   9.109  20.854  0.00  0.00    +0.000 C 
ATOM     17  C   UNL     1      20.856  10.910  15.088  0.00  0.00    +0.000 C 
ATOM     18  C   UNL     1      15.848   9.136  19.132  0.00  0.00    +0.000 C 
ATOM     19  C   UNL     1      16.510  13.742  15.993  0.00  0.00    +0.000 C 
ATOM     20  C   UNL     1      18.234   8.025  20.936  0.00  0.00    +0.000 C 
ATOM     21  C   UNL     1      15.913   7.692  19.624  0.00  0.00    +0.000 C 
ATOM     22  C   UNL     1      20.155  11.232  13.765  0.00  0.00    +0.000 C 
ATOM     23  C   UNL     1      17.046   7.166  20.499  0.00  0.00    +0.000 C 
ATOM     24  C   UNL     1      16.327  13.608  14.483  0.00  0.00    +0.000 C 
ATOM     25  C   UNL     1      19.100  11.757  12.795  0.00  0.00    +0.000 C 
ATOM     26  C   UNL     1      17.789  12.502  12.606  0.00  0.00    +0.000 C 
ATOM     27  C   UNL     1      16.732  13.223  13.424  0.00  0.00    +0.000 C 
ENDROOT
BRANCH  11  30
ATOM     28  N   UNL     1      21.515  16.174  19.925  0.00  0.00    +0.000 NA
ATOM     29  N   UNL     1      21.063  15.961  16.258  0.00  0.00    +0.000 N 
ATOM     30  C   UNL     1      21.097  15.631  18.759  0.00  0.00    +0.000 A 
ATOM     31  C   UNL     1      21.359  16.292  17.562  0.00  0.00    +0.000 A 
ATOM     32  C   UNL     1      22.044  17.507  17.529  0.00  0.00    +0.000 A 
ATOM     33  C   UNL     1      22.177  17.350  19.886  0.00  0.00    +0.000 A 
ATOM     34  C   UNL     1      22.475  18.073  18.739  0.00  0.00    +0.000 A 
ATOM     35  C   UNL     1      22.145  17.907  16.161  0.00  0.00    +0.000 A 
ATOM     36  C   UNL     1      21.526  16.924  15.393  0.00  0.00    +0.000 A 
ATOM     37  C   UNL     1      22.713  19.018  15.509  0.00  0.00    +0.000 A 
ATOM     38  C   UNL     1      21.441  16.988  13.999  0.00  0.00    +0.000 A 
ATOM     39  C   UNL     1      22.638  19.100  14.116  0.00  0.00    +0.000 A 
ATOM     40  C   UNL     1      22.013  18.101  13.379  0.00  0.00    +0.000 A 
ATOM     41  H   UNL     1      20.581  15.121  15.971  0.00  0.00    +0.000 HD
ENDBRANCH  11  30
BRANCH   7  42
ATOM     42  O   UNL     1      17.037  13.864  19.719  0.00  0.00    +0.000 OA
ATOM     43  H   UNL     1      17.609  14.303  20.372  0.00  0.00    +0.000 HD
ENDBRANCH   7  42
TORSDOF 2
ENDMDL
