MODEL 1
REMARK VINA RESULT:      -4.1      0.000      0.000
REMARK  Name = 67499_Pyrazolo.pdbqt.pdb
REMARK  0 active torsions:
REMARK  status: ('A' for Active; 'I' for Inactive)
REMARK                            x       y       z     vdW  Elec       q    Type
REMARK                         _______ _______ _______ _____ _____    ______ ____
ROOT
ATOM      1  N   UNL     1      31.672  22.222  30.999  0.00  0.00    +0.000 N 
ATOM      2  N   UNL     1      32.040  22.915  29.900  0.00  0.00    +0.000 NA
ATOM      3  N   UNL     1      29.665  21.428  32.098  0.00  0.00    +0.000 NA
ATOM      4  N   UNL     1      27.667  22.048  30.878  0.00  0.00    +0.000 NA
ATOM      5  C   UNL     1      29.769  22.698  30.024  0.00  0.00    +0.000 A 
ATOM      6  C   UNL     1      30.321  22.066  31.118  0.00  0.00    +0.000 A 
ATOM      7  C   UNL     1      30.872  23.201  29.310  0.00  0.00    +0.000 A 
ATOM      8  C   UNL     1      28.386  22.678  29.917  0.00  0.00    +0.000 A 
ATOM      9  C   UNL     1      28.333  21.468  31.898  0.00  0.00    +0.000 A 
ATOM     10  H   UNL     1      32.386  21.881  31.631  0.00  0.00    +0.000 HD
ENDROOT
TORSDOF 0
ENDMDL
MODEL 2
REMARK VINA RESULT:      -4.0      1.645      3.237
REMARK  Name = 67499_Pyrazolo.pdbqt.pdb
REMARK  0 active torsions:
REMARK  status: ('A' for Active; 'I' for Inactive)
REMARK                            x       y       z     vdW  Elec       q    Type
REMARK                         _______ _______ _______ _____ _____    ______ ____
ROOT
ATOM      1  N   UNL     1      27.936  22.310  29.086  0.00  0.00    +0.000 N 
ATOM      2  N   UNL     1      27.631  23.153  28.076  0.00  0.00    +0.000 NA
ATOM      3  N   UNL     1      29.822  21.694  30.476  0.00  0.00    +0.000 NA
ATOM      4  N   UNL     1      31.806  22.964  29.912  0.00  0.00    +0.000 NA
ATOM      5  C   UNL     1      29.817  23.366  28.706  0.00  0.00    +0.000 A 
ATOM      6  C   UNL     1      29.234  22.400  29.499  0.00  0.00    +0.000 A 
ATOM      7  C   UNL     1      28.786  23.794  27.851  0.00  0.00    +0.000 A 
ATOM      8  C   UNL     1      31.156  23.646  28.936  0.00  0.00    +0.000 A 
ATOM      9  C   UNL     1      31.116  22.042  30.615  0.00  0.00    +0.000 A 
ATOM     10  H   UNL     1      27.218  21.697  29.453  0.00  0.00    +0.000 HD
ENDROOT
TORSDOF 0
ENDMDL
MODEL 3
REMARK VINA RESULT:      -4.0      1.662      2.179
REMARK  Name = 67499_Pyrazolo.pdbqt.pdb
REMARK  0 active torsions:
REMARK  status: ('A' for Active; 'I' for Inactive)
REMARK                            x       y       z     vdW  Elec       q    Type
REMARK                         _______ _______ _______ _____ _____    ______ ____
ROOT
ATOM      1  N   UNL     1      30.809  22.293  30.078  0.00  0.00    +0.000 N 
ATOM      2  N   UNL     1      31.801  23.095  29.634  0.00  0.00    +0.000 NA
ATOM      3  N   UNL     1      28.449  21.894  29.710  0.00  0.00    +0.000 NA
ATOM      4  N   UNL     1      27.538  23.377  28.025  0.00  0.00    +0.000 NA
ATOM      5  C   UNL     1      29.826  23.553  28.580  0.00  0.00    +0.000 A 
ATOM      6  C   UNL     1      29.607  22.528  29.477  0.00  0.00    +0.000 A 
ATOM      7  C   UNL     1      31.191  23.861  28.719  0.00  0.00    +0.000 A 
ATOM      8  C   UNL     1      28.737  23.980  27.834  0.00  0.00    +0.000 A 
ATOM      9  C   UNL     1      27.461  22.384  28.936  0.00  0.00    +0.000 A 
ATOM     10  H   UNL     1      31.013  21.603  30.792  0.00  0.00    +0.000 HD
ENDROOT
TORSDOF 0
ENDMDL
MODEL 4
REMARK VINA RESULT:      -3.9      1.106      1.986
REMARK  Name = 67499_Pyrazolo.pdbqt.pdb
REMARK  0 active torsions:
REMARK  status: ('A' for Active; 'I' for Inactive)
REMARK                            x       y       z     vdW  Elec       q    Type
REMARK                         _______ _______ _______ _____ _____    ______ ____
ROOT
ATOM      1  N   UNL     1      31.057  23.222  29.002  0.00  0.00    +0.000 N 
ATOM      2  N   UNL     1      32.116  23.068  29.827  0.00  0.00    +0.000 NA
ATOM      3  N   UNL     1      28.660  22.876  28.986  0.00  0.00    +0.000 NA
ATOM      4  N   UNL     1      27.868  21.971  31.088  0.00  0.00    +0.000 NA
ATOM      5  C   UNL     1      30.174  22.405  30.833  0.00  0.00    +0.000 A 
ATOM      6  C   UNL     1      29.871  22.839  29.559  0.00  0.00    +0.000 A 
ATOM      7  C   UNL     1      31.567  22.568  30.942  0.00  0.00    +0.000 A 
ATOM      8  C   UNL     1      29.118  21.957  31.613  0.00  0.00    +0.000 A 
ATOM      9  C   UNL     1      27.710  22.421  29.826  0.00  0.00    +0.000 A 
ATOM     10  H   UNL     1      31.205  23.594  28.071  0.00  0.00    +0.000 HD
ENDROOT
TORSDOF 0
ENDMDL
MODEL 5
REMARK VINA RESULT:      -3.9     21.694     22.683
REMARK  Name = 67499_Pyrazolo.pdbqt.pdb
REMARK  0 active torsions:
REMARK  status: ('A' for Active; 'I' for Inactive)
REMARK                            x       y       z     vdW  Elec       q    Type
REMARK                         _______ _______ _______ _____ _____    ______ ____
ROOT
ATOM      1  N   UNL     1      18.020   6.329  22.330  0.00  0.00    +0.000 N 
ATOM      2  N   UNL     1      18.782   7.440  22.230  0.00  0.00    +0.000 NA
ATOM      3  N   UNL     1      17.266   4.476  20.965  0.00  0.00    +0.000 NA
ATOM      4  N   UNL     1      18.123   4.617  18.704  0.00  0.00    +0.000 NA
ATOM      5  C   UNL     1      18.706   6.303  20.250  0.00  0.00    +0.000 A 
ATOM      6  C   UNL     1      17.944   5.615  21.169  0.00  0.00    +0.000 A 
ATOM      7  C   UNL     1      19.197   7.416  20.957  0.00  0.00    +0.000 A 
ATOM      8  C   UNL     1      18.788   5.768  18.972  0.00  0.00    +0.000 A 
ATOM      9  C   UNL     1      17.411   4.044  19.697  0.00  0.00    +0.000 A 
ATOM     10  H   UNL     1      17.577   6.110  23.214  0.00  0.00    +0.000 HD
ENDROOT
TORSDOF 0
ENDMDL
MODEL 6
REMARK VINA RESULT:      -3.9      2.078      2.941
REMARK  Name = 67499_Pyrazolo.pdbqt.pdb
REMARK  0 active torsions:
REMARK  status: ('A' for Active; 'I' for Inactive)
REMARK                            x       y       z     vdW  Elec       q    Type
REMARK                         _______ _______ _______ _____ _____    ______ ____
ROOT
ATOM      1  N   UNL     1      31.613  24.916  28.202  0.00  0.00    +0.000 N 
ATOM      2  N   UNL     1      30.718  25.474  27.359  0.00  0.00    +0.000 NA
ATOM      3  N   UNL     1      31.770  23.097  29.794  0.00  0.00    +0.000 NA
ATOM      4  N   UNL     1      29.692  21.865  29.958  0.00  0.00    +0.000 NA
ATOM      5  C   UNL     1      29.815  23.696  28.473  0.00  0.00    +0.000 A 
ATOM      6  C   UNL     1      31.120  23.847  28.893  0.00  0.00    +0.000 A 
ATOM      7  C   UNL     1      29.622  24.722  27.532  0.00  0.00    +0.000 A 
ATOM      8  C   UNL     1      29.088  22.658  29.040  0.00  0.00    +0.000 A 
ATOM      9  C   UNL     1      30.977  22.123  30.280  0.00  0.00    +0.000 A 
ATOM     10  H   UNL     1      32.545  25.308  28.264  0.00  0.00    +0.000 HD
ENDROOT
TORSDOF 0
ENDMDL
MODEL 7
REMARK VINA RESULT:      -3.9      2.366      4.422
REMARK  Name = 67499_Pyrazolo.pdbqt.pdb
REMARK  0 active torsions:
REMARK  status: ('A' for Active; 'I' for Inactive)
REMARK                            x       y       z     vdW  Elec       q    Type
REMARK                         _______ _______ _______ _____ _____    ______ ____
ROOT
ATOM      1  N   UNL     1      27.931  23.320  27.459  0.00  0.00    +0.000 N 
ATOM      2  N   UNL     1      27.325  22.545  28.385  0.00  0.00    +0.000 NA
ATOM      3  N   UNL     1      30.078  24.355  27.032  0.00  0.00    +0.000 NA
ATOM      4  N   UNL     1      31.673  23.876  28.791  0.00  0.00    +0.000 NA
ATOM      5  C   UNL     1      29.493  22.986  28.958  0.00  0.00    +0.000 A 
ATOM      6  C   UNL     1      29.230  23.612  27.757  0.00  0.00    +0.000 A 
ATOM      7  C   UNL     1      28.287  22.346  29.296  0.00  0.00    +0.000 A 
ATOM      8  C   UNL     1      30.770  23.136  29.480  0.00  0.00    +0.000 A 
ATOM      9  C   UNL     1      31.285  24.436  27.626  0.00  0.00    +0.000 A 
ATOM     10  H   UNL     1      27.407  23.619  26.645  0.00  0.00    +0.000 HD
ENDROOT
TORSDOF 0
ENDMDL
MODEL 8
REMARK VINA RESULT:      -3.7     20.393     21.050
REMARK  Name = 67499_Pyrazolo.pdbqt.pdb
REMARK  0 active torsions:
REMARK  status: ('A' for Active; 'I' for Inactive)
REMARK                            x       y       z     vdW  Elec       q    Type
REMARK                         _______ _______ _______ _____ _____    ______ ____
ROOT
ATOM      1  N   UNL     1      42.797   7.774  20.672  0.00  0.00    +0.000 N 
ATOM      2  N   UNL     1      43.093   7.838  19.356  0.00  0.00    +0.000 NA
ATOM      3  N   UNL     1      40.869   7.588  22.126  0.00  0.00    +0.000 NA
ATOM      4  N   UNL     1      38.801   7.480  20.870  0.00  0.00    +0.000 NA
ATOM      5  C   UNL     1      40.840   7.665  19.694  0.00  0.00    +0.000 A 
ATOM      6  C   UNL     1      41.460   7.669  20.926  0.00  0.00    +0.000 A 
ATOM      7  C   UNL     1      41.892   7.771  18.766  0.00  0.00    +0.000 A 
ATOM      8  C   UNL     1      39.456   7.566  19.685  0.00  0.00    +0.000 A 
ATOM      9  C   UNL     1      39.530   7.496  22.005  0.00  0.00    +0.000 A 
ATOM     10  H   UNL     1      43.548   7.806  21.350  0.00  0.00    +0.000 HD
ENDROOT
TORSDOF 0
ENDMDL
MODEL 9
REMARK VINA RESULT:      -3.7     22.189     23.144
REMARK  Name = 67499_Pyrazolo.pdbqt.pdb
REMARK  0 active torsions:
REMARK  status: ('A' for Active; 'I' for Inactive)
REMARK                            x       y       z     vdW  Elec       q    Type
REMARK                         _______ _______ _______ _____ _____    ______ ____
ROOT
ATOM      1  N   UNL     1      44.524   6.007  20.898  0.00  0.00    +0.000 N 
ATOM      2  N   UNL     1      45.816   5.905  21.280  0.00  0.00    +0.000 NA
ATOM      3  N   UNL     1      42.956   7.673  20.104  0.00  0.00    +0.000 NA
ATOM      4  N   UNL     1      43.983   9.859  19.921  0.00  0.00    +0.000 NA
ATOM      5  C   UNL     1      45.293   8.045  20.675  0.00  0.00    +0.000 A 
ATOM      6  C   UNL     1      44.162   7.269  20.527  0.00  0.00    +0.000 A 
ATOM      7  C   UNL     1      46.277   7.156  21.140  0.00  0.00    +0.000 A 
ATOM      8  C   UNL     1      45.179   9.391  20.354  0.00  0.00    +0.000 A 
ATOM      9  C   UNL     1      42.955   8.990  19.821  0.00  0.00    +0.000 A 
ATOM     10  H   UNL     1      43.938   5.181  20.912  0.00  0.00    +0.000 HD
ENDROOT
TORSDOF 0
ENDMDL
