MODEL 1
REMARK VINA RESULT:      -4.9      0.000      0.000
REMARK  Name = 71369791_5FluoroDione.pdbqt.pdb
REMARK  1 active torsions:
REMARK  status: ('A' for Active; 'I' for Inactive)
REMARK    1  A    between atoms: N_4  and  C_12
REMARK                            x       y       z     vdW  Elec       q    Type
REMARK                         _______ _______ _______ _____ _____    ______ ____
ROOT
ATOM      1  F   UNL     1      15.759   3.265  31.950  0.00  0.00    +0.000 F 
ATOM      2  O   UNL     1      20.596   5.360  33.323  0.00  0.00    +0.000 OA
ATOM      3  O   UNL     1      17.694   4.034  30.028  0.00  0.00    +0.000 OA
ATOM      4  N   UNL     1      18.417   4.754  34.011  0.00  0.00    +0.000 N 
ATOM      5  N   UNL     1      19.055   4.769  31.736  0.00  0.00    +0.000 N 
ATOM      6  C   UNL     1      17.224   4.349  33.535  0.00  0.00    +0.000 C 
ATOM      7  C   UNL     1      16.765   4.109  32.234  0.00  0.00    +0.000 C 
ATOM      8  C   UNL     1      19.450   4.997  33.076  0.00  0.00    +0.000 C 
ATOM      9  C   UNL     1      17.842   4.293  31.216  0.00  0.00    +0.000 C 
ATOM     10  H   UNL     1      19.791   4.897  31.056  0.00  0.00    +0.000 HD
ENDROOT
BRANCH   4  12
ATOM     11  O   UNL     1      19.415   5.868  35.924  0.00  0.00    +0.000 OA
ATOM     12  C   UNL     1      18.568   4.906  35.360  0.00  0.00    +0.000 C 
ATOM     13  C   UNL     1      17.954   4.182  36.416  0.00  0.00    +0.000 C 
ATOM     14  C   UNL     1      18.242   4.484  37.888  0.00  0.00    +0.000 C 
ATOM     15  C   UNL     1      19.124   5.511  37.181  0.00  0.00    +0.000 C 
ENDBRANCH   4  12
TORSDOF 1
ENDMDL
MODEL 2
REMARK VINA RESULT:      -4.7     32.142     33.257
REMARK  Name = 71369791_5FluoroDione.pdbqt.pdb
REMARK  1 active torsions:
REMARK  status: ('A' for Active; 'I' for Inactive)
REMARK    1  A    between atoms: N_4  and  C_12
REMARK                            x       y       z     vdW  Elec       q    Type
REMARK                         _______ _______ _______ _____ _____    ______ ____
ROOT
ATOM      1  F   UNL     1      52.296  -7.093  36.187  0.00  0.00    +0.000 F 
ATOM      2  O   UNL     1      47.201  -5.273  35.555  0.00  0.00    +0.000 OA
ATOM      3  O   UNL     1      50.405  -7.077  38.297  0.00  0.00    +0.000 OA
ATOM      4  N   UNL     1      49.388  -5.427  34.671  0.00  0.00    +0.000 N 
ATOM      5  N   UNL     1      48.882  -6.080  36.884  0.00  0.00    +0.000 N 
ATOM      6  C   UNL     1      50.642  -5.806  34.988  0.00  0.00    +0.000 C 
ATOM      7  C   UNL     1      51.195  -6.323  36.165  0.00  0.00    +0.000 C 
ATOM      8  C   UNL     1      48.390  -5.556  35.664  0.00  0.00    +0.000 C 
ATOM      9  C   UNL     1      50.164  -6.535  37.225  0.00  0.00    +0.000 C 
ATOM     10  H   UNL     1      48.176  -6.218  37.593  0.00  0.00    +0.000 HD
ENDROOT
BRANCH   4  12
ATOM     11  O   UNL     1      48.574  -5.727  32.403  0.00  0.00    +0.000 OA
ATOM     12  C   UNL     1      49.146  -4.947  33.415  0.00  0.00    +0.000 C 
ATOM     13  C   UNL     1      49.399  -3.653  32.888  0.00  0.00    +0.000 C 
ATOM     14  C   UNL     1      49.064  -3.281  31.442  0.00  0.00    +0.000 C 
ATOM     15  C   UNL     1      48.610  -4.738  31.502  0.00  0.00    +0.000 C 
ENDBRANCH   4  12
TORSDOF 1
ENDMDL
MODEL 3
REMARK VINA RESULT:      -4.7     24.551     26.032
REMARK  Name = 71369791_5FluoroDione.pdbqt.pdb
REMARK  1 active torsions:
REMARK  status: ('A' for Active; 'I' for Inactive)
REMARK    1  A    between atoms: N_4  and  C_12
REMARK                            x       y       z     vdW  Elec       q    Type
REMARK                         _______ _______ _______ _____ _____    ______ ____
ROOT
ATOM      1  F   UNL     1      38.490  10.555  52.032  0.00  0.00    +0.000 F 
ATOM      2  O   UNL     1      35.370  11.957  47.793  0.00  0.00    +0.000 OA
ATOM      3  O   UNL     1      35.727   9.940  51.897  0.00  0.00    +0.000 OA
ATOM      4  N   UNL     1      37.432  12.209  48.922  0.00  0.00    +0.000 N 
ATOM      5  N   UNL     1      35.608  11.058  49.885  0.00  0.00    +0.000 N 
ATOM      6  C   UNL     1      38.063  11.897  50.070  0.00  0.00    +0.000 C 
ATOM      7  C   UNL     1      37.645  11.200  51.210  0.00  0.00    +0.000 C 
ATOM      8  C   UNL     1      36.095  11.777  48.767  0.00  0.00    +0.000 C 
ATOM      9  C   UNL     1      36.256  10.669  51.067  0.00  0.00    +0.000 C 
ATOM     10  H   UNL     1      34.667  10.704  49.777  0.00  0.00    +0.000 HD
ENDROOT
BRANCH   4  12
ATOM     11  O   UNL     1      38.349  12.421  46.683  0.00  0.00    +0.000 OA
ATOM     12  C   UNL     1      38.111  12.917  47.971  0.00  0.00    +0.000 C 
ATOM     13  C   UNL     1      38.689  14.211  48.062  0.00  0.00    +0.000 C 
ATOM     14  C   UNL     1      39.424  14.861  46.889  0.00  0.00    +0.000 C 
ATOM     15  C   UNL     1      39.009  13.517  46.291  0.00  0.00    +0.000 C 
ENDBRANCH   4  12
TORSDOF 1
ENDMDL
MODEL 4
REMARK VINA RESULT:      -4.7     18.782     20.211
REMARK  Name = 71369791_5FluoroDione.pdbqt.pdb
REMARK  1 active torsions:
REMARK  status: ('A' for Active; 'I' for Inactive)
REMARK    1  A    between atoms: N_4  and  C_12
REMARK                            x       y       z     vdW  Elec       q    Type
REMARK                         _______ _______ _______ _____ _____    ______ ____
ROOT
ATOM      1  F   UNL     1      23.551 -15.439  23.289  0.00  0.00    +0.000 F 
ATOM      2  O   UNL     1      23.253 -10.371  25.261  0.00  0.00    +0.000 OA
ATOM      3  O   UNL     1      25.840 -13.821  23.700  0.00  0.00    +0.000 OA
ATOM      4  N   UNL     1      22.107 -12.229  24.355  0.00  0.00    +0.000 N 
ATOM      5  N   UNL     1      24.466 -12.101  24.378  0.00  0.00    +0.000 N 
ATOM      6  C   UNL     1      22.311 -13.423  23.765  0.00  0.00    +0.000 C 
ATOM      7  C   UNL     1      23.481 -14.103  23.405  0.00  0.00    +0.000 C 
ATOM      8  C   UNL     1      23.244 -11.468  24.711  0.00  0.00    +0.000 C 
ATOM      9  C   UNL     1      24.710 -13.364  23.818  0.00  0.00    +0.000 C 
ATOM     10  H   UNL     1      25.290 -11.592  24.663  0.00  0.00    +0.000 HD
ENDROOT
BRANCH   4  12
ATOM     11  O   UNL     1      20.353 -10.556  24.204  0.00  0.00    +0.000 OA
ATOM     12  C   UNL     1      20.823 -11.820  24.581  0.00  0.00    +0.000 C 
ATOM     13  C   UNL     1      19.756 -12.523  25.201  0.00  0.00    +0.000 C 
ATOM     14  C   UNL     1      18.367 -11.908  25.377  0.00  0.00    +0.000 C 
ATOM     15  C   UNL     1      19.121 -10.779  24.677  0.00  0.00    +0.000 C 
ENDBRANCH   4  12
TORSDOF 1
ENDMDL
MODEL 5
REMARK VINA RESULT:      -4.6      2.074      2.623
REMARK  Name = 71369791_5FluoroDione.pdbqt.pdb
REMARK  1 active torsions:
REMARK  status: ('A' for Active; 'I' for Inactive)
REMARK    1  A    between atoms: N_4  and  C_12
REMARK                            x       y       z     vdW  Elec       q    Type
REMARK                         _______ _______ _______ _____ _____    ______ ____
ROOT
ATOM      1  F   UNL     1      13.916   3.165  33.841  0.00  0.00    +0.000 F 
ATOM      2  O   UNL     1      18.320   4.621  30.987  0.00  0.00    +0.000 OA
ATOM      3  O   UNL     1      14.073   2.890  31.025  0.00  0.00    +0.000 OA
ATOM      4  N   UNL     1      17.163   4.699  33.046  0.00  0.00    +0.000 N 
ATOM      5  N   UNL     1      16.163   3.859  31.077  0.00  0.00    +0.000 N 
ATOM      6  C   UNL     1      15.979   4.398  33.616  0.00  0.00    +0.000 C 
ATOM      7  C   UNL     1      14.803   3.846  33.096  0.00  0.00    +0.000 C 
ATOM      8  C   UNL     1      17.319   4.426  31.668  0.00  0.00    +0.000 C 
ATOM      9  C   UNL     1      14.941   3.483  31.654  0.00  0.00    +0.000 C 
ATOM     10  H   UNL     1      16.268   3.618  30.102  0.00  0.00    +0.000 HD
ENDROOT
BRANCH   4  12
ATOM     11  O   UNL     1      18.652   6.532  33.612  0.00  0.00    +0.000 OA
ATOM     12  C   UNL     1      18.145   5.243  33.824  0.00  0.00    +0.000 C 
ATOM     13  C   UNL     1      18.826   4.677  34.934  0.00  0.00    +0.000 C 
ATOM     14  C   UNL     1      19.914   5.433  35.698  0.00  0.00    +0.000 C 
ATOM     15  C   UNL     1      19.515   6.452  34.632  0.00  0.00    +0.000 C 
ENDBRANCH   4  12
TORSDOF 1
ENDMDL
MODEL 6
REMARK VINA RESULT:      -4.6     18.964     20.633
REMARK  Name = 71369791_5FluoroDione.pdbqt.pdb
REMARK  1 active torsions:
REMARK  status: ('A' for Active; 'I' for Inactive)
REMARK    1  A    between atoms: N_4  and  C_12
REMARK                            x       y       z     vdW  Elec       q    Type
REMARK                         _______ _______ _______ _____ _____    ______ ____
ROOT
ATOM      1  F   UNL     1      21.296  -9.432  25.012  0.00  0.00    +0.000 F 
ATOM      2  O   UNL     1      24.777 -13.413  23.711  0.00  0.00    +0.000 OA
ATOM      3  O   UNL     1      24.092  -9.206  25.404  0.00  0.00    +0.000 OA
ATOM      4  N   UNL     1      22.531 -12.760  24.049  0.00  0.00    +0.000 N 
ATOM      5  N   UNL     1      24.344 -11.363  24.635  0.00  0.00    +0.000 N 
ATOM      6  C   UNL     1      21.774 -11.744  24.509  0.00  0.00    +0.000 C 
ATOM      7  C   UNL     1      22.108 -10.501  25.059  0.00  0.00    +0.000 C 
ATOM      8  C   UNL     1      23.936 -12.606  24.092  0.00  0.00    +0.000 C 
ATOM      9  C   UNL     1      23.583 -10.268  25.067  0.00  0.00    +0.000 C 
ATOM     10  H   UNL     1      25.344 -11.217  24.636  0.00  0.00    +0.000 HD
ENDROOT
BRANCH   4  12
ATOM     11  O   UNL     1      21.951 -14.238  22.212  0.00  0.00    +0.000 OA
ATOM     12  C   UNL     1      21.908 -13.874  23.564  0.00  0.00    +0.000 C 
ATOM     13  C   UNL     1      21.135 -14.842  24.259  0.00  0.00    +0.000 C 
ATOM     14  C   UNL     1      20.500 -16.041  23.552  0.00  0.00    +0.000 C 
ATOM     15  C   UNL     1      21.202 -15.332  22.395  0.00  0.00    +0.000 C 
ENDBRANCH   4  12
TORSDOF 1
ENDMDL
MODEL 7
REMARK VINA RESULT:      -4.4     30.605     31.780
REMARK  Name = 71369791_5FluoroDione.pdbqt.pdb
REMARK  1 active torsions:
REMARK  status: ('A' for Active; 'I' for Inactive)
REMARK    1  A    between atoms: N_4  and  C_12
REMARK                            x       y       z     vdW  Elec       q    Type
REMARK                         _______ _______ _______ _____ _____    ______ ____
ROOT
ATOM      1  F   UNL     1      51.948   6.415  29.274  0.00  0.00    +0.000 F 
ATOM      2  O   UNL     1      47.584   4.350  31.795  0.00  0.00    +0.000 OA
ATOM      3  O   UNL     1      49.906   8.041  30.374  0.00  0.00    +0.000 OA
ATOM      4  N   UNL     1      49.470   3.953  30.426  0.00  0.00    +0.000 N 
ATOM      5  N   UNL     1      48.751   6.138  30.968  0.00  0.00    +0.000 N 
ATOM      6  C   UNL     1      50.440   4.587  29.739  0.00  0.00    +0.000 C 
ATOM      7  C   UNL     1      50.719   5.946  29.549  0.00  0.00    +0.000 C 
ATOM      8  C   UNL     1      48.524   4.747  31.114  0.00  0.00    +0.000 C 
ATOM      9  C   UNL     1      49.782   6.824  30.309  0.00  0.00    +0.000 C 
ATOM     10  H   UNL     1      48.110   6.722  31.486  0.00  0.00    +0.000 HD
ENDROOT
BRANCH   4  12
ATOM     11  O   UNL     1      48.892   1.837  29.384  0.00  0.00    +0.000 OA
ATOM     12  C   UNL     1      49.452   2.587  30.426  0.00  0.00    +0.000 C 
ATOM     13  C   UNL     1      49.952   1.686  31.402  0.00  0.00    +0.000 C 
ATOM     14  C   UNL     1      49.846   0.168  31.243  0.00  0.00    +0.000 C 
ATOM     15  C   UNL     1      49.178   0.664  29.961  0.00  0.00    +0.000 C 
ENDBRANCH   4  12
TORSDOF 1
ENDMDL
MODEL 8
REMARK VINA RESULT:      -4.3     36.170     37.243
REMARK  Name = 71369791_5FluoroDione.pdbqt.pdb
REMARK  1 active torsions:
REMARK  status: ('A' for Active; 'I' for Inactive)
REMARK    1  A    between atoms: N_4  and  C_12
REMARK                            x       y       z     vdW  Elec       q    Type
REMARK                         _______ _______ _______ _____ _____    ______ ____
ROOT
ATOM      1  F   UNL     1      54.332  10.488  32.842  0.00  0.00    +0.000 F 
ATOM      2  O   UNL     1      52.912  13.298  37.286  0.00  0.00    +0.000 OA
ATOM      3  O   UNL     1      52.096   9.796  34.438  0.00  0.00    +0.000 OA
ATOM      4  N   UNL     1      54.547  12.873  35.633  0.00  0.00    +0.000 N 
ATOM      5  N   UNL     1      52.630  11.515  35.877  0.00  0.00    +0.000 N 
ATOM      6  C   UNL     1      54.849  12.034  34.623  0.00  0.00    +0.000 C 
ATOM      7  C   UNL     1      54.190  10.911  34.109  0.00  0.00    +0.000 C 
ATOM      8  C   UNL     1      53.351  12.638  36.349  0.00  0.00    +0.000 C 
ATOM      9  C   UNL     1      52.888  10.661  34.795  0.00  0.00    +0.000 C 
ATOM     10  H   UNL     1      51.751  11.356  36.349  0.00  0.00    +0.000 HD
ENDROOT
BRANCH   4  12
ATOM     11  O   UNL     1      55.375  15.117  35.215  0.00  0.00    +0.000 OA
ATOM     12  C   UNL     1      55.403  13.901  35.909  0.00  0.00    +0.000 C 
ATOM     13  C   UNL     1      56.436  13.970  36.881  0.00  0.00    +0.000 C 
ATOM     14  C   UNL     1      57.311  15.212  37.056  0.00  0.00    +0.000 C 
ATOM     15  C   UNL     1      56.387  15.640  35.918  0.00  0.00    +0.000 C 
ENDBRANCH   4  12
TORSDOF 1
ENDMDL
MODEL 9
REMARK VINA RESULT:      -4.3     19.429     20.384
REMARK  Name = 71369791_5FluoroDione.pdbqt.pdb
REMARK  1 active torsions:
REMARK  status: ('A' for Active; 'I' for Inactive)
REMARK    1  A    between atoms: N_4  and  C_12
REMARK                            x       y       z     vdW  Elec       q    Type
REMARK                         _______ _______ _______ _____ _____    ______ ____
ROOT
ATOM      1  F   UNL     1      24.251  24.238  29.441  0.00  0.00    +0.000 F 
ATOM      2  O   UNL     1      27.158  20.812  32.519  0.00  0.00    +0.000 OA
ATOM      3  O   UNL     1      23.051  22.369  31.199  0.00  0.00    +0.000 OA
ATOM      4  N   UNL     1      27.134  22.350  30.724  0.00  0.00    +0.000 N 
ATOM      5  N   UNL     1      25.146  21.575  31.737  0.00  0.00    +0.000 N 
ATOM      6  C   UNL     1      26.300  23.065  29.944  0.00  0.00    +0.000 C 
ATOM      7  C   UNL     1      24.904  23.160  29.906  0.00  0.00    +0.000 C 
ATOM      8  C   UNL     1      26.561  21.522  31.717  0.00  0.00    +0.000 C 
ATOM      9  C   UNL     1      24.255  22.350  30.979  0.00  0.00    +0.000 C 
ATOM     10  H   UNL     1      24.718  21.022  32.466  0.00  0.00    +0.000 HD
ENDROOT
BRANCH   4  12
ATOM     11  O   UNL     1      29.124  21.930  29.397  0.00  0.00    +0.000 OA
ATOM     12  C   UNL     1      28.481  22.463  30.521  0.00  0.00    +0.000 C 
ATOM     13  C   UNL     1      29.459  23.092  31.335  0.00  0.00    +0.000 C 
ATOM     14  C   UNL     1      30.940  23.124  30.954  0.00  0.00    +0.000 C 
ATOM     15  C   UNL     1      30.333  22.354  29.783  0.00  0.00    +0.000 C 
ENDBRANCH   4  12
TORSDOF 1
ENDMDL
