MODEL 1
REMARK VINA RESULT:      -3.0      0.000      0.000
REMARK  Name = 7288_3Pentanone.pdbqt.pdb
REMARK  2 active torsions:
REMARK  status: ('A' for Active; 'I' for Inactive)
REMARK    1  A    between atoms: C_2  and  C_3
REMARK    2  A    between atoms: C_2  and  C_5
REMARK                            x       y       z     vdW  Elec       q    Type
REMARK                         _______ _______ _______ _____ _____    ______ ____
ROOT
ATOM      1  O   UNL     1      34.475   2.395  15.940  0.00  0.00    +0.000 OA
ATOM      2  C   UNL     1      34.844   1.645  16.836  0.00  0.00    +0.000 C 
ENDROOT
BRANCH   2   3
ATOM      3  C   UNL     1      35.665   2.132  17.919  0.00  0.00    +0.000 C 
ATOM      4  C   UNL     1      36.539   2.675  19.067  0.00  0.00    +0.000 C 
ENDBRANCH   2   3
BRANCH   2   5
ATOM      5  C   UNL     1      34.469   0.251  16.837  0.00  0.00    +0.000 C 
ATOM      6  C   UNL     1      34.061  -1.236  16.815  0.00  0.00    +0.000 C 
ENDBRANCH   2   5
TORSDOF 2
ENDMDL
MODEL 2
REMARK VINA RESULT:      -2.9     23.612     25.016
REMARK  Name = 7288_3Pentanone.pdbqt.pdb
REMARK  2 active torsions:
REMARK  status: ('A' for Active; 'I' for Inactive)
REMARK    1  A    between atoms: C_2  and  C_3
REMARK    2  A    between atoms: C_2  and  C_5
REMARK                            x       y       z     vdW  Elec       q    Type
REMARK                         _______ _______ _______ _____ _____    ______ ____
ROOT
ATOM      1  O   UNL     1      42.556 -12.981  -1.722  0.00  0.00    +0.000 OA
ATOM      2  C   UNL     1      42.204 -13.936  -1.041  0.00  0.00    +0.000 C 
ENDROOT
BRANCH   2   3
ATOM      3  C   UNL     1      42.772 -15.246  -1.252  0.00  0.00    +0.000 C 
ATOM      4  C   UNL     1      43.358 -16.655  -1.469  0.00  0.00    +0.000 C 
ENDBRANCH   2   3
BRANCH   2   5
ATOM      5  C   UNL     1      41.212 -13.781  -0.004  0.00  0.00    +0.000 C 
ATOM      6  C   UNL     1      40.161 -13.595   1.109  0.00  0.00    +0.000 C 
ENDBRANCH   2   5
TORSDOF 2
ENDMDL
MODEL 3
REMARK VINA RESULT:      -2.9     23.652     24.972
REMARK  Name = 7288_3Pentanone.pdbqt.pdb
REMARK  2 active torsions:
REMARK  status: ('A' for Active; 'I' for Inactive)
REMARK    1  A    between atoms: C_2  and  C_3
REMARK    2  A    between atoms: C_2  and  C_5
REMARK                            x       y       z     vdW  Elec       q    Type
REMARK                         _______ _______ _______ _____ _____    ______ ____
ROOT
ATOM      1  O   UNL     1      42.787 -12.988  -1.617  0.00  0.00    +0.000 OA
ATOM      2  C   UNL     1      42.299 -13.944  -1.028  0.00  0.00    +0.000 C 
ENDROOT
BRANCH   2   3
ATOM      3  C   UNL     1      41.265 -13.755  -0.038  0.00  0.00    +0.000 C 
ATOM      4  C   UNL     1      40.179 -13.551   1.036  0.00  0.00    +0.000 C 
ENDBRANCH   2   3
BRANCH   2   5
ATOM      5  C   UNL     1      42.742 -15.290  -1.304  0.00  0.00    +0.000 C 
ATOM      6  C   UNL     1      43.194 -16.732  -1.610  0.00  0.00    +0.000 C 
ENDBRANCH   2   5
TORSDOF 2
ENDMDL
MODEL 4
REMARK VINA RESULT:      -2.8     28.256     29.664
REMARK  Name = 7288_3Pentanone.pdbqt.pdb
REMARK  2 active torsions:
REMARK  status: ('A' for Active; 'I' for Inactive)
REMARK    1  A    between atoms: C_2  and  C_3
REMARK    2  A    between atoms: C_2  and  C_5
REMARK                            x       y       z     vdW  Elec       q    Type
REMARK                         _______ _______ _______ _____ _____    ______ ____
ROOT
ATOM      1  O   UNL     1      41.222 -20.311  -1.432  0.00  0.00    +0.000 OA
ATOM      2  C   UNL     1      42.051 -19.760  -2.146  0.00  0.00    +0.000 C 
ENDROOT
BRANCH   2   3
ATOM      3  C   UNL     1      42.638 -18.498  -1.761  0.00  0.00    +0.000 C 
ATOM      4  C   UNL     1      43.244 -17.140  -1.358  0.00  0.00    +0.000 C 
ENDBRANCH   2   3
BRANCH   2   5
ATOM      5  C   UNL     1      42.467 -20.354  -3.394  0.00  0.00    +0.000 C 
ATOM      6  C   UNL     1      42.932 -20.979  -4.725  0.00  0.00    +0.000 C 
ENDBRANCH   2   5
TORSDOF 2
ENDMDL
MODEL 5
REMARK VINA RESULT:      -2.7     29.018     29.631
REMARK  Name = 7288_3Pentanone.pdbqt.pdb
REMARK  2 active torsions:
REMARK  status: ('A' for Active; 'I' for Inactive)
REMARK    1  A    between atoms: C_2  and  C_3
REMARK    2  A    between atoms: C_2  and  C_5
REMARK                            x       y       z     vdW  Elec       q    Type
REMARK                         _______ _______ _______ _____ _____    ______ ____
ROOT
ATOM      1  O   UNL     1      21.322  -7.135  41.382  0.00  0.00    +0.000 OA
ATOM      2  C   UNL     1      20.327  -7.707  40.953  0.00  0.00    +0.000 C 
ENDROOT
BRANCH   2   3
ATOM      3  C   UNL     1      20.132  -9.120  41.171  0.00  0.00    +0.000 C 
ATOM      4  C   UNL     1      19.901 -10.627  41.397  0.00  0.00    +0.000 C 
ENDBRANCH   2   3
BRANCH   2   5
ATOM      5  C   UNL     1      19.317  -6.984  40.217  0.00  0.00    +0.000 C 
ATOM      6  C   UNL     1      18.222  -6.227  39.438  0.00  0.00    +0.000 C 
ENDBRANCH   2   5
TORSDOF 2
ENDMDL
MODEL 6
REMARK VINA RESULT:      -2.7     29.357     29.967
REMARK  Name = 7288_3Pentanone.pdbqt.pdb
REMARK  2 active torsions:
REMARK  status: ('A' for Active; 'I' for Inactive)
REMARK    1  A    between atoms: C_2  and  C_3
REMARK    2  A    between atoms: C_2  and  C_5
REMARK                            x       y       z     vdW  Elec       q    Type
REMARK                         _______ _______ _______ _____ _____    ______ ____
ROOT
ATOM      1  O   UNL     1      43.977  -0.486  44.431  0.00  0.00    +0.000 OA
ATOM      2  C   UNL     1      43.385  -0.044  45.408  0.00  0.00    +0.000 C 
ENDROOT
BRANCH   2   3
ATOM      3  C   UNL     1      42.093  -0.563  45.790  0.00  0.00    +0.000 C 
ATOM      4  C   UNL     1      40.722  -1.118  46.221  0.00  0.00    +0.000 C 
ENDBRANCH   2   3
BRANCH   2   5
ATOM      5  C   UNL     1      43.962   1.010  46.208  0.00  0.00    +0.000 C 
ATOM      6  C   UNL     1      44.591   2.120  47.075  0.00  0.00    +0.000 C 
ENDBRANCH   2   5
TORSDOF 2
ENDMDL
MODEL 7
REMARK VINA RESULT:      -2.7     27.075     27.859
REMARK  Name = 7288_3Pentanone.pdbqt.pdb
REMARK  2 active torsions:
REMARK  status: ('A' for Active; 'I' for Inactive)
REMARK    1  A    between atoms: C_2  and  C_3
REMARK    2  A    between atoms: C_2  and  C_5
REMARK                            x       y       z     vdW  Elec       q    Type
REMARK                         _______ _______ _______ _____ _____    ______ ____
ROOT
ATOM      1  O   UNL     1      41.280 -16.383  -0.951  0.00  0.00    +0.000 OA
ATOM      2  C   UNL     1      42.149 -17.070  -1.475  0.00  0.00    +0.000 C 
ENDROOT
BRANCH   2   3
ATOM      3  C   UNL     1      42.033 -18.509  -1.514  0.00  0.00    +0.000 C 
ATOM      4  C   UNL     1      41.929 -20.046  -1.540  0.00  0.00    +0.000 C 
ENDBRANCH   2   3
BRANCH   2   5
ATOM      5  C   UNL     1      43.315 -16.462  -2.070  0.00  0.00    +0.000 C 
ATOM      6  C   UNL     1      44.575 -15.831  -2.697  0.00  0.00    +0.000 C 
ENDBRANCH   2   5
TORSDOF 2
ENDMDL
MODEL 8
REMARK VINA RESULT:      -2.6     14.352     14.945
REMARK  Name = 7288_3Pentanone.pdbqt.pdb
REMARK  2 active torsions:
REMARK  status: ('A' for Active; 'I' for Inactive)
REMARK    1  A    between atoms: C_2  and  C_3
REMARK    2  A    between atoms: C_2  and  C_5
REMARK                            x       y       z     vdW  Elec       q    Type
REMARK                         _______ _______ _______ _____ _____    ______ ____
ROOT
ATOM      1  O   UNL     1      27.237   0.645   5.404  0.00  0.00    +0.000 OA
ATOM      2  C   UNL     1      27.287  -0.506   4.987  0.00  0.00    +0.000 C 
ENDROOT
BRANCH   2   3
ATOM      3  C   UNL     1      28.551  -1.118   4.651  0.00  0.00    +0.000 C 
ATOM      4  C   UNL     1      29.898  -1.764   4.270  0.00  0.00    +0.000 C 
ENDBRANCH   2   3
BRANCH   2   5
ATOM      5  C   UNL     1      26.085  -1.287   4.818  0.00  0.00    +0.000 C 
ATOM      6  C   UNL     1      24.791  -2.111   4.658  0.00  0.00    +0.000 C 
ENDBRANCH   2   5
TORSDOF 2
ENDMDL
MODEL 9
REMARK VINA RESULT:      -2.6     25.118     26.230
REMARK  Name = 7288_3Pentanone.pdbqt.pdb
REMARK  2 active torsions:
REMARK  status: ('A' for Active; 'I' for Inactive)
REMARK    1  A    between atoms: C_2  and  C_3
REMARK    2  A    between atoms: C_2  and  C_5
REMARK                            x       y       z     vdW  Elec       q    Type
REMARK                         _______ _______ _______ _____ _____    ______ ____
ROOT
ATOM      1  O   UNL     1      32.168  22.852  29.796  0.00  0.00    +0.000 OA
ATOM      2  C   UNL     1      31.096  23.071  30.348  0.00  0.00    +0.000 C 
ENDROOT
BRANCH   2   3
ATOM      3  C   UNL     1      29.849  22.734  29.704  0.00  0.00    +0.000 C 
ATOM      4  C   UNL     1      28.505  22.390  29.032  0.00  0.00    +0.000 C 
ENDBRANCH   2   3
BRANCH   2   5
ATOM      5  C   UNL     1      31.048  23.672  31.660  0.00  0.00    +0.000 C 
ATOM      6  C   UNL     1      30.993  24.335  33.050  0.00  0.00    +0.000 C 
ENDBRANCH   2   5
TORSDOF 2
ENDMDL
