MODEL 1
REMARK VINA RESULT:      -7.4      0.000      0.000
REMARK  Name = 73299_Hederagenin.pdbqt.pdb
REMARK  5 active torsions:
REMARK  status: ('A' for Active; 'I' for Inactive)
REMARK    1  A    between atoms: C_9  and  C_35
REMARK    2  A    between atoms: C_14  and  C_32
REMARK    3  A    between atoms: C_17  and  O_29
REMARK    4  A    between atoms: C_32  and  O_33
REMARK    5  A    between atoms: C_35  and  O_36
REMARK                            x       y       z     vdW  Elec       q    Type
REMARK                         _______ _______ _______ _____ _____    ______ ____
ROOT
ATOM      1  C   UNL     1      42.993  -0.140   9.848  0.00  0.00    +0.000 C 
ATOM      2  C   UNL     1      41.715  -0.917   9.319  0.00  0.00    +0.000 C 
ATOM      3  C   UNL     1      40.354  -0.249   9.096  0.00  0.00    +0.000 C 
ATOM      4  C   UNL     1      43.863  -1.036  10.935  0.00  0.00    +0.000 C 
ATOM      5  C   UNL     1      39.966   0.908  10.062  0.00  0.00    +0.000 C 
ATOM      6  C   UNL     1      42.474   1.086  10.465  0.00  0.00    +0.000 C 
ATOM      7  C   UNL     1      41.084   1.612  10.592  0.00  0.00    +0.000 C 
ATOM      8  C   UNL     1      44.144  -2.545  10.402  0.00  0.00    +0.000 C 
ATOM      9  C   UNL     1      38.543   1.102  10.613  0.00  0.00    +0.000 C 
ATOM     10  C   UNL     1      45.426  -3.267  10.550  0.00  0.00    +0.000 C 
ATOM     11  C   UNL     1      41.961  -2.317   9.158  0.00  0.00    +0.000 C 
ATOM     12  C   UNL     1      39.289  -1.237   9.241  0.00  0.00    +0.000 C 
ATOM     13  C   UNL     1      45.214  -0.503  11.189  0.00  0.00    +0.000 C 
ATOM     14  C   UNL     1      46.890  -2.506  10.591  0.00  0.00    +0.000 C 
ATOM     15  C   UNL     1      43.863   0.222   8.576  0.00  0.00    +0.000 C 
ATOM     16  C   UNL     1      46.569  -1.161  11.068  0.00  0.00    +0.000 C 
ATOM     17  C   UNL     1      37.464   0.051  10.242  0.00  0.00    +0.000 C 
ATOM     18  C   UNL     1      43.170  -3.033   9.689  0.00  0.00    +0.000 C 
ATOM     19  C   UNL     1      40.345   0.329   7.658  0.00  0.00    +0.000 C 
ATOM     20  C   UNL     1      37.888  -1.197   9.753  0.00  0.00    +0.000 C 
ATOM     21  C   UNL     1      43.094  -1.220  12.315  0.00  0.00    +0.000 C 
ATOM     22  C   UNL     1      45.405  -4.579  11.198  0.00  0.00    +0.000 C 
ATOM     23  C   UNL     1      47.705  -3.342  11.513  0.00  0.00    +0.000 C 
ATOM     24  C   UNL     1      46.185  -5.540  12.065  0.00  0.00    +0.000 C 
ATOM     25  C   UNL     1      38.019   2.506  10.162  0.00  0.00    +0.000 C 
ATOM     26  C   UNL     1      47.431  -4.716  12.177  0.00  0.00    +0.000 C 
ATOM     27  C   UNL     1      45.504  -5.737  13.431  0.00  0.00    +0.000 C 
ATOM     28  C   UNL     1      46.441  -6.873  11.339  0.00  0.00    +0.000 C 
ENDROOT
BRANCH  17  29
ATOM     29  O   UNL     1      36.134   0.410  10.096  0.00  0.00    +0.000 OA
ATOM     30  H   UNL     1      35.990   0.874   9.245  0.00  0.00    +0.000 HD
ENDBRANCH  17  29
BRANCH  14  32
ATOM     31  O   UNL     1      47.339  -1.658   8.323  0.00  0.00    +0.000 OA
ATOM     32  C   UNL     1      47.465  -2.532   9.170  0.00  0.00    +0.000 C 
BRANCH  32  33
ATOM     33  O   UNL     1      48.106  -3.678   8.850  0.00  0.00    +0.000 OA
ATOM     34  H   UNL     1      48.222  -4.153   9.700  0.00  0.00    +0.000 HD
ENDBRANCH  32  33
ENDBRANCH  14  32
BRANCH   9  35
ATOM     35  C   UNL     1      38.628   1.064  12.107  0.00  0.00    +0.000 C 
BRANCH  35  36
ATOM     36  O   UNL     1      38.705   1.015  13.440  0.00  0.00    +0.000 OA
ATOM     37  H   UNL     1      39.016   0.141  13.741  0.00  0.00    +0.000 HD
ENDBRANCH  35  36
ENDBRANCH   9  35
TORSDOF 5
ENDMDL
MODEL 2
REMARK VINA RESULT:      -7.2     17.419     19.757
REMARK  Name = 73299_Hederagenin.pdbqt.pdb
REMARK  5 active torsions:
REMARK  status: ('A' for Active; 'I' for Inactive)
REMARK    1  A    between atoms: C_9  and  C_35
REMARK    2  A    between atoms: C_14  and  C_32
REMARK    3  A    between atoms: C_17  and  O_29
REMARK    4  A    between atoms: C_32  and  O_33
REMARK    5  A    between atoms: C_35  and  O_36
REMARK                            x       y       z     vdW  Elec       q    Type
REMARK                         _______ _______ _______ _____ _____    ______ ____
ROOT
ATOM      1  C   UNL     1      43.783 -14.978  -4.291  0.00  0.00    +0.000 C 
ATOM      2  C   UNL     1      43.575 -14.600  -2.765  0.00  0.00    +0.000 C 
ATOM      3  C   UNL     1      42.605 -15.339  -1.837  0.00  0.00    +0.000 C 
ATOM      4  C   UNL     1      43.930 -13.637  -5.252  0.00  0.00    +0.000 C 
ATOM      5  C   UNL     1      41.299 -15.895  -2.476  0.00  0.00    +0.000 C 
ATOM      6  C   UNL     1      42.602 -15.767  -4.660  0.00  0.00    +0.000 C 
ATOM      7  C   UNL     1      41.426 -16.214  -3.857  0.00  0.00    +0.000 C 
ATOM      8  C   UNL     1      44.997 -12.568  -4.654  0.00  0.00    +0.000 C 
ATOM      9  C   UNL     1      39.932 -15.847  -1.772  0.00  0.00    +0.000 C 
ATOM     10  C   UNL     1      45.986 -11.820  -5.462  0.00  0.00    +0.000 C 
ATOM     11  C   UNL     1      44.331 -13.446  -2.385  0.00  0.00    +0.000 C 
ATOM     12  C   UNL     1      42.156 -14.442  -0.776  0.00  0.00    +0.000 C 
ATOM     13  C   UNL     1      44.455 -13.933  -6.598  0.00  0.00    +0.000 C 
ATOM     14  C   UNL     1      46.648 -12.415  -6.852  0.00  0.00    +0.000 C 
ATOM     15  C   UNL     1      45.081 -15.881  -4.364  0.00  0.00    +0.000 C 
ATOM     16  C   UNL     1      45.650 -13.370  -7.332  0.00  0.00    +0.000 C 
ATOM     17  C   UNL     1      39.843 -15.145  -0.391  0.00  0.00    +0.000 C 
ATOM     18  C   UNL     1      45.011 -12.521  -3.353  0.00  0.00    +0.000 C 
ATOM     19  C   UNL     1      43.366 -16.542  -1.224  0.00  0.00    +0.000 C 
ATOM     20  C   UNL     1      40.883 -14.278  -0.015  0.00  0.00    +0.000 C 
ATOM     21  C   UNL     1      42.563 -12.834  -5.378  0.00  0.00    +0.000 C 
ATOM     22  C   UNL     1      45.992 -10.361  -5.361  0.00  0.00    +0.000 C 
ATOM     23  C   UNL     1      46.851 -11.209  -7.699  0.00  0.00    +0.000 C 
ATOM     24  C   UNL     1      46.252  -9.073  -6.109  0.00  0.00    +0.000 C 
ATOM     25  C   UNL     1      39.405 -17.310  -1.601  0.00  0.00    +0.000 C 
ATOM     26  C   UNL     1      46.703  -9.696  -7.395  0.00  0.00    +0.000 C 
ATOM     27  C   UNL     1      44.956  -8.262  -6.288  0.00  0.00    +0.000 C 
ATOM     28  C   UNL     1      47.371  -8.252  -5.444  0.00  0.00    +0.000 C 
ENDROOT
BRANCH  17  29
ATOM     29  O   UNL     1      38.949 -15.576   0.575  0.00  0.00    +0.000 OA
ATOM     30  H   UNL     1      39.134 -16.503   0.833  0.00  0.00    +0.000 HD
ENDBRANCH  17  29
BRANCH  14  32
ATOM     31  O   UNL     1      48.696 -13.730  -7.227  0.00  0.00    +0.000 OA
ATOM     32  C   UNL     1      47.989 -13.061  -6.485  0.00  0.00    +0.000 C 
BRANCH  32  33
ATOM     33  O   UNL     1      48.348 -12.904  -5.192  0.00  0.00    +0.000 OA
ATOM     34  H   UNL     1      48.939 -12.121  -5.183  0.00  0.00    +0.000 HD
ENDBRANCH  32  33
ENDBRANCH  14  32
BRANCH   9  35
ATOM     35  C   UNL     1      38.994 -15.085  -2.657  0.00  0.00    +0.000 C 
BRANCH  35  36
ATOM     36  O   UNL     1      38.147 -14.415  -3.443  0.00  0.00    +0.000 OA
ATOM     37  H   UNL     1      37.321 -14.206  -2.969  0.00  0.00    +0.000 HD
ENDBRANCH  35  36
ENDBRANCH   9  35
TORSDOF 5
ENDMDL
MODEL 3
REMARK VINA RESULT:      -7.2     14.276     18.794
REMARK  Name = 73299_Hederagenin.pdbqt.pdb
REMARK  5 active torsions:
REMARK  status: ('A' for Active; 'I' for Inactive)
REMARK    1  A    between atoms: C_9  and  C_35
REMARK    2  A    between atoms: C_14  and  C_32
REMARK    3  A    between atoms: C_17  and  O_29
REMARK    4  A    between atoms: C_32  and  O_33
REMARK    5  A    between atoms: C_35  and  O_36
REMARK                            x       y       z     vdW  Elec       q    Type
REMARK                         _______ _______ _______ _____ _____    ______ ____
ROOT
ATOM      1  C   UNL     1      24.733   2.121   4.362  0.00  0.00    +0.000 C 
ATOM      2  C   UNL     1      24.200   0.706   3.882  0.00  0.00    +0.000 C 
ATOM      3  C   UNL     1      22.855   0.118   4.322  0.00  0.00    +0.000 C 
ATOM      4  C   UNL     1      26.356   2.098   4.691  0.00  0.00    +0.000 C 
ATOM      5  C   UNL     1      22.368   0.461   5.760  0.00  0.00    +0.000 C 
ATOM      6  C   UNL     1      23.953   2.444   5.561  0.00  0.00    +0.000 C 
ATOM      7  C   UNL     1      22.852   1.707   6.248  0.00  0.00    +0.000 C 
ATOM      8  C   UNL     1      27.215   1.404   3.500  0.00  0.00    +0.000 C 
ATOM      9  C   UNL     1      21.667  -0.557   6.675  0.00  0.00    +0.000 C 
ATOM     10  C   UNL     1      28.511   1.905   2.991  0.00  0.00    +0.000 C 
ATOM     11  C   UNL     1      25.153   0.016   3.068  0.00  0.00    +0.000 C 
ATOM     12  C   UNL     1      22.915  -1.340   4.279  0.00  0.00    +0.000 C 
ATOM     13  C   UNL     1      26.951   3.443   4.808  0.00  0.00    +0.000 C 
ATOM     14  C   UNL     1      28.924   3.503   2.997  0.00  0.00    +0.000 C 
ATOM     15  C   UNL     1      24.397   3.149   3.206  0.00  0.00    +0.000 C 
ATOM     16  C   UNL     1      28.117   4.068   4.078  0.00  0.00    +0.000 C 
ATOM     17  C   UNL     1      21.504  -2.013   6.163  0.00  0.00    +0.000 C 
ATOM     18  C   UNL     1      26.590   0.425   2.912  0.00  0.00    +0.000 C 
ATOM     19  C   UNL     1      21.775   0.631   3.335  0.00  0.00    +0.000 C 
ATOM     20  C   UNL     1      22.305  -2.435   5.087  0.00  0.00    +0.000 C 
ATOM     21  C   UNL     1      26.693   1.251   5.994  0.00  0.00    +0.000 C 
ATOM     22  C   UNL     1      29.647   0.983   2.981  0.00  0.00    +0.000 C 
ATOM     23  C   UNL     1      30.394   3.495   3.223  0.00  0.00    +0.000 C 
ATOM     24  C   UNL     1      31.149   0.874   3.114  0.00  0.00    +0.000 C 
ATOM     25  C   UNL     1      20.244  -0.013   7.032  0.00  0.00    +0.000 C 
ATOM     26  C   UNL     1      31.427   2.338   3.262  0.00  0.00    +0.000 C 
ATOM     27  C   UNL     1      31.539   0.086   4.378  0.00  0.00    +0.000 C 
ATOM     28  C   UNL     1      31.786   0.293   1.839  0.00  0.00    +0.000 C 
ENDROOT
BRANCH  17  29
ATOM     29  O   UNL     1      20.411  -2.782   6.525  0.00  0.00    +0.000 OA
ATOM     30  H   UNL     1      20.686  -3.694   6.754  0.00  0.00    +0.000 HD
ENDBRANCH  17  29
BRANCH  14  32
ATOM     31  O   UNL     1      29.371   4.260   0.696  0.00  0.00    +0.000 OA
ATOM     32  C   UNL     1      28.584   4.073   1.614  0.00  0.00    +0.000 C 
BRANCH  32  33
ATOM     33  O   UNL     1      27.294   4.452   1.470  0.00  0.00    +0.000 OA
ATOM     34  H   UNL     1      27.266   5.384   1.776  0.00  0.00    +0.000 HD
ENDBRANCH  32  33
ENDBRANCH  14  32
BRANCH   9  35
ATOM     35  C   UNL     1      22.478  -0.673   7.927  0.00  0.00    +0.000 C 
BRANCH  35  36
ATOM     36  O   UNL     1      23.194  -0.767   9.052  0.00  0.00    +0.000 OA
ATOM     37  H   UNL     1      23.276   0.101   9.489  0.00  0.00    +0.000 HD
ENDBRANCH  35  36
ENDBRANCH   9  35
TORSDOF 5
ENDMDL
MODEL 4
REMARK VINA RESULT:      -7.0     36.641     39.865
REMARK  Name = 73299_Hederagenin.pdbqt.pdb
REMARK  5 active torsions:
REMARK  status: ('A' for Active; 'I' for Inactive)
REMARK    1  A    between atoms: C_9  and  C_35
REMARK    2  A    between atoms: C_14  and  C_32
REMARK    3  A    between atoms: C_17  and  O_29
REMARK    4  A    between atoms: C_32  and  O_33
REMARK    5  A    between atoms: C_35  and  O_36
REMARK                            x       y       z     vdW  Elec       q    Type
REMARK                         _______ _______ _______ _____ _____    ______ ____
ROOT
ATOM      1  C   UNL     1      17.546  -7.962  38.894  0.00  0.00    +0.000 C 
ATOM      2  C   UNL     1      18.745  -7.539  39.841  0.00  0.00    +0.000 C 
ATOM      3  C   UNL     1      19.487  -8.521  40.753  0.00  0.00    +0.000 C 
ATOM      4  C   UNL     1      16.334  -6.833  38.877  0.00  0.00    +0.000 C 
ATOM      5  C   UNL     1      18.657  -9.689  41.361  0.00  0.00    +0.000 C 
ATOM      6  C   UNL     1      17.067  -9.245  39.422  0.00  0.00    +0.000 C 
ATOM      7  C   UNL     1      17.547 -10.080  40.562  0.00  0.00    +0.000 C 
ATOM      8  C   UNL     1      16.901  -5.328  38.643  0.00  0.00    +0.000 C 
ATOM      9  C   UNL     1      18.841 -10.190  42.803  0.00  0.00    +0.000 C 
ATOM     10  C   UNL     1      16.270  -4.315  37.769  0.00  0.00    +0.000 C 
ATOM     11  C   UNL     1      18.991  -6.130  39.807  0.00  0.00    +0.000 C 
ATOM     12  C   UNL     1      20.038  -7.809  41.902  0.00  0.00    +0.000 C 
ATOM     13  C   UNL     1      15.375  -7.016  37.771  0.00  0.00    +0.000 C 
ATOM     14  C   UNL     1      15.402  -4.703  36.420  0.00  0.00    +0.000 C 
ATOM     15  C   UNL     1      18.159  -8.168  37.449  0.00  0.00    +0.000 C 
ATOM     16  C   UNL     1      14.930  -6.061  36.689  0.00  0.00    +0.000 C 
ATOM     17  C   UNL     1      19.853  -9.445  43.715  0.00  0.00    +0.000 C 
ATOM     18  C   UNL     1      18.064  -5.121  39.189  0.00  0.00    +0.000 C 
ATOM     19  C   UNL     1      20.635  -9.154  39.924  0.00  0.00    +0.000 C 
ATOM     20  C   UNL     1      20.270  -8.157  43.335  0.00  0.00    +0.000 C 
ATOM     21  C   UNL     1      15.550  -6.771  40.259  0.00  0.00    +0.000 C 
ATOM     22  C   UNL     1      15.935  -3.016  38.355  0.00  0.00    +0.000 C 
ATOM     23  C   UNL     1      14.350  -3.653  36.353  0.00  0.00    +0.000 C 
ATOM     24  C   UNL     1      14.967  -1.856  38.312  0.00  0.00    +0.000 C 
ATOM     25  C   UNL     1      19.256 -11.698  42.761  0.00  0.00    +0.000 C 
ATOM     26  C   UNL     1      14.134  -2.353  37.171  0.00  0.00    +0.000 C 
ATOM     27  C   UNL     1      14.155  -1.762  39.617  0.00  0.00    +0.000 C 
ATOM     28  C   UNL     1      15.683  -0.538  37.970  0.00  0.00    +0.000 C 
ENDROOT
BRANCH  17  29
ATOM     29  O   UNL     1      20.564 -10.117  44.694  0.00  0.00    +0.000 OA
ATOM     30  H   UNL     1      21.497  -9.818  44.715  0.00  0.00    +0.000 HD
ENDBRANCH  17  29
BRANCH  14  32
ATOM     31  O   UNL     1      17.147  -5.465  34.858  0.00  0.00    +0.000 OA
ATOM     32  C   UNL     1      16.349  -4.609  35.218  0.00  0.00    +0.000 C 
BRANCH  32  33
ATOM     33  O   UNL     1      16.310  -3.425  34.569  0.00  0.00    +0.000 OA
ATOM     34  H   UNL     1      15.356  -3.223  34.462  0.00  0.00    +0.000 HD
ENDBRANCH  32  33
ENDBRANCH  14  32
BRANCH   9  35
ATOM     35  C   UNL     1      17.522 -10.060  43.499  0.00  0.00    +0.000 C 
BRANCH  35  36
ATOM     36  O   UNL     1      16.345  -9.930  44.117  0.00  0.00    +0.000 OA
ATOM     37  H   UNL     1      16.344  -9.156  44.710  0.00  0.00    +0.000 HD
ENDBRANCH  35  36
ENDBRANCH   9  35
TORSDOF 5
ENDMDL
MODEL 5
REMARK VINA RESULT:      -6.9     17.534     21.766
REMARK  Name = 73299_Hederagenin.pdbqt.pdb
REMARK  5 active torsions:
REMARK  status: ('A' for Active; 'I' for Inactive)
REMARK    1  A    between atoms: C_9  and  C_35
REMARK    2  A    between atoms: C_14  and  C_32
REMARK    3  A    between atoms: C_17  and  O_29
REMARK    4  A    between atoms: C_32  and  O_33
REMARK    5  A    between atoms: C_35  and  O_36
REMARK                            x       y       z     vdW  Elec       q    Type
REMARK                         _______ _______ _______ _____ _____    ______ ____
ROOT
ATOM      1  C   UNL     1      22.247  -1.931   6.085  0.00  0.00    +0.000 C 
ATOM      2  C   UNL     1      21.751  -1.253   7.430  0.00  0.00    +0.000 C 
ATOM      3  C   UNL     1      20.570  -1.778   8.254  0.00  0.00    +0.000 C 
ATOM      4  C   UNL     1      22.664  -0.813   4.938  0.00  0.00    +0.000 C 
ATOM      5  C   UNL     1      19.396  -2.433   7.471  0.00  0.00    +0.000 C 
ATOM      6  C   UNL     1      21.126  -2.763   5.633  0.00  0.00    +0.000 C 
ATOM      7  C   UNL     1      19.787  -3.024   6.237  0.00  0.00    +0.000 C 
ATOM      8  C   UNL     1      23.642   0.341   5.531  0.00  0.00    +0.000 C 
ATOM      9  C   UNL     1      17.918  -2.227   7.844  0.00  0.00    +0.000 C 
ATOM     10  C   UNL     1      24.816   0.898   4.825  0.00  0.00    +0.000 C 
ATOM     11  C   UNL     1      22.475  -0.057   7.733  0.00  0.00    +0.000 C 
ATOM     12  C   UNL     1      19.963  -0.681   9.002  0.00  0.00    +0.000 C 
ATOM     13  C   UNL     1      23.438  -1.379   3.818  0.00  0.00    +0.000 C 
ATOM     14  C   UNL     1      25.717   0.028   3.749  0.00  0.00    +0.000 C 
ATOM     15  C   UNL     1      23.480  -2.848   6.467  0.00  0.00    +0.000 C 
ATOM     16  C   UNL     1      24.788  -0.991   3.260  0.00  0.00    +0.000 C 
ATOM     17  C   UNL     1      17.584  -1.262   9.013  0.00  0.00    +0.000 C 
ATOM     18  C   UNL     1      23.391   0.647   6.772  0.00  0.00    +0.000 C 
ATOM     19  C   UNL     1      21.121  -2.844   9.236  0.00  0.00    +0.000 C 
ATOM     20  C   UNL     1      18.572  -0.351   9.428  0.00  0.00    +0.000 C 
ATOM     21  C   UNL     1      21.399  -0.033   4.371  0.00  0.00    +0.000 C 
ATOM     22  C   UNL     1      24.882   2.348   4.640  0.00  0.00    +0.000 C 
ATOM     23  C   UNL     1      26.157   1.037   2.748  0.00  0.00    +0.000 C 
ATOM     24  C   UNL     1      25.363   3.456   3.732  0.00  0.00    +0.000 C 
ATOM     25  C   UNL     1      17.286  -3.619   8.178  0.00  0.00    +0.000 C 
ATOM     26  C   UNL     1      26.034   2.583   2.716  0.00  0.00    +0.000 C 
ATOM     27  C   UNL     1      24.178   4.232   3.127  0.00  0.00    +0.000 C 
ATOM     28  C   UNL     1      26.364   4.379   4.448  0.00  0.00    +0.000 C 
ENDROOT
BRANCH  17  29
ATOM     29  O   UNL     1      16.488  -1.478   9.831  0.00  0.00    +0.000 OA
ATOM     30  H   UNL     1      16.770  -1.779  10.720  0.00  0.00    +0.000 HD
ENDBRANCH  17  29
BRANCH  14  32
ATOM     31  O   UNL     1      27.993   0.004   4.690  0.00  0.00    +0.000 OA
ATOM     32  C   UNL     1      26.916  -0.549   4.511  0.00  0.00    +0.000 C 
BRANCH  32  33
ATOM     33  O   UNL     1      26.741  -1.816   4.948  0.00  0.00    +0.000 OA
ATOM     34  H   UNL     1      26.596  -2.349   4.136  0.00  0.00    +0.000 HD
ENDBRANCH  32  33
ENDBRANCH  14  32
BRANCH   9  35
ATOM     35  C   UNL     1      17.227  -1.646   6.650  0.00  0.00    +0.000 C 
BRANCH  35  36
ATOM     36  O   UNL     1      16.607  -1.141   5.580  0.00  0.00    +0.000 OA
ATOM     37  H   UNL     1      15.980  -0.439   5.836  0.00  0.00    +0.000 HD
ENDBRANCH  35  36
ENDBRANCH   9  35
TORSDOF 5
ENDMDL
MODEL 6
REMARK VINA RESULT:      -6.9     17.263     22.058
REMARK  Name = 73299_Hederagenin.pdbqt.pdb
REMARK  5 active torsions:
REMARK  status: ('A' for Active; 'I' for Inactive)
REMARK    1  A    between atoms: C_9  and  C_35
REMARK    2  A    between atoms: C_14  and  C_32
REMARK    3  A    between atoms: C_17  and  O_29
REMARK    4  A    between atoms: C_32  and  O_33
REMARK    5  A    between atoms: C_35  and  O_36
REMARK                            x       y       z     vdW  Elec       q    Type
REMARK                         _______ _______ _______ _____ _____    ______ ____
ROOT
ATOM      1  C   UNL     1      20.337  -1.252   6.295  0.00  0.00    +0.000 C 
ATOM      2  C   UNL     1      20.608  -2.314   7.441  0.00  0.00    +0.000 C 
ATOM      3  C   UNL     1      19.574  -2.683   8.511  0.00  0.00    +0.000 C 
ATOM      4  C   UNL     1      21.655  -0.292   6.007  0.00  0.00    +0.000 C 
ATOM      5  C   UNL     1      18.612  -1.555   8.985  0.00  0.00    +0.000 C 
ATOM      6  C   UNL     1      19.195  -0.458   6.762  0.00  0.00    +0.000 C 
ATOM      7  C   UNL     1      18.367  -0.558   8.000  0.00  0.00    +0.000 C 
ATOM      8  C   UNL     1      23.019  -1.158   5.838  0.00  0.00    +0.000 C 
ATOM      9  C   UNL     1      18.184  -1.376  10.451  0.00  0.00    +0.000 C 
ATOM     10  C   UNL     1      24.066  -0.896   4.826  0.00  0.00    +0.000 C 
ATOM     11  C   UNL     1      21.947  -2.816   7.409  0.00  0.00    +0.000 C 
ATOM     12  C   UNL     1      20.255  -3.134   9.721  0.00  0.00    +0.000 C 
ATOM     13  C   UNL     1      21.568   0.464   4.744  0.00  0.00    +0.000 C 
ATOM     14  C   UNL     1      23.745  -0.234   3.348  0.00  0.00    +0.000 C 
ATOM     15  C   UNL     1      19.931  -2.072   5.003  0.00  0.00    +0.000 C 
ATOM     16  C   UNL     1      22.511   0.520   3.565  0.00  0.00    +0.000 C 
ATOM     17  C   UNL     1      18.801  -2.322  11.516  0.00  0.00    +0.000 C 
ATOM     18  C   UNL     1      23.057  -2.220   6.591  0.00  0.00    +0.000 C 
ATOM     19  C   UNL     1      18.698  -3.827   7.940  0.00  0.00    +0.000 C 
ATOM     20  C   UNL     1      19.969  -3.031  11.181  0.00  0.00    +0.000 C 
ATOM     21  C   UNL     1      21.945   0.708   7.209  0.00  0.00    +0.000 C 
ATOM     22  C   UNL     1      25.440  -0.703   5.293  0.00  0.00    +0.000 C 
ATOM     23  C   UNL     1      24.955   0.577   3.045  0.00  0.00    +0.000 C 
ATOM     24  C   UNL     1      26.745   0.011   5.027  0.00  0.00    +0.000 C 
ATOM     25  C   UNL     1      16.628  -1.507  10.540  0.00  0.00    +0.000 C 
ATOM     26  C   UNL     1      26.325   0.697   3.763  0.00  0.00    +0.000 C 
ATOM     27  C   UNL     1      27.067   1.018   6.146  0.00  0.00    +0.000 C 
ATOM     28  C   UNL     1      27.893  -0.986   4.786  0.00  0.00    +0.000 C 
ENDROOT
BRANCH  17  29
ATOM     29  O   UNL     1      18.083  -2.706  12.636  0.00  0.00    +0.000 OA
ATOM     30  H   UNL     1      17.448  -2.007  12.899  0.00  0.00    +0.000 HD
ENDBRANCH  17  29
BRANCH  14  32
ATOM     31  O   UNL     1      24.059  -1.431   1.219  0.00  0.00    +0.000 OA
ATOM     32  C   UNL     1      23.592  -1.388   2.349  0.00  0.00    +0.000 C 
BRANCH  32  33
ATOM     33  O   UNL     1      22.804  -2.397   2.780  0.00  0.00    +0.000 OA
ATOM     34  H   UNL     1      22.118  -1.967   3.335  0.00  0.00    +0.000 HD
ENDBRANCH  32  33
ENDBRANCH  14  32
BRANCH   9  35
ATOM     35  C   UNL     1      18.588   0.002  10.875  0.00  0.00    +0.000 C 
BRANCH  35  36
ATOM     36  O   UNL     1      18.934   1.236  11.251  0.00  0.00    +0.000 OA
ATOM     37  H   UNL     1      18.154   1.749  11.533  0.00  0.00    +0.000 HD
ENDBRANCH  35  36
ENDBRANCH   9  35
TORSDOF 5
ENDMDL
MODEL 7
REMARK VINA RESULT:      -6.9     15.545     19.032
REMARK  Name = 73299_Hederagenin.pdbqt.pdb
REMARK  5 active torsions:
REMARK  status: ('A' for Active; 'I' for Inactive)
REMARK    1  A    between atoms: C_9  and  C_35
REMARK    2  A    between atoms: C_14  and  C_32
REMARK    3  A    between atoms: C_17  and  O_29
REMARK    4  A    between atoms: C_32  and  O_33
REMARK    5  A    between atoms: C_35  and  O_36
REMARK                            x       y       z     vdW  Elec       q    Type
REMARK                         _______ _______ _______ _____ _____    ______ ____
ROOT
ATOM      1  C   UNL     1      51.446 -16.725  13.749  0.00  0.00    +0.000 C 
ATOM      2  C   UNL     1      50.635 -15.577  14.483  0.00  0.00    +0.000 C 
ATOM      3  C   UNL     1      51.265 -14.254  14.933  0.00  0.00    +0.000 C 
ATOM      4  C   UNL     1      51.017 -18.233  14.282  0.00  0.00    +0.000 C 
ATOM      5  C   UNL     1      52.750 -14.298  15.397  0.00  0.00    +0.000 C 
ATOM      6  C   UNL     1      52.859 -16.445  14.031  0.00  0.00    +0.000 C 
ATOM      7  C   UNL     1      53.510 -15.338  14.791  0.00  0.00    +0.000 C 
ATOM      8  C   UNL     1      49.405 -18.437  14.314  0.00  0.00    +0.000 C 
ATOM      9  C   UNL     1      53.282 -13.488  16.591  0.00  0.00    +0.000 C 
ATOM     10  C   UNL     1      48.702 -19.665  13.883  0.00  0.00    +0.000 C 
ATOM     11  C   UNL     1      49.281 -15.955  14.749  0.00  0.00    +0.000 C 
ATOM     12  C   UNL     1      50.527 -13.718  16.073  0.00  0.00    +0.000 C 
ATOM     13  C   UNL     1      51.486 -19.323  13.406  0.00  0.00    +0.000 C 
ATOM     14  C   UNL     1      49.278 -20.668  12.705  0.00  0.00    +0.000 C 
ATOM     15  C   UNL     1      51.163 -16.562  12.200  0.00  0.00    +0.000 C 
ATOM     16  C   UNL     1      50.721 -20.432  12.723  0.00  0.00    +0.000 C 
ATOM     17  C   UNL     1      52.272 -12.644  17.413  0.00  0.00    +0.000 C 
ATOM     18  C   UNL     1      48.751 -17.355  14.623  0.00  0.00    +0.000 C 
ATOM     19  C   UNL     1      51.184 -13.267  13.740  0.00  0.00    +0.000 C 
ATOM     20  C   UNL     1      50.902 -12.932  17.285  0.00  0.00    +0.000 C 
ATOM     21  C   UNL     1      51.498 -18.503  15.774  0.00  0.00    +0.000 C 
ATOM     22  C   UNL     1      47.791 -20.304  14.833  0.00  0.00    +0.000 C 
ATOM     23  C   UNL     1      48.838 -22.022  13.137  0.00  0.00    +0.000 C 
ATOM     24  C   UNL     1      47.218 -21.623  15.297  0.00  0.00    +0.000 C 
ATOM     25  C   UNL     1      54.407 -12.527  16.082  0.00  0.00    +0.000 C 
ATOM     26  C   UNL     1      47.899 -22.487  14.281  0.00  0.00    +0.000 C 
ATOM     27  C   UNL     1      47.674 -21.955  16.730  0.00  0.00    +0.000 C 
ATOM     28  C   UNL     1      45.686 -21.656  15.146  0.00  0.00    +0.000 C 
ENDROOT
BRANCH  17  29
ATOM     29  O   UNL     1      52.652 -11.454  18.012  0.00  0.00    +0.000 OA
ATOM     30  H   UNL     1      52.165 -10.698  17.624  0.00  0.00    +0.000 HD
ENDBRANCH  17  29
BRANCH  14  32
ATOM     31  O   UNL     1      48.088 -21.025  10.579  0.00  0.00    +0.000 OA
ATOM     32  C   UNL     1      48.606 -20.266  11.387  0.00  0.00    +0.000 C 
BRANCH  32  33
ATOM     33  O   UNL     1      48.680 -18.946  11.103  0.00  0.00    +0.000 OA
ATOM     34  H   UNL     1      48.118 -18.508  11.778  0.00  0.00    +0.000 HD
ENDBRANCH  32  33
ENDBRANCH  14  32
BRANCH   9  35
ATOM     35  C   UNL     1      53.868 -14.457  17.570  0.00  0.00    +0.000 C 
BRANCH  35  36
ATOM     36  O   UNL     1      54.399 -15.312  18.449  0.00  0.00    +0.000 OA
ATOM     37  H   UNL     1      53.770 -15.514  19.166  0.00  0.00    +0.000 HD
ENDBRANCH  35  36
ENDBRANCH   9  35
TORSDOF 5
ENDMDL
MODEL 8
REMARK VINA RESULT:      -6.7     27.083     30.656
REMARK  Name = 73299_Hederagenin.pdbqt.pdb
REMARK  5 active torsions:
REMARK  status: ('A' for Active; 'I' for Inactive)
REMARK    1  A    between atoms: C_9  and  C_35
REMARK    2  A    between atoms: C_14  and  C_32
REMARK    3  A    between atoms: C_17  and  O_29
REMARK    4  A    between atoms: C_32  and  O_33
REMARK    5  A    between atoms: C_35  and  O_36
REMARK                            x       y       z     vdW  Elec       q    Type
REMARK                         _______ _______ _______ _____ _____    ______ ____
ROOT
ATOM      1  C   UNL     1      35.585 -16.361  36.305  0.00  0.00    +0.000 C 
ATOM      2  C   UNL     1      35.905 -14.809  36.248  0.00  0.00    +0.000 C 
ATOM      3  C   UNL     1      36.410 -14.007  37.452  0.00  0.00    +0.000 C 
ATOM      4  C   UNL     1      34.217 -16.749  35.455  0.00  0.00    +0.000 C 
ATOM      5  C   UNL     1      35.897 -14.438  38.856  0.00  0.00    +0.000 C 
ATOM      6  C   UNL     1      35.431 -16.674  37.730  0.00  0.00    +0.000 C 
ATOM      7  C   UNL     1      35.562 -15.818  38.945  0.00  0.00    +0.000 C 
ATOM      8  C   UNL     1      34.213 -16.097  33.967  0.00  0.00    +0.000 C 
ATOM      9  C   UNL     1      35.522 -13.435  39.959  0.00  0.00    +0.000 C 
ATOM     10  C   UNL     1      33.766 -16.794  32.742  0.00  0.00    +0.000 C 
ATOM     11  C   UNL     1      35.587 -14.237  34.975  0.00  0.00    +0.000 C 
ATOM     12  C   UNL     1      36.013 -12.609  37.316  0.00  0.00    +0.000 C 
ATOM     13  C   UNL     1      34.074 -18.195  35.199  0.00  0.00    +0.000 C 
ATOM     14  C   UNL     1      33.890 -18.427  32.537  0.00  0.00    +0.000 C 
ATOM     15  C   UNL     1      36.853 -17.108  35.722  0.00  0.00    +0.000 C 
ATOM     16  C   UNL     1      33.897 -18.950  33.903  0.00  0.00    +0.000 C 
ATOM     17  C   UNL     1      35.591 -11.920  39.627  0.00  0.00    +0.000 C 
ATOM     18  C   UNL     1      34.784 -14.929  33.911  0.00  0.00    +0.000 C 
ATOM     19  C   UNL     1      37.956 -14.116  37.472  0.00  0.00    +0.000 C 
ATOM     20  C   UNL     1      35.623 -11.535  38.275  0.00  0.00    +0.000 C 
ATOM     21  C   UNL     1      32.899 -16.198  36.153  0.00  0.00    +0.000 C 
ATOM     22  C   UNL     1      32.728 -16.158  31.929  0.00  0.00    +0.000 C 
ATOM     23  C   UNL     1      32.702 -18.780  31.714  0.00  0.00    +0.000 C 
ATOM     24  C   UNL     1      31.553 -16.406  31.012  0.00  0.00    +0.000 C 
ATOM     25  C   UNL     1      36.434 -13.694  41.204  0.00  0.00    +0.000 C 
ATOM     26  C   UNL     1      31.644 -17.902  30.998  0.00  0.00    +0.000 C 
ATOM     27  C   UNL     1      30.239 -15.918  31.648  0.00  0.00    +0.000 C 
ATOM     28  C   UNL     1      31.790 -15.802  29.617  0.00  0.00    +0.000 C 
ENDROOT
BRANCH  17  29
ATOM     29  O   UNL     1      35.922 -10.988  40.597  0.00  0.00    +0.000 OA
ATOM     30  H   UNL     1      36.895 -10.905  40.682  0.00  0.00    +0.000 HD
ENDBRANCH  17  29
BRANCH  14  32
ATOM     31  O   UNL     1      35.919 -19.673  31.906  0.00  0.00    +0.000 OA
ATOM     32  C   UNL     1      35.190 -18.699  31.770  0.00  0.00    +0.000 C 
BRANCH  32  33
ATOM     33  O   UNL     1      35.557 -17.710  30.926  0.00  0.00    +0.000 OA
ATOM     34  H   UNL     1      35.944 -17.014  31.500  0.00  0.00    +0.000 HD
ENDBRANCH  32  33
ENDBRANCH  14  32
BRANCH   9  35
ATOM     35  C   UNL     1      34.094 -13.686  40.333  0.00  0.00    +0.000 C 
BRANCH  35  36
ATOM     36  O   UNL     1      32.823 -13.925  40.669  0.00  0.00    +0.000 OA
ATOM     37  H   UNL     1      32.422 -14.587  40.076  0.00  0.00    +0.000 HD
ENDBRANCH  35  36
ENDBRANCH   9  35
TORSDOF 5
ENDMDL
MODEL 9
REMARK VINA RESULT:      -6.7     27.039     29.613
REMARK  Name = 73299_Hederagenin.pdbqt.pdb
REMARK  5 active torsions:
REMARK  status: ('A' for Active; 'I' for Inactive)
REMARK    1  A    between atoms: C_9  and  C_35
REMARK    2  A    between atoms: C_14  and  C_32
REMARK    3  A    between atoms: C_17  and  O_29
REMARK    4  A    between atoms: C_32  and  O_33
REMARK    5  A    between atoms: C_35  and  O_36
REMARK                            x       y       z     vdW  Elec       q    Type
REMARK                         _______ _______ _______ _____ _____    ______ ____
ROOT
ATOM      1  C   UNL     1      19.208  11.350  20.788  0.00  0.00    +0.000 C 
ATOM      2  C   UNL     1      17.760  10.845  20.384  0.00  0.00    +0.000 C 
ATOM      3  C   UNL     1      17.187   9.492  20.818  0.00  0.00    +0.000 C 
ATOM      4  C   UNL     1      19.974  12.121  19.538  0.00  0.00    +0.000 C 
ATOM      5  C   UNL     1      18.190   8.311  20.962  0.00  0.00    +0.000 C 
ATOM      6  C   UNL     1      19.940  10.145  21.196  0.00  0.00    +0.000 C 
ATOM      7  C   UNL     1      19.513   8.718  21.289  0.00  0.00    +0.000 C 
ATOM      8  C   UNL     1      19.026  13.235  18.832  0.00  0.00    +0.000 C 
ATOM      9  C   UNL     1      17.864   6.872  20.526  0.00  0.00    +0.000 C 
ATOM     10  C   UNL     1      19.478  14.575  18.397  0.00  0.00    +0.000 C 
ATOM     11  C   UNL     1      17.095  11.756  19.504  0.00  0.00    +0.000 C 
ATOM     12  C   UNL     1      16.202   9.036  19.841  0.00  0.00    +0.000 C 
ATOM     13  C   UNL     1      21.158  12.892  19.959  0.00  0.00    +0.000 C 
ATOM     14  C   UNL     1      20.696  15.401  19.143  0.00  0.00    +0.000 C 
ATOM     15  C   UNL     1      19.023  12.315  22.030  0.00  0.00    +0.000 C 
ATOM     16  C   UNL     1      21.503  14.349  19.761  0.00  0.00    +0.000 C 
ATOM     17  C   UNL     1      16.496   6.605  19.844  0.00  0.00    +0.000 C 
ATOM     18  C   UNL     1      17.767  12.905  18.806  0.00  0.00    +0.000 C 
ATOM     19  C   UNL     1      16.508   9.691  22.197  0.00  0.00    +0.000 C 
ATOM     20  C   UNL     1      15.786   7.701  19.322  0.00  0.00    +0.000 C 
ATOM     21  C   UNL     1      20.377  11.119  18.371  0.00  0.00    +0.000 C 
ATOM     22  C   UNL     1      19.249  14.957  17.003  0.00  0.00    +0.000 C 
ATOM     23  C   UNL     1      21.350  16.155  18.039  0.00  0.00    +0.000 C 
ATOM     24  C   UNL     1      19.784  15.759  15.839  0.00  0.00    +0.000 C 
ATOM     25  C   UNL     1      17.968   5.934  21.774  0.00  0.00    +0.000 C 
ATOM     26  C   UNL     1      20.960  16.355  16.552  0.00  0.00    +0.000 C 
ATOM     27  C   UNL     1      20.220  14.839  14.684  0.00  0.00    +0.000 C 
ATOM     28  C   UNL     1      18.781  16.835  15.387  0.00  0.00    +0.000 C 
ENDROOT
BRANCH  17  29
ATOM     29  O   UNL     1      15.837   5.398  20.006  0.00  0.00    +0.000 OA
ATOM     30  H   UNL     1      14.921   5.540  20.324  0.00  0.00    +0.000 HD
ENDBRANCH  17  29
BRANCH  14  32
ATOM     31  O   UNL     1      19.515  16.039  21.208  0.00  0.00    +0.000 OA
ATOM     32  C   UNL     1      20.054  16.357  20.156  0.00  0.00    +0.000 C 
BRANCH  32  33
ATOM     33  O   UNL     1      20.048  17.653  19.773  0.00  0.00    +0.000 OA
ATOM     34  H   UNL     1      19.177  17.788  19.341  0.00  0.00    +0.000 HD
ENDBRANCH  32  33
ENDBRANCH  14  32
BRANCH   9  35
ATOM     35  C   UNL     1      18.889   6.463  19.515  0.00  0.00    +0.000 C 
BRANCH  35  36
ATOM     36  O   UNL     1      19.814   6.096  18.624  0.00  0.00    +0.000 OA
ATOM     37  H   UNL     1      19.920   6.772  17.929  0.00  0.00    +0.000 HD
ENDBRANCH  35  36
ENDBRANCH   9  35
TORSDOF 5
ENDMDL
