MODEL 1
REMARK VINA RESULT:      -8.1      0.000      0.000
REMARK  Name = 73659_MaslinicAcid.pdbqt.pdb
REMARK  4 active torsions:
REMARK  status: ('A' for Active; 'I' for Inactive)
REMARK    1  A    between atoms: C_14  and  C_35
REMARK    2  A    between atoms: C_17  and  O_30
REMARK    3  A    between atoms: C_19  and  O_32
REMARK    4  A    between atoms: C_35  and  O_36
REMARK                            x       y       z     vdW  Elec       q    Type
REMARK                         _______ _______ _______ _____ _____    ______ ____
ROOT
ATOM      1  C   UNL     1      43.801 -14.955  -4.324  0.00  0.00    +0.000 C 
ATOM      2  C   UNL     1      43.625 -14.588  -2.788  0.00  0.00    +0.000 C 
ATOM      3  C   UNL     1      42.680 -15.338  -1.844  0.00  0.00    +0.000 C 
ATOM      4  C   UNL     1      43.930 -13.609  -5.279  0.00  0.00    +0.000 C 
ATOM      5  C   UNL     1      41.394 -15.913  -2.447  0.00  0.00    +0.000 C 
ATOM      6  C   UNL     1      42.612 -15.743  -4.668  0.00  0.00    +0.000 C 
ATOM      7  C   UNL     1      41.467 -16.214  -3.834  0.00  0.00    +0.000 C 
ATOM      8  C   UNL     1      45.014 -12.548  -4.696  0.00  0.00    +0.000 C 
ATOM      9  C   UNL     1      40.126 -15.984  -1.609  0.00  0.00    +0.000 C 
ATOM     10  C   UNL     1      46.002 -11.813  -5.515  0.00  0.00    +0.000 C 
ATOM     11  C   UNL     1      44.388 -13.436  -2.417  0.00  0.00    +0.000 C 
ATOM     12  C   UNL     1      42.208 -14.441  -0.802  0.00  0.00    +0.000 C 
ATOM     13  C   UNL     1      44.425 -13.899  -6.637  0.00  0.00    +0.000 C 
ATOM     14  C   UNL     1      46.636 -12.413  -6.917  0.00  0.00    +0.000 C 
ATOM     15  C   UNL     1      45.094 -15.862  -4.426  0.00  0.00    +0.000 C 
ATOM     16  C   UNL     1      45.614 -13.348  -7.389  0.00  0.00    +0.000 C 
ATOM     17  C   UNL     1      40.030 -15.112  -0.331  0.00  0.00    +0.000 C 
ATOM     18  C   UNL     1      43.475 -16.511  -1.223  0.00  0.00    +0.000 C 
ATOM     19  C   UNL     1      41.081 -14.202  -0.022  0.00  0.00    +0.000 C 
ATOM     20  C   UNL     1      45.052 -12.508  -3.394  0.00  0.00    +0.000 C 
ATOM     21  C   UNL     1      42.563 -12.804  -5.365  0.00  0.00    +0.000 C 
ATOM     22  C   UNL     1      46.038 -10.355  -5.408  0.00  0.00    +0.000 C 
ATOM     23  C   UNL     1      46.851 -11.207  -7.760  0.00  0.00    +0.000 C 
ATOM     24  C   UNL     1      46.317  -9.068  -6.152  0.00  0.00    +0.000 C 
ATOM     25  C   UNL     1      38.919 -15.507  -2.491  0.00  0.00    +0.000 C 
ATOM     26  C   UNL     1      39.872 -17.459  -1.185  0.00  0.00    +0.000 C 
ATOM     27  C   UNL     1      46.738  -9.693  -7.447  0.00  0.00    +0.000 C 
ATOM     28  C   UNL     1      47.462  -8.275  -5.496  0.00  0.00    +0.000 C 
ATOM     29  C   UNL     1      45.035  -8.230  -6.311  0.00  0.00    +0.000 C 
ENDROOT
BRANCH  17  30
ATOM     30  O   UNL     1      38.969 -15.176   0.569  0.00  0.00    +0.000 OA
ATOM     31  H   UNL     1      39.145 -15.831   1.276  0.00  0.00    +0.000 HD
ENDBRANCH  17  30
BRANCH  19  32
ATOM     32  O   UNL     1      41.118 -13.560   1.178  0.00  0.00    +0.000 OA
ATOM     33  H   UNL     1      41.349 -14.177   1.900  0.00  0.00    +0.000 HD
ENDBRANCH  19  32
BRANCH  14  35
ATOM     34  O   UNL     1      48.611 -13.836  -7.299  0.00  0.00    +0.000 OA
ATOM     35  C   UNL     1      47.968 -13.090  -6.572  0.00  0.00    +0.000 C 
BRANCH  35  36
ATOM     36  O   UNL     1      48.396 -12.862  -5.310  0.00  0.00    +0.000 OA
ATOM     37  H   UNL     1      48.015 -13.593  -4.776  0.00  0.00    +0.000 HD
ENDBRANCH  35  36
ENDBRANCH  14  35
TORSDOF 4
ENDMDL
MODEL 2
REMARK VINA RESULT:      -7.9     17.190     19.494
REMARK  Name = 73659_MaslinicAcid.pdbqt.pdb
REMARK  4 active torsions:
REMARK  status: ('A' for Active; 'I' for Inactive)
REMARK    1  A    between atoms: C_14  and  C_35
REMARK    2  A    between atoms: C_17  and  O_30
REMARK    3  A    between atoms: C_19  and  O_32
REMARK    4  A    between atoms: C_35  and  O_36
REMARK                            x       y       z     vdW  Elec       q    Type
REMARK                         _______ _______ _______ _____ _____    ______ ____
ROOT
ATOM      1  C   UNL     1      43.030  -0.204   9.820  0.00  0.00    +0.000 C 
ATOM      2  C   UNL     1      41.717  -0.980   9.373  0.00  0.00    +0.000 C 
ATOM      3  C   UNL     1      40.360  -0.297   9.174  0.00  0.00    +0.000 C 
ATOM      4  C   UNL     1      43.932  -1.073  10.902  0.00  0.00    +0.000 C 
ATOM      5  C   UNL     1      40.039   0.906  10.069  0.00  0.00    +0.000 C 
ATOM      6  C   UNL     1      42.551   1.052  10.409  0.00  0.00    +0.000 C 
ATOM      7  C   UNL     1      41.175   1.613  10.548  0.00  0.00    +0.000 C 
ATOM      8  C   UNL     1      44.170  -2.603  10.411  0.00  0.00    +0.000 C 
ATOM      9  C   UNL     1      38.605   1.173  10.500  0.00  0.00    +0.000 C 
ATOM     10  C   UNL     1      45.452  -3.334  10.510  0.00  0.00    +0.000 C 
ATOM     11  C   UNL     1      41.935  -2.389   9.257  0.00  0.00    +0.000 C 
ATOM     12  C   UNL     1      39.287  -1.237   9.453  0.00  0.00    +0.000 C 
ATOM     13  C   UNL     1      45.299  -0.550  11.079  0.00  0.00    +0.000 C 
ATOM     14  C   UNL     1      46.923  -2.585  10.451  0.00  0.00    +0.000 C 
ATOM     15  C   UNL     1      43.846   0.099   8.499  0.00  0.00    +0.000 C 
ATOM     16  C   UNL     1      46.640  -1.225  10.910  0.00  0.00    +0.000 C 
ATOM     17  C   UNL     1      37.570   0.025  10.388  0.00  0.00    +0.000 C 
ATOM     18  C   UNL     1      40.288   0.178   7.704  0.00  0.00    +0.000 C 
ATOM     19  C   UNL     1      37.999  -1.269   9.976  0.00  0.00    +0.000 C 
ATOM     20  C   UNL     1      43.156  -3.102   9.761  0.00  0.00    +0.000 C 
ATOM     21  C   UNL     1      43.216  -1.196  12.315  0.00  0.00    +0.000 C 
ATOM     22  C   UNL     1      45.457  -4.628  11.190  0.00  0.00    +0.000 C 
ATOM     23  C   UNL     1      47.781  -3.407  11.345  0.00  0.00    +0.000 C 
ATOM     24  C   UNL     1      46.278  -5.578  12.033  0.00  0.00    +0.000 C 
ATOM     25  C   UNL     1      38.605   1.542  12.025  0.00  0.00    +0.000 C 
ATOM     26  C   UNL     1      38.045   2.384   9.700  0.00  0.00    +0.000 C 
ATOM     27  C   UNL     1      47.535  -4.763  12.056  0.00  0.00    +0.000 C 
ATOM     28  C   UNL     1      46.482  -6.929  11.324  0.00  0.00    +0.000 C 
ATOM     29  C   UNL     1      45.673  -5.737  13.440  0.00  0.00    +0.000 C 
ENDROOT
BRANCH  17  30
ATOM     30  O   UNL     1      36.211   0.183  10.648  0.00  0.00    +0.000 OA
ATOM     31  H   UNL     1      35.975  -0.178  11.528  0.00  0.00    +0.000 HD
ENDBRANCH  17  30
BRANCH  19  32
ATOM     32  O   UNL     1      37.094  -2.246   9.690  0.00  0.00    +0.000 OA
ATOM     33  H   UNL     1      36.581  -2.493  10.484  0.00  0.00    +0.000 HD
ENDBRANCH  19  32
BRANCH  14  35
ATOM     34  O   UNL     1      46.901  -2.103   8.035  0.00  0.00    +0.000 OA
ATOM     35  C   UNL     1      47.417  -2.648   9.001  0.00  0.00    +0.000 C 
BRANCH  35  36
ATOM     36  O   UNL     1      48.491  -3.449   8.815  0.00  0.00    +0.000 OA
ATOM     37  H   UNL     1      49.091  -2.938   8.229  0.00  0.00    +0.000 HD
ENDBRANCH  35  36
ENDBRANCH  14  35
TORSDOF 4
ENDMDL
MODEL 3
REMARK VINA RESULT:      -7.6     17.175     19.684
REMARK  Name = 73659_MaslinicAcid.pdbqt.pdb
REMARK  4 active torsions:
REMARK  status: ('A' for Active; 'I' for Inactive)
REMARK    1  A    between atoms: C_14  and  C_35
REMARK    2  A    between atoms: C_17  and  O_30
REMARK    3  A    between atoms: C_19  and  O_32
REMARK    4  A    between atoms: C_35  and  O_36
REMARK                            x       y       z     vdW  Elec       q    Type
REMARK                         _______ _______ _______ _____ _____    ______ ____
ROOT
ATOM      1  C   UNL     1      42.301   0.111   9.238  0.00  0.00    +0.000 C 
ATOM      2  C   UNL     1      41.044  -0.545   9.954  0.00  0.00    +0.000 C 
ATOM      3  C   UNL     1      39.779   0.237  10.321  0.00  0.00    +0.000 C 
ATOM      4  C   UNL     1      43.733  -0.456   9.844  0.00  0.00    +0.000 C 
ATOM      5  C   UNL     1      39.948   1.714  10.698  0.00  0.00    +0.000 C 
ATOM      6  C   UNL     1      42.159   1.554   9.461  0.00  0.00    +0.000 C 
ATOM      7  C   UNL     1      41.087   2.347  10.132  0.00  0.00    +0.000 C 
ATOM      8  C   UNL     1      43.760  -2.078   9.934  0.00  0.00    +0.000 C 
ATOM      9  C   UNL     1      39.024   2.347  11.726  0.00  0.00    +0.000 C 
ATOM     10  C   UNL     1      44.910  -2.927   9.554  0.00  0.00    +0.000 C 
ATOM     11  C   UNL     1      41.264  -1.920  10.282  0.00  0.00    +0.000 C 
ATOM     12  C   UNL     1      39.154  -0.354  11.493  0.00  0.00    +0.000 C 
ATOM     13  C   UNL     1      44.896  -0.137   8.996  0.00  0.00    +0.000 C 
ATOM     14  C   UNL     1      46.000  -2.501   8.389  0.00  0.00    +0.000 C 
ATOM     15  C   UNL     1      42.159  -0.211   7.695  0.00  0.00    +0.000 C 
ATOM     16  C   UNL     1      45.932  -1.040   8.366  0.00  0.00    +0.000 C 
ATOM     17  C   UNL     1      38.217   1.421  12.671  0.00  0.00    +0.000 C 
ATOM     18  C   UNL     1      38.819   0.168   9.109  0.00  0.00    +0.000 C 
ATOM     19  C   UNL     1      38.425   0.013  12.619  0.00  0.00    +0.000 C 
ATOM     20  C   UNL     1      42.602  -2.600  10.226  0.00  0.00    +0.000 C 
ATOM     21  C   UNL     1      43.995   0.047  11.328  0.00  0.00    +0.000 C 
ATOM     22  C   UNL     1      45.417  -3.880  10.540  0.00  0.00    +0.000 C 
ATOM     23  C   UNL     1      47.283  -3.084   8.865  0.00  0.00    +0.000 C 
ATOM     24  C   UNL     1      46.650  -4.593  11.049  0.00  0.00    +0.000 C 
ATOM     25  C   UNL     1      39.888   3.226  12.697  0.00  0.00    +0.000 C 
ATOM     26  C   UNL     1      38.006   3.273  11.001  0.00  0.00    +0.000 C 
ATOM     27  C   UNL     1      47.611  -4.041  10.040  0.00  0.00    +0.000 C 
ATOM     28  C   UNL     1      46.507  -6.121  10.930  0.00  0.00    +0.000 C 
ATOM     29  C   UNL     1      47.002  -4.144  12.479  0.00  0.00    +0.000 C 
ENDROOT
BRANCH  17  30
ATOM     30  O   UNL     1      37.261   1.883  13.573  0.00  0.00    +0.000 OA
ATOM     31  H   UNL     1      36.884   2.739  13.281  0.00  0.00    +0.000 HD
ENDBRANCH  17  30
BRANCH  19  32
ATOM     32  O   UNL     1      37.607  -0.838  13.298  0.00  0.00    +0.000 OA
ATOM     33  H   UNL     1      38.102  -1.614  13.626  0.00  0.00    +0.000 HD
ENDBRANCH  19  32
BRANCH  14  35
ATOM     34  O   UNL     1      46.200  -3.942   6.401  0.00  0.00    +0.000 OA
ATOM     35  C   UNL     1      45.553  -3.152   7.075  0.00  0.00    +0.000 C 
BRANCH  35  36
ATOM     36  O   UNL     1      44.349  -2.729   6.627  0.00  0.00    +0.000 OA
ATOM     37  H   UNL     1      44.539  -2.270   5.780  0.00  0.00    +0.000 HD
ENDBRANCH  35  36
ENDBRANCH  14  35
TORSDOF 4
ENDMDL
MODEL 4
REMARK VINA RESULT:      -7.6     24.330     27.693
REMARK  Name = 73659_MaslinicAcid.pdbqt.pdb
REMARK  4 active torsions:
REMARK  status: ('A' for Active; 'I' for Inactive)
REMARK    1  A    between atoms: C_14  and  C_35
REMARK    2  A    between atoms: C_17  and  O_30
REMARK    3  A    between atoms: C_19  and  O_32
REMARK    4  A    between atoms: C_35  and  O_36
REMARK                            x       y       z     vdW  Elec       q    Type
REMARK                         _______ _______ _______ _____ _____    ______ ____
ROOT
ATOM      1  C   UNL     1      20.476  -0.847   6.076  0.00  0.00    +0.000 C 
ATOM      2  C   UNL     1      20.664  -1.876   7.272  0.00  0.00    +0.000 C 
ATOM      3  C   UNL     1      19.585  -2.154   8.323  0.00  0.00    +0.000 C 
ATOM      4  C   UNL     1      21.848   0.031   5.783  0.00  0.00    +0.000 C 
ATOM      5  C   UNL     1      18.658  -0.995   8.704  0.00  0.00    +0.000 C 
ATOM      6  C   UNL     1      19.364   0.018   6.486  0.00  0.00    +0.000 C 
ATOM      7  C   UNL     1      18.489  -0.009   7.695  0.00  0.00    +0.000 C 
ATOM      8  C   UNL     1      23.167  -0.912   5.679  0.00  0.00    +0.000 C 
ATOM      9  C   UNL     1      18.119  -0.887  10.123  0.00  0.00    +0.000 C 
ATOM     10  C   UNL     1      24.238  -0.759   4.670  0.00  0.00    +0.000 C 
ATOM     11  C   UNL     1      21.977  -2.445   7.294  0.00  0.00    +0.000 C 
ATOM     12  C   UNL     1      20.207  -2.535   9.581  0.00  0.00    +0.000 C 
ATOM     13  C   UNL     1      21.826   0.740   4.491  0.00  0.00    +0.000 C 
ATOM     14  C   UNL     1      23.973  -0.150   3.159  0.00  0.00    +0.000 C 
ATOM     15  C   UNL     1      20.054  -1.699   4.810  0.00  0.00    +0.000 C 
ATOM     16  C   UNL     1      22.786   0.689   3.324  0.00  0.00    +0.000 C 
ATOM     17  C   UNL     1      18.826  -1.682  11.249  0.00  0.00    +0.000 C 
ATOM     18  C   UNL     1      18.702  -3.308   7.791  0.00  0.00    +0.000 C 
ATOM     19  C   UNL     1      20.010  -2.417  10.953  0.00  0.00    +0.000 C 
ATOM     20  C   UNL     1      23.133  -1.941   6.478  0.00  0.00    +0.000 C 
ATOM     21  C   UNL     1      22.162   1.058   6.954  0.00  0.00    +0.000 C 
ATOM     22  C   UNL     1      25.616  -0.632   5.143  0.00  0.00    +0.000 C 
ATOM     23  C   UNL     1      25.234   0.566   2.832  0.00  0.00    +0.000 C 
ATOM     24  C   UNL     1      26.968  -0.018   4.857  0.00  0.00    +0.000 C 
ATOM     25  C   UNL     1      18.228   0.609  10.583  0.00  0.00    +0.000 C 
ATOM     26  C   UNL     1      16.619  -1.297  10.135  0.00  0.00    +0.000 C 
ATOM     27  C   UNL     1      26.603   0.633   3.557  0.00  0.00    +0.000 C 
ATOM     28  C   UNL     1      28.050  -1.098   4.675  0.00  0.00    +0.000 C 
ATOM     29  C   UNL     1      27.346   1.019   5.930  0.00  0.00    +0.000 C 
ENDROOT
BRANCH  17  30
ATOM     30  O   UNL     1      18.358  -1.747  12.560  0.00  0.00    +0.000 OA
ATOM     31  H   UNL     1      17.417  -2.020  12.585  0.00  0.00    +0.000 HD
ENDBRANCH  17  30
BRANCH  19  32
ATOM     32  O   UNL     1      20.549  -3.271  11.867  0.00  0.00    +0.000 OA
ATOM     33  H   UNL     1      20.305  -3.010  12.777  0.00  0.00    +0.000 HD
ENDBRANCH  19  32
BRANCH  14  35
ATOM     34  O   UNL     1      24.183  -1.444   1.072  0.00  0.00    +0.000 OA
ATOM     35  C   UNL     1      23.752  -1.337   2.213  0.00  0.00    +0.000 C 
BRANCH  35  36
ATOM     36  O   UNL     1      22.942  -2.299   2.709  0.00  0.00    +0.000 OA
ATOM     37  H   UNL     1      22.056  -2.106   2.332  0.00  0.00    +0.000 HD
ENDBRANCH  35  36
ENDBRANCH  14  35
TORSDOF 4
ENDMDL
MODEL 5
REMARK VINA RESULT:      -7.5     16.537     19.164
REMARK  Name = 73659_MaslinicAcid.pdbqt.pdb
REMARK  4 active torsions:
REMARK  status: ('A' for Active; 'I' for Inactive)
REMARK    1  A    between atoms: C_14  and  C_35
REMARK    2  A    between atoms: C_17  and  O_30
REMARK    3  A    between atoms: C_19  and  O_32
REMARK    4  A    between atoms: C_35  and  O_36
REMARK                            x       y       z     vdW  Elec       q    Type
REMARK                         _______ _______ _______ _____ _____    ______ ____
ROOT
ATOM      1  C   UNL     1      42.954  -1.319  11.015  0.00  0.00    +0.000 C 
ATOM      2  C   UNL     1      43.061  -0.185   9.907  0.00  0.00    +0.000 C 
ATOM      3  C   UNL     1      41.959   0.847   9.647  0.00  0.00    +0.000 C 
ATOM      4  C   UNL     1      43.569  -2.764  10.493  0.00  0.00    +0.000 C 
ATOM      5  C   UNL     1      40.510   0.401   9.873  0.00  0.00    +0.000 C 
ATOM      6  C   UNL     1      41.523  -1.424  11.318  0.00  0.00    +0.000 C 
ATOM      7  C   UNL     1      40.349  -0.650  10.815  0.00  0.00    +0.000 C 
ATOM      8  C   UNL     1      45.038  -2.596   9.819  0.00  0.00    +0.000 C 
ATOM      9  C   UNL     1      39.395   0.971   9.010  0.00  0.00    +0.000 C 
ATOM     10  C   UNL     1      46.182  -3.505  10.048  0.00  0.00    +0.000 C 
ATOM     11  C   UNL     1      44.263  -0.292   9.139  0.00  0.00    +0.000 C 
ATOM     12  C   UNL     1      41.986   1.257   8.252  0.00  0.00    +0.000 C 
ATOM     13  C   UNL     1      43.796  -3.732  11.582  0.00  0.00    +0.000 C 
ATOM     14  C   UNL     1      46.401  -4.344  11.453  0.00  0.00    +0.000 C 
ATOM     15  C   UNL     1      43.734  -0.784  12.284  0.00  0.00    +0.000 C 
ATOM     16  C   UNL     1      45.050  -4.466  12.000  0.00  0.00    +0.000 C 
ATOM     17  C   UNL     1      39.768   1.654   7.669  0.00  0.00    +0.000 C 
ATOM     18  C   UNL     1      42.228   2.060  10.568  0.00  0.00    +0.000 C 
ATOM     19  C   UNL     1      41.124   1.652   7.234  0.00  0.00    +0.000 C 
ATOM     20  C   UNL     1      45.183  -1.478   9.165  0.00  0.00    +0.000 C 
ATOM     21  C   UNL     1      42.667  -3.425   9.365  0.00  0.00    +0.000 C 
ATOM     22  C   UNL     1      46.836  -4.095   8.881  0.00  0.00    +0.000 C 
ATOM     23  C   UNL     1      47.043  -5.613  11.019  0.00  0.00    +0.000 C 
ATOM     24  C   UNL     1      47.577  -5.307   8.361  0.00  0.00    +0.000 C 
ATOM     25  C   UNL     1      38.441  -0.202   8.590  0.00  0.00    +0.000 C 
ATOM     26  C   UNL     1      38.574   1.998   9.842  0.00  0.00    +0.000 C 
ATOM     27  C   UNL     1      47.602  -6.074   9.648  0.00  0.00    +0.000 C 
ATOM     28  C   UNL     1      48.993  -4.940   7.883  0.00  0.00    +0.000 C 
ATOM     29  C   UNL     1      46.761  -6.035   7.277  0.00  0.00    +0.000 C 
ENDROOT
BRANCH  17  30
ATOM     30  O   UNL     1      38.847   2.307   6.853  0.00  0.00    +0.000 OA
ATOM     31  H   UNL     1      37.932   2.177   7.179  0.00  0.00    +0.000 HD
ENDBRANCH  17  30
BRANCH  19  32
ATOM     32  O   UNL     1      41.514   2.396   6.163  0.00  0.00    +0.000 OA
ATOM     33  H   UNL     1      41.272   1.959   5.324  0.00  0.00    +0.000 HD
ENDBRANCH  19  32
BRANCH  14  35
ATOM     34  O   UNL     1      48.549  -3.697  12.472  0.00  0.00    +0.000 OA
ATOM     35  C   UNL     1      47.345  -3.524  12.341  0.00  0.00    +0.000 C 
BRANCH  35  36
ATOM     36  O   UNL     1      46.727  -2.574  13.079  0.00  0.00    +0.000 OA
ATOM     37  H   UNL     1      47.345  -2.385  13.819  0.00  0.00    +0.000 HD
ENDBRANCH  35  36
ENDBRANCH  14  35
TORSDOF 4
ENDMDL
MODEL 6
REMARK VINA RESULT:      -7.5     39.264     42.244
REMARK  Name = 73659_MaslinicAcid.pdbqt.pdb
REMARK  4 active torsions:
REMARK  status: ('A' for Active; 'I' for Inactive)
REMARK    1  A    between atoms: C_14  and  C_35
REMARK    2  A    between atoms: C_17  and  O_30
REMARK    3  A    between atoms: C_19  and  O_32
REMARK    4  A    between atoms: C_35  and  O_36
REMARK                            x       y       z     vdW  Elec       q    Type
REMARK                         _______ _______ _______ _____ _____    ______ ____
ROOT
ATOM      1  C   UNL     1      51.533  -0.173  36.209  0.00  0.00    +0.000 C 
ATOM      2  C   UNL     1      50.168  -0.895  36.583  0.00  0.00    +0.000 C 
ATOM      3  C   UNL     1      50.097  -2.250  37.294  0.00  0.00    +0.000 C 
ATOM      4  C   UNL     1      51.472   0.549  34.722  0.00  0.00    +0.000 C 
ATOM      5  C   UNL     1      51.217  -3.256  37.006  0.00  0.00    +0.000 C 
ATOM      6  C   UNL     1      52.549  -1.231  36.249  0.00  0.00    +0.000 C 
ATOM      7  C   UNL     1      52.453  -2.676  36.612  0.00  0.00    +0.000 C 
ATOM      8  C   UNL     1      50.139   1.460  34.538  0.00  0.00    +0.000 C 
ATOM      9  C   UNL     1      50.919  -4.748  37.005  0.00  0.00    +0.000 C 
ATOM     10  C   UNL     1      50.110   2.801  33.914  0.00  0.00    +0.000 C 
ATOM     11  C   UNL     1      49.027  -0.172  36.111  0.00  0.00    +0.000 C 
ATOM     12  C   UNL     1      48.886  -2.952  36.902  0.00  0.00    +0.000 C 
ATOM     13  C   UNL     1      52.575   1.498  34.485  0.00  0.00    +0.000 C 
ATOM     14  C   UNL     1      51.391   3.842  33.956  0.00  0.00    +0.000 C 
ATOM     15  C   UNL     1      51.813   0.883  37.354  0.00  0.00    +0.000 C 
ATOM     16  C   UNL     1      52.550   2.963  34.113  0.00  0.00    +0.000 C 
ATOM     17  C   UNL     1      49.445  -5.211  36.880  0.00  0.00    +0.000 C 
ATOM     18  C   UNL     1      50.090  -1.978  38.817  0.00  0.00    +0.000 C 
ATOM     19  C   UNL     1      48.420  -4.243  36.676  0.00  0.00    +0.000 C 
ATOM     20  C   UNL     1      49.091   0.972  35.140  0.00  0.00    +0.000 C 
ATOM     21  C   UNL     1      51.415  -0.514  33.542  0.00  0.00    +0.000 C 
ATOM     22  C   UNL     1      49.180   3.026  32.809  0.00  0.00    +0.000 C 
ATOM     23  C   UNL     1      51.302   4.574  32.664  0.00  0.00    +0.000 C 
ATOM     24  C   UNL     1      48.951   3.788  31.523  0.00  0.00    +0.000 C 
ATOM     25  C   UNL     1      51.632  -5.397  35.768  0.00  0.00    +0.000 C 
ATOM     26  C   UNL     1      51.499  -5.388  38.299  0.00  0.00    +0.000 C 
ATOM     27  C   UNL     1      50.216   4.592  31.558  0.00  0.00    +0.000 C 
ATOM     28  C   UNL     1      47.700   4.681  31.611  0.00  0.00    +0.000 C 
ATOM     29  C   UNL     1      48.912   2.837  30.313  0.00  0.00    +0.000 C 
ENDROOT
BRANCH  17  30
ATOM     30  O   UNL     1      49.043  -6.541  36.978  0.00  0.00    +0.000 OA
ATOM     31  H   UNL     1      48.739  -6.752  37.886  0.00  0.00    +0.000 HD
ENDBRANCH  17  30
BRANCH  19  32
ATOM     32  O   UNL     1      47.106  -4.593  36.746  0.00  0.00    +0.000 OA
ATOM     33  H   UNL     1      46.531  -3.857  36.460  0.00  0.00    +0.000 HD
ENDBRANCH  19  32
BRANCH  14  35
ATOM     34  O   UNL     1      50.774   4.480  36.254  0.00  0.00    +0.000 OA
ATOM     35  C   UNL     1      51.181   4.790  35.142  0.00  0.00    +0.000 C 
BRANCH  35  36
ATOM     36  O   UNL     1      51.418   6.091  34.862  0.00  0.00    +0.000 OA
ATOM     37  H   UNL     1      52.301   6.102  34.432  0.00  0.00    +0.000 HD
ENDBRANCH  35  36
ENDBRANCH  14  35
TORSDOF 4
ENDMDL
MODEL 7
REMARK VINA RESULT:      -7.4     17.656     20.599
REMARK  Name = 73659_MaslinicAcid.pdbqt.pdb
REMARK  4 active torsions:
REMARK  status: ('A' for Active; 'I' for Inactive)
REMARK    1  A    between atoms: C_14  and  C_35
REMARK    2  A    between atoms: C_17  and  O_30
REMARK    3  A    between atoms: C_19  and  O_32
REMARK    4  A    between atoms: C_35  and  O_36
REMARK                            x       y       z     vdW  Elec       q    Type
REMARK                         _______ _______ _______ _____ _____    ______ ____
ROOT
ATOM      1  C   UNL     1      42.958  -0.822   9.054  0.00  0.00    +0.000 C 
ATOM      2  C   UNL     1      43.988  -0.375  10.177  0.00  0.00    +0.000 C 
ATOM      3  C   UNL     1      45.393  -0.968  10.318  0.00  0.00    +0.000 C 
ATOM      4  C   UNL     1      41.410  -0.927   9.629  0.00  0.00    +0.000 C 
ATOM      5  C   UNL     1      45.581  -2.436   9.921  0.00  0.00    +0.000 C 
ATOM      6  C   UNL     1      43.444  -2.125   8.586  0.00  0.00    +0.000 C 
ATOM      7  C   UNL     1      44.654  -2.916   8.956  0.00  0.00    +0.000 C 
ATOM      8  C   UNL     1      40.979   0.395  10.470  0.00  0.00    +0.000 C 
ATOM      9  C   UNL     1      46.596  -3.299  10.654  0.00  0.00    +0.000 C 
ATOM     10  C   UNL     1      39.669   1.074  10.368  0.00  0.00    +0.000 C 
ATOM     11  C   UNL     1      43.423   0.582  11.078  0.00  0.00    +0.000 C 
ATOM     12  C   UNL     1      45.811  -0.925  11.710  0.00  0.00    +0.000 C 
ATOM     13  C   UNL     1      40.392  -1.006   8.565  0.00  0.00    +0.000 C 
ATOM     14  C   UNL     1      38.761   1.075   8.989  0.00  0.00    +0.000 C 
ATOM     15  C   UNL     1      43.070   0.243   7.888  0.00  0.00    +0.000 C 
ATOM     16  C   UNL     1      39.188  -0.136   8.288  0.00  0.00    +0.000 C 
ATOM     17  C   UNL     1      47.115  -2.825  12.035  0.00  0.00    +0.000 C 
ATOM     18  C   UNL     1      46.348  -0.119   9.445  0.00  0.00    +0.000 C 
ATOM     19  C   UNL     1      46.567  -1.650  12.625  0.00  0.00    +0.000 C 
ATOM     20  C   UNL     1      41.961   0.920  11.148  0.00  0.00    +0.000 C 
ATOM     21  C   UNL     1      41.228  -2.140  10.639  0.00  0.00    +0.000 C 
ATOM     22  C   UNL     1      38.908   1.291  11.597  0.00  0.00    +0.000 C 
ATOM     23  C   UNL     1      37.357   1.078   9.482  0.00  0.00    +0.000 C 
ATOM     24  C   UNL     1      37.520   1.397  12.187  0.00  0.00    +0.000 C 
ATOM     25  C   UNL     1      45.942  -4.695  10.949  0.00  0.00    +0.000 C 
ATOM     26  C   UNL     1      47.836  -3.521   9.742  0.00  0.00    +0.000 C 
ATOM     27  C   UNL     1      36.762   1.241  10.904  0.00  0.00    +0.000 C 
ATOM     28  C   UNL     1      37.285   2.776  12.829  0.00  0.00    +0.000 C 
ATOM     29  C   UNL     1      37.240   0.238  13.162  0.00  0.00    +0.000 C 
ENDROOT
BRANCH  17  30
ATOM     30  O   UNL     1      48.123  -3.474  12.745  0.00  0.00    +0.000 OA
ATOM     31  H   UNL     1      48.944  -2.940  12.760  0.00  0.00    +0.000 HD
ENDBRANCH  17  30
BRANCH  19  32
ATOM     32  O   UNL     1      47.125  -1.104  13.741  0.00  0.00    +0.000 OA
ATOM     33  H   UNL     1      48.020  -0.761  13.554  0.00  0.00    +0.000 HD
ENDBRANCH  19  32
BRANCH  14  35
ATOM     34  O   UNL     1      39.322   3.459   8.718  0.00  0.00    +0.000 OA
ATOM     35  C   UNL     1      39.079   2.366   8.225  0.00  0.00    +0.000 C 
BRANCH  35  36
ATOM     36  O   UNL     1      39.006   2.246   6.880  0.00  0.00    +0.000 OA
ATOM     37  H   UNL     1      39.894   2.512   6.552  0.00  0.00    +0.000 HD
ENDBRANCH  35  36
ENDBRANCH  14  35
TORSDOF 4
ENDMDL
MODEL 8
REMARK VINA RESULT:      -7.4     20.795     23.392
REMARK  Name = 73659_MaslinicAcid.pdbqt.pdb
REMARK  4 active torsions:
REMARK  status: ('A' for Active; 'I' for Inactive)
REMARK    1  A    between atoms: C_14  and  C_35
REMARK    2  A    between atoms: C_17  and  O_30
REMARK    3  A    between atoms: C_19  and  O_32
REMARK    4  A    between atoms: C_35  and  O_36
REMARK                            x       y       z     vdW  Elec       q    Type
REMARK                         _______ _______ _______ _____ _____    ______ ____
ROOT
ATOM      1  C   UNL     1      27.064   1.447   4.642  0.00  0.00    +0.000 C 
ATOM      2  C   UNL     1      25.872   1.027   3.678  0.00  0.00    +0.000 C 
ATOM      3  C   UNL     1      24.530   0.487   4.182  0.00  0.00    +0.000 C 
ATOM      4  C   UNL     1      28.539   0.991   4.048  0.00  0.00    +0.000 C 
ATOM      5  C   UNL     1      24.545  -0.343   5.471  0.00  0.00    +0.000 C 
ATOM      6  C   UNL     1      26.773   0.787   5.919  0.00  0.00    +0.000 C 
ATOM      7  C   UNL     1      25.619  -0.054   6.354  0.00  0.00    +0.000 C 
ATOM      8  C   UNL     1      28.730   1.416   2.491  0.00  0.00    +0.000 C 
ATOM      9  C   UNL     1      23.550  -1.479   5.656  0.00  0.00    +0.000 C 
ATOM     10  C   UNL     1      29.965   1.994   1.918  0.00  0.00    +0.000 C 
ATOM     11  C   UNL     1      26.228   1.140   2.297  0.00  0.00    +0.000 C 
ATOM     12  C   UNL     1      23.957  -0.412   3.193  0.00  0.00    +0.000 C 
ATOM     13  C   UNL     1      29.673   1.645   4.727  0.00  0.00    +0.000 C 
ATOM     14  C   UNL     1      31.018   2.918   2.792  0.00  0.00    +0.000 C 
ATOM     15  C   UNL     1      26.971   3.017   4.816  0.00  0.00    +0.000 C 
ATOM     16  C   UNL     1      30.802   2.483   4.172  0.00  0.00    +0.000 C 
ATOM     17  C   UNL     1      22.832  -2.049   4.406  0.00  0.00    +0.000 C 
ATOM     18  C   UNL     1      23.595   1.697   4.412  0.00  0.00    +0.000 C 
ATOM     19  C   UNL     1      23.183  -1.565   3.113  0.00  0.00    +0.000 C 
ATOM     20  C   UNL     1      27.629   1.351   1.798  0.00  0.00    +0.000 C 
ATOM     21  C   UNL     1      28.733  -0.586   4.076  0.00  0.00    +0.000 C 
ATOM     22  C   UNL     1      30.556   1.339   0.753  0.00  0.00    +0.000 C 
ATOM     23  C   UNL     1      32.348   2.597   2.211  0.00  0.00    +0.000 C 
ATOM     24  C   UNL     1      31.850   1.029   0.034  0.00  0.00    +0.000 C 
ATOM     25  C   UNL     1      24.310  -2.713   6.257  0.00  0.00    +0.000 C 
ATOM     26  C   UNL     1      22.450  -1.040   6.665  0.00  0.00    +0.000 C 
ATOM     27  C   UNL     1      32.760   1.771   0.965  0.00  0.00    +0.000 C 
ATOM     28  C   UNL     1      31.865   1.629  -1.384  0.00  0.00    +0.000 C 
ATOM     29  C   UNL     1      32.139  -0.484   0.036  0.00  0.00    +0.000 C 
ENDROOT
BRANCH  17  30
ATOM     30  O   UNL     1      21.825  -3.010   4.466  0.00  0.00    +0.000 OA
ATOM     31  H   UNL     1      22.169  -3.861   4.807  0.00  0.00    +0.000 HD
ENDBRANCH  17  30
BRANCH  19  32
ATOM     32  O   UNL     1      22.449  -1.906   2.018  0.00  0.00    +0.000 OA
ATOM     33  H   UNL     1      23.008  -2.329   1.338  0.00  0.00    +0.000 HD
ENDBRANCH  19  32
BRANCH  14  35
ATOM     34  O   UNL     1      31.225   5.164   1.800  0.00  0.00    +0.000 OA
ATOM     35  C   UNL     1      30.653   4.389   2.554  0.00  0.00    +0.000 C 
BRANCH  35  36
ATOM     36  O   UNL     1      29.637   4.840   3.323  0.00  0.00    +0.000 OA
ATOM     37  H   UNL     1      29.092   5.397   2.725  0.00  0.00    +0.000 HD
ENDBRANCH  35  36
ENDBRANCH  14  35
TORSDOF 4
ENDMDL
MODEL 9
REMARK VINA RESULT:      -7.3     16.948     19.809
REMARK  Name = 73659_MaslinicAcid.pdbqt.pdb
REMARK  4 active torsions:
REMARK  status: ('A' for Active; 'I' for Inactive)
REMARK    1  A    between atoms: C_14  and  C_35
REMARK    2  A    between atoms: C_17  and  O_30
REMARK    3  A    between atoms: C_19  and  O_32
REMARK    4  A    between atoms: C_35  and  O_36
REMARK                            x       y       z     vdW  Elec       q    Type
REMARK                         _______ _______ _______ _____ _____    ______ ____
ROOT
ATOM      1  C   UNL     1      44.759  -1.019  10.033  0.00  0.00    +0.000 C 
ATOM      2  C   UNL     1      44.809  -2.111  11.185  0.00  0.00    +0.000 C 
ATOM      3  C   UNL     1      45.979  -3.082  11.376  0.00  0.00    +0.000 C 
ATOM      4  C   UNL     1      43.248  -0.874   9.373  0.00  0.00    +0.000 C 
ATOM      5  C   UNL     1      46.727  -3.540  10.119  0.00  0.00    +0.000 C 
ATOM      6  C   UNL     1      45.738  -1.467   9.037  0.00  0.00    +0.000 C 
ATOM      7  C   UNL     1      46.675  -2.629   9.030  0.00  0.00    +0.000 C 
ATOM      8  C   UNL     1      42.095  -0.732  10.508  0.00  0.00    +0.000 C 
ATOM      9  C   UNL     1      47.323  -4.938  10.054  0.00  0.00    +0.000 C 
ATOM     10  C   UNL     1      40.956   0.211  10.444  0.00  0.00    +0.000 C 
ATOM     11  C   UNL     1      43.610  -2.131  11.965  0.00  0.00    +0.000 C 
ATOM     12  C   UNL     1      45.502  -4.321  11.970  0.00  0.00    +0.000 C 
ATOM     13  C   UNL     1      43.080   0.340   8.553  0.00  0.00    +0.000 C 
ATOM     14  C   UNL     1      41.031   1.663   9.662  0.00  0.00    +0.000 C 
ATOM     15  C   UNL     1      45.238   0.343  10.682  0.00  0.00    +0.000 C 
ATOM     16  C   UNL     1      42.074   1.464   8.655  0.00  0.00    +0.000 C 
ATOM     17  C   UNL     1      46.821  -6.007  11.057  0.00  0.00    +0.000 C 
ATOM     18  C   UNL     1      47.004  -2.400  12.312  0.00  0.00    +0.000 C 
ATOM     19  C   UNL     1      45.756  -5.688  11.949  0.00  0.00    +0.000 C 
ATOM     20  C   UNL     1      42.342  -1.420  11.587  0.00  0.00    +0.000 C 
ATOM     21  C   UNL     1      42.841  -2.156   8.526  0.00  0.00    +0.000 C 
ATOM     22  C   UNL     1      39.606  -0.330  10.592  0.00  0.00    +0.000 C 
ATOM     23  C   UNL     1      39.653   1.861   9.138  0.00  0.00    +0.000 C 
ATOM     24  C   UNL     1      38.158  -0.165  10.188  0.00  0.00    +0.000 C 
ATOM     25  C   UNL     1      47.001  -5.551   8.647  0.00  0.00    +0.000 C 
ATOM     26  C   UNL     1      48.868  -4.845  10.208  0.00  0.00    +0.000 C 
ATOM     27  C   UNL     1      38.336   1.076   9.368  0.00  0.00    +0.000 C 
ATOM     28  C   UNL     1      37.256   0.079  11.412  0.00  0.00    +0.000 C 
ATOM     29  C   UNL     1      37.680  -1.353   9.333  0.00  0.00    +0.000 C 
ENDROOT
BRANCH  17  30
ATOM     30  O   UNL     1      47.369  -7.283  11.164  0.00  0.00    +0.000 OA
ATOM     31  H   UNL     1      48.237  -7.333  10.711  0.00  0.00    +0.000 HD
ENDBRANCH  17  30
BRANCH  19  32
ATOM     32  O   UNL     1      45.417  -6.533  12.961  0.00  0.00    +0.000 OA
ATOM     33  H   UNL     1      45.534  -6.104  13.831  0.00  0.00    +0.000 HD
ENDBRANCH  19  32
BRANCH  14  35
ATOM     34  O   UNL     1      42.472   2.885  11.243  0.00  0.00    +0.000 OA
ATOM     35  C   UNL     1      41.385   2.732  10.702  0.00  0.00    +0.000 C 
BRANCH  35  36
ATOM     36  O   UNL     1      40.345   3.513  11.072  0.00  0.00    +0.000 OA
ATOM     37  H   UNL     1      40.274   4.193  10.367  0.00  0.00    +0.000 HD
ENDBRANCH  35  36
ENDBRANCH  14  35
TORSDOF 4
ENDMDL
