MODEL 1
REMARK VINA RESULT:      -5.1      0.000      0.000
REMARK  Name = 76617_Cardol.pdbqt.pdb
REMARK  10 active torsions:
REMARK  status: ('A' for Active; 'I' for Inactive)
REMARK    1  A    between atoms: C_1  and  C_2
REMARK    2  A    between atoms: C_3  and  C_4
REMARK    3  A    between atoms: C_5  and  C_6
REMARK    4  A    between atoms: C_7  and  C_8
REMARK    5  A    between atoms: C_8  and  C_9
REMARK    6  A    between atoms: C_10  and  C_11
REMARK    7  A    between atoms: C_14  and  C_15
REMARK    8  A    between atoms: C_15  and  C_16
REMARK    9  A    between atoms: C_19  and  O_24
REMARK   10  A    between atoms: C_20  and  O_22
REMARK                            x       y       z     vdW  Elec       q    Type
REMARK                         _______ _______ _______ _____ _____    ______ ____
ROOT
ATOM      1  C   UNL     1      38.110   4.472  16.572  0.00  0.00    +0.000 C 
ATOM      2  C   UNL     1      37.409   3.499  16.539  0.00  0.00    +0.000 C 
ENDROOT
BRANCH   1   3
ATOM      3  C   UNL     1      39.004   5.715  16.616  0.00  0.00    +0.000 C 
ATOM      4  C   UNL     1      39.900   6.957  16.659  0.00  0.00    +0.000 C 
BRANCH   4   5
ATOM      5  C   UNL     1      40.795   8.199  16.700  0.00  0.00    +0.000 C 
ATOM      6  C   UNL     1      41.689   9.441  16.741  0.00  0.00    +0.000 C 
BRANCH   6   7
ATOM      7  C   UNL     1      42.585  10.684  16.781  0.00  0.00    +0.000 C 
ATOM      8  C   UNL     1      43.480  11.925  16.821  0.00  0.00    +0.000 C 
BRANCH   8   9
ATOM      9  C   UNL     1      44.376  13.167  16.861  0.00  0.00    +0.000 C 
BRANCH   9  10
ATOM     10  C   UNL     1      45.271  14.410  16.902  0.00  0.00    +0.000 C 
ATOM     11  C   UNL     1      46.165  15.652  16.944  0.00  0.00    +0.000 C 
BRANCH  11  12
ATOM     12  C   UNL     1      47.059  16.896  16.986  0.00  0.00    +0.000 C 
ATOM     13  C   UNL     1      47.952  18.139  17.027  0.00  0.00    +0.000 C 
ATOM     14  C   UNL     1      48.846  19.382  17.068  0.00  0.00    +0.000 C 
ENDBRANCH  11  12
ENDBRANCH   9  10
ENDBRANCH   8   9
ENDBRANCH   6   7
ENDBRANCH   4   5
ENDBRANCH   1   3
BRANCH   2  15
ATOM     15  C   UNL     1      36.515   2.255  16.496  0.00  0.00    +0.000 C 
BRANCH  15  16
ATOM     16  C   UNL     1      35.685   1.098  16.456  0.00  0.00    +0.000 A 
ATOM     17  C   UNL     1      34.464   1.143  15.788  0.00  0.00    +0.000 A 
ATOM     18  C   UNL     1      36.099  -0.074  17.087  0.00  0.00    +0.000 A 
ATOM     19  C   UNL     1      35.281  -1.200  17.043  0.00  0.00    +0.000 A 
ATOM     20  C   UNL     1      33.660   0.006  15.755  0.00  0.00    +0.000 A 
ATOM     21  C   UNL     1      34.058  -1.171  16.379  0.00  0.00    +0.000 A 
BRANCH  20  22
ATOM     22  O   UNL     1      32.459   0.024  15.106  0.00  0.00    +0.000 OA
ATOM     23  H   UNL     1      32.056   0.901  15.230  0.00  0.00    +0.000 HD
ENDBRANCH  20  22
BRANCH  19  24
ATOM     24  O   UNL     1      35.662  -2.360  17.653  0.00  0.00    +0.000 OA
ATOM     25  H   UNL     1      35.952  -2.986  16.966  0.00  0.00    +0.000 HD
ENDBRANCH  19  24
ENDBRANCH  15  16
ENDBRANCH   2  15
TORSDOF 10
ENDMDL
MODEL 2
REMARK VINA RESULT:      -4.9      6.925      7.148
REMARK  Name = 76617_Cardol.pdbqt.pdb
REMARK  10 active torsions:
REMARK  status: ('A' for Active; 'I' for Inactive)
REMARK    1  A    between atoms: C_1  and  C_2
REMARK    2  A    between atoms: C_3  and  C_4
REMARK    3  A    between atoms: C_5  and  C_6
REMARK    4  A    between atoms: C_7  and  C_8
REMARK    5  A    between atoms: C_8  and  C_9
REMARK    6  A    between atoms: C_10  and  C_11
REMARK    7  A    between atoms: C_14  and  C_15
REMARK    8  A    between atoms: C_15  and  C_16
REMARK    9  A    between atoms: C_19  and  O_24
REMARK   10  A    between atoms: C_20  and  O_22
REMARK                            x       y       z     vdW  Elec       q    Type
REMARK                         _______ _______ _______ _____ _____    ______ ____
ROOT
ATOM      1  C   UNL     1      37.768   3.185  13.210  0.00  0.00    +0.000 C 
ATOM      2  C   UNL     1      37.179   2.350  13.838  0.00  0.00    +0.000 C 
ENDROOT
BRANCH   1   3
ATOM      3  C   UNL     1      38.520   4.251  12.408  0.00  0.00    +0.000 C 
ATOM      4  C   UNL     1      39.273   5.317  11.605  0.00  0.00    +0.000 C 
BRANCH   4   5
ATOM      5  C   UNL     1      40.024   6.383  10.802  0.00  0.00    +0.000 C 
ATOM      6  C   UNL     1      40.774   7.448   9.998  0.00  0.00    +0.000 C 
BRANCH   6   7
ATOM      7  C   UNL     1      41.525   8.515   9.194  0.00  0.00    +0.000 C 
ATOM      8  C   UNL     1      42.275   9.581   8.391  0.00  0.00    +0.000 C 
BRANCH   8   9
ATOM      9  C   UNL     1      43.026  10.648   7.588  0.00  0.00    +0.000 C 
BRANCH   9  10
ATOM     10  C   UNL     1      43.775  11.715   6.784  0.00  0.00    +0.000 C 
ATOM     11  C   UNL     1      44.524  12.781   5.979  0.00  0.00    +0.000 C 
BRANCH  11  12
ATOM     12  C   UNL     1      45.273  13.848   5.175  0.00  0.00    +0.000 C 
ATOM     13  C   UNL     1      46.023  14.914   4.371  0.00  0.00    +0.000 C 
ATOM     14  C   UNL     1      46.773  15.981   3.567  0.00  0.00    +0.000 C 
ENDBRANCH  11  12
ENDBRANCH   9  10
ENDBRANCH   8   9
ENDBRANCH   6   7
ENDBRANCH   4   5
ENDBRANCH   1   3
BRANCH   2  15
ATOM     15  C   UNL     1      36.425   1.284  14.640  0.00  0.00    +0.000 C 
BRANCH  15  16
ATOM     16  C   UNL     1      35.725   0.293  15.387  0.00  0.00    +0.000 A 
ATOM     17  C   UNL     1      34.333   0.314  15.434  0.00  0.00    +0.000 A 
ATOM     18  C   UNL     1      36.437  -0.694  16.067  0.00  0.00    +0.000 A 
ATOM     19  C   UNL     1      35.743  -1.658  16.794  0.00  0.00    +0.000 A 
ATOM     20  C   UNL     1      33.658  -0.659  16.167  0.00  0.00    +0.000 A 
ATOM     21  C   UNL     1      34.353  -1.650  16.851  0.00  0.00    +0.000 A 
BRANCH  20  22
ATOM     22  O   UNL     1      32.294  -0.660  16.228  0.00  0.00    +0.000 OA
ATOM     23  H   UNL     1      32.019  -1.245  16.955  0.00  0.00    +0.000 HD
ENDBRANCH  20  22
BRANCH  19  24
ATOM     24  O   UNL     1      36.416  -2.635  17.470  0.00  0.00    +0.000 OA
ATOM     25  H   UNL     1      37.370  -2.499  17.336  0.00  0.00    +0.000 HD
ENDBRANCH  19  24
ENDBRANCH  15  16
ENDBRANCH   2  15
TORSDOF 10
ENDMDL
MODEL 3
REMARK VINA RESULT:      -4.8      9.065      9.802
REMARK  Name = 76617_Cardol.pdbqt.pdb
REMARK  10 active torsions:
REMARK  status: ('A' for Active; 'I' for Inactive)
REMARK    1  A    between atoms: C_1  and  C_2
REMARK    2  A    between atoms: C_3  and  C_4
REMARK    3  A    between atoms: C_5  and  C_6
REMARK    4  A    between atoms: C_7  and  C_8
REMARK    5  A    between atoms: C_8  and  C_9
REMARK    6  A    between atoms: C_10  and  C_11
REMARK    7  A    between atoms: C_14  and  C_15
REMARK    8  A    between atoms: C_15  and  C_16
REMARK    9  A    between atoms: C_19  and  O_24
REMARK   10  A    between atoms: C_20  and  O_22
REMARK                            x       y       z     vdW  Elec       q    Type
REMARK                         _______ _______ _______ _____ _____    ______ ____
ROOT
ATOM      1  C   UNL     1      37.407   2.251  12.216  0.00  0.00    +0.000 C 
ATOM      2  C   UNL     1      36.865   1.570  13.043  0.00  0.00    +0.000 C 
ENDROOT
BRANCH   1   3
ATOM      3  C   UNL     1      38.099   3.119  11.161  0.00  0.00    +0.000 C 
ATOM      4  C   UNL     1      38.791   3.988  10.107  0.00  0.00    +0.000 C 
BRANCH   4   5
ATOM      5  C   UNL     1      39.485   4.857   9.053  0.00  0.00    +0.000 C 
ATOM      6  C   UNL     1      40.178   5.726   8.001  0.00  0.00    +0.000 C 
BRANCH   6   7
ATOM      7  C   UNL     1      40.872   6.596   6.947  0.00  0.00    +0.000 C 
ATOM      8  C   UNL     1      41.566   7.465   5.894  0.00  0.00    +0.000 C 
BRANCH   8   9
ATOM      9  C   UNL     1      42.260   8.334   4.842  0.00  0.00    +0.000 C 
BRANCH   9  10
ATOM     10  C   UNL     1      42.953   9.204   3.788  0.00  0.00    +0.000 C 
ATOM     11  C   UNL     1      43.645  10.073   2.734  0.00  0.00    +0.000 C 
BRANCH  11  12
ATOM     12  C   UNL     1      44.338  10.942   1.680  0.00  0.00    +0.000 C 
ATOM     13  C   UNL     1      45.031  11.812   0.627  0.00  0.00    +0.000 C 
ATOM     14  C   UNL     1      45.724  12.681  -0.427  0.00  0.00    +0.000 C 
ENDBRANCH  11  12
ENDBRANCH   9  10
ENDBRANCH   8   9
ENDBRANCH   6   7
ENDBRANCH   4   5
ENDBRANCH   1   3
BRANCH   2  15
ATOM     15  C   UNL     1      36.172   0.702  14.098  0.00  0.00    +0.000 C 
BRANCH  15  16
ATOM     16  C   UNL     1      35.527  -0.104  15.079  0.00  0.00    +0.000 A 
ATOM     17  C   UNL     1      36.282  -0.957  15.882  0.00  0.00    +0.000 A 
ATOM     18  C   UNL     1      34.143  -0.037  15.231  0.00  0.00    +0.000 A 
ATOM     19  C   UNL     1      33.522  -0.830  16.193  0.00  0.00    +0.000 A 
ATOM     20  C   UNL     1      35.641  -1.741  16.839  0.00  0.00    +0.000 A 
ATOM     21  C   UNL     1      34.261  -1.686  17.002  0.00  0.00    +0.000 A 
BRANCH  20  22
ATOM     22  O   UNL     1      36.359  -2.584  17.638  0.00  0.00    +0.000 OA
ATOM     23  H   UNL     1      36.367  -3.465  17.226  0.00  0.00    +0.000 HD
ENDBRANCH  20  22
BRANCH  19  24
ATOM     24  O   UNL     1      32.168  -0.784  16.361  0.00  0.00    +0.000 OA
ATOM     25  H   UNL     1      31.792  -0.217  15.666  0.00  0.00    +0.000 HD
ENDBRANCH  19  24
ENDBRANCH  15  16
ENDBRANCH   2  15
TORSDOF 10
ENDMDL
MODEL 4
REMARK VINA RESULT:      -4.5     22.146     26.358
REMARK  Name = 76617_Cardol.pdbqt.pdb
REMARK  10 active torsions:
REMARK  status: ('A' for Active; 'I' for Inactive)
REMARK    1  A    between atoms: C_1  and  C_2
REMARK    2  A    between atoms: C_3  and  C_4
REMARK    3  A    between atoms: C_5  and  C_6
REMARK    4  A    between atoms: C_7  and  C_8
REMARK    5  A    between atoms: C_8  and  C_9
REMARK    6  A    between atoms: C_10  and  C_11
REMARK    7  A    between atoms: C_14  and  C_15
REMARK    8  A    between atoms: C_15  and  C_16
REMARK    9  A    between atoms: C_19  and  O_24
REMARK   10  A    between atoms: C_20  and  O_22
REMARK                            x       y       z     vdW  Elec       q    Type
REMARK                         _______ _______ _______ _____ _____    ______ ____
ROOT
ATOM      1  C   UNL     1      20.359  -0.801  10.603  0.00  0.00    +0.000 C 
ATOM      2  C   UNL     1      21.037  -0.880   9.617  0.00  0.00    +0.000 C 
ENDROOT
BRANCH   1   3
ATOM      3  C   UNL     1      19.493  -0.698  11.862  0.00  0.00    +0.000 C 
ATOM      4  C   UNL     1      18.625  -0.595  13.121  0.00  0.00    +0.000 C 
BRANCH   4   5
ATOM      5  C   UNL     1      17.758  -0.492  14.378  0.00  0.00    +0.000 C 
ATOM      6  C   UNL     1      16.889  -0.389  15.635  0.00  0.00    +0.000 C 
BRANCH   6   7
ATOM      7  C   UNL     1      16.020  -0.286  16.893  0.00  0.00    +0.000 C 
ATOM      8  C   UNL     1      15.153  -0.184  18.151  0.00  0.00    +0.000 C 
BRANCH   8   9
ATOM      9  C   UNL     1      14.285  -0.081  19.408  0.00  0.00    +0.000 C 
BRANCH   9  10
ATOM     10  C   UNL     1      13.417   0.020  20.667  0.00  0.00    +0.000 C 
ATOM     11  C   UNL     1      12.550   0.119  21.925  0.00  0.00    +0.000 C 
BRANCH  11  12
ATOM     12  C   UNL     1      11.681   0.220  23.183  0.00  0.00    +0.000 C 
ATOM     13  C   UNL     1      10.813   0.321  24.440  0.00  0.00    +0.000 C 
ATOM     14  C   UNL     1       9.944   0.421  25.698  0.00  0.00    +0.000 C 
ENDBRANCH  11  12
ENDBRANCH   9  10
ENDBRANCH   8   9
ENDBRANCH   6   7
ENDBRANCH   4   5
ENDBRANCH   1   3
BRANCH   2  15
ATOM     15  C   UNL     1      21.905  -0.983   8.358  0.00  0.00    +0.000 C 
BRANCH  15  16
ATOM     16  C   UNL     1      22.710  -1.080   7.187  0.00  0.00    +0.000 A 
ATOM     17  C   UNL     1      23.289   0.067   6.646  0.00  0.00    +0.000 A 
ATOM     18  C   UNL     1      22.915  -2.321   6.587  0.00  0.00    +0.000 A 
ATOM     19  C   UNL     1      23.704  -2.405   5.443  0.00  0.00    +0.000 A 
ATOM     20  C   UNL     1      24.075  -0.039   5.501  0.00  0.00    +0.000 A 
ATOM     21  C   UNL     1      24.289  -1.270   4.890  0.00  0.00    +0.000 A 
BRANCH  20  22
ATOM     22  O   UNL     1      24.653   1.069   4.953  0.00  0.00    +0.000 OA
ATOM     23  H   UNL     1      25.617   1.003   5.069  0.00  0.00    +0.000 HD
ENDBRANCH  20  22
BRANCH  19  24
ATOM     24  O   UNL     1      23.921  -3.608   4.835  0.00  0.00    +0.000 OA
ATOM     25  H   UNL     1      23.332  -3.671   4.062  0.00  0.00    +0.000 HD
ENDBRANCH  19  24
ENDBRANCH  15  16
ENDBRANCH   2  15
TORSDOF 10
ENDMDL
MODEL 5
REMARK VINA RESULT:      -4.5     35.088     40.725
REMARK  Name = 76617_Cardol.pdbqt.pdb
REMARK  10 active torsions:
REMARK  status: ('A' for Active; 'I' for Inactive)
REMARK    1  A    between atoms: C_1  and  C_2
REMARK    2  A    between atoms: C_3  and  C_4
REMARK    3  A    between atoms: C_5  and  C_6
REMARK    4  A    between atoms: C_7  and  C_8
REMARK    5  A    between atoms: C_8  and  C_9
REMARK    6  A    between atoms: C_10  and  C_11
REMARK    7  A    between atoms: C_14  and  C_15
REMARK    8  A    between atoms: C_15  and  C_16
REMARK    9  A    between atoms: C_19  and  O_24
REMARK   10  A    between atoms: C_20  and  O_22
REMARK                            x       y       z     vdW  Elec       q    Type
REMARK                         _______ _______ _______ _____ _____    ______ ____
ROOT
ATOM      1  C   UNL     1      20.958  -9.190  44.592  0.00  0.00    +0.000 C 
ATOM      2  C   UNL     1      20.534  -9.018  43.483  0.00  0.00    +0.000 C 
ENDROOT
BRANCH   1   3
ATOM      3  C   UNL     1      21.499  -9.409  46.008  0.00  0.00    +0.000 C 
ATOM      4  C   UNL     1      22.042  -9.629  47.424  0.00  0.00    +0.000 C 
BRANCH   4   5
ATOM      5  C   UNL     1      22.585  -9.849  48.838  0.00  0.00    +0.000 C 
ATOM      6  C   UNL     1      23.129 -10.069  50.253  0.00  0.00    +0.000 C 
BRANCH   6   7
ATOM      7  C   UNL     1      23.673 -10.289  51.668  0.00  0.00    +0.000 C 
ATOM      8  C   UNL     1      24.217 -10.510  53.082  0.00  0.00    +0.000 C 
BRANCH   8   9
ATOM      9  C   UNL     1      24.761 -10.731  54.497  0.00  0.00    +0.000 C 
BRANCH   9  10
ATOM     10  C   UNL     1      25.306 -10.952  55.911  0.00  0.00    +0.000 C 
ATOM     11  C   UNL     1      25.850 -11.174  57.325  0.00  0.00    +0.000 C 
BRANCH  11  12
ATOM     12  C   UNL     1      26.394 -11.396  58.740  0.00  0.00    +0.000 C 
ATOM     13  C   UNL     1      26.938 -11.618  60.154  0.00  0.00    +0.000 C 
ATOM     14  C   UNL     1      27.482 -11.839  61.569  0.00  0.00    +0.000 C 
ENDBRANCH  11  12
ENDBRANCH   9  10
ENDBRANCH   8   9
ENDBRANCH   6   7
ENDBRANCH   4   5
ENDBRANCH   1   3
BRANCH   2  15
ATOM     15  C   UNL     1      19.991  -8.798  42.067  0.00  0.00    +0.000 C 
BRANCH  15  16
ATOM     16  C   UNL     1      19.488  -8.594  40.750  0.00  0.00    +0.000 A 
ATOM     17  C   UNL     1      20.331  -8.752  39.652  0.00  0.00    +0.000 A 
ATOM     18  C   UNL     1      18.153  -8.236  40.567  0.00  0.00    +0.000 A 
ATOM     19  C   UNL     1      17.670  -8.038  39.276  0.00  0.00    +0.000 A 
ATOM     20  C   UNL     1      19.828  -8.550  38.369  0.00  0.00    +0.000 A 
ATOM     21  C   UNL     1      18.499  -8.192  38.169  0.00  0.00    +0.000 A 
BRANCH  20  22
ATOM     22  O   UNL     1      20.633  -8.700  37.277  0.00  0.00    +0.000 OA
ATOM     23  H   UNL     1      21.138  -9.526  37.378  0.00  0.00    +0.000 HD
ENDBRANCH  20  22
BRANCH  19  24
ATOM     24  O   UNL     1      16.367  -7.686  39.068  0.00  0.00    +0.000 OA
ATOM     25  H   UNL     1      15.925  -7.626  39.932  0.00  0.00    +0.000 HD
ENDBRANCH  19  24
ENDBRANCH  15  16
ENDBRANCH   2  15
TORSDOF 10
ENDMDL
MODEL 6
REMARK VINA RESULT:      -4.2     22.195     28.982
REMARK  Name = 76617_Cardol.pdbqt.pdb
REMARK  10 active torsions:
REMARK  status: ('A' for Active; 'I' for Inactive)
REMARK    1  A    between atoms: C_1  and  C_2
REMARK    2  A    between atoms: C_3  and  C_4
REMARK    3  A    between atoms: C_5  and  C_6
REMARK    4  A    between atoms: C_7  and  C_8
REMARK    5  A    between atoms: C_8  and  C_9
REMARK    6  A    between atoms: C_10  and  C_11
REMARK    7  A    between atoms: C_14  and  C_15
REMARK    8  A    between atoms: C_15  and  C_16
REMARK    9  A    between atoms: C_19  and  O_24
REMARK   10  A    between atoms: C_20  and  O_22
REMARK                            x       y       z     vdW  Elec       q    Type
REMARK                         _______ _______ _______ _____ _____    ______ ____
ROOT
ATOM      1  C   UNL     1      20.346  -4.063  10.384  0.00  0.00    +0.000 C 
ATOM      2  C   UNL     1      20.877  -3.446   9.502  0.00  0.00    +0.000 C 
ENDROOT
BRANCH   1   3
ATOM      3  C   UNL     1      19.668  -4.850  11.508  0.00  0.00    +0.000 C 
ATOM      4  C   UNL     1      18.990  -5.638  12.635  0.00  0.00    +0.000 C 
BRANCH   4   5
ATOM      5  C   UNL     1      18.313  -6.424  13.761  0.00  0.00    +0.000 C 
ATOM      6  C   UNL     1      17.636  -7.211  14.886  0.00  0.00    +0.000 C 
BRANCH   6   7
ATOM      7  C   UNL     1      16.958  -7.999  16.012  0.00  0.00    +0.000 C 
ATOM      8  C   UNL     1      16.280  -8.786  17.137  0.00  0.00    +0.000 C 
BRANCH   8   9
ATOM      9  C   UNL     1      15.602  -9.574  18.262  0.00  0.00    +0.000 C 
BRANCH   9  10
ATOM     10  C   UNL     1      14.922 -10.360  19.387  0.00  0.00    +0.000 C 
ATOM     11  C   UNL     1      14.245 -11.147  20.512  0.00  0.00    +0.000 C 
BRANCH  11  12
ATOM     12  C   UNL     1      13.566 -11.935  21.638  0.00  0.00    +0.000 C 
ATOM     13  C   UNL     1      12.887 -12.723  22.761  0.00  0.00    +0.000 C 
ATOM     14  C   UNL     1      12.208 -13.510  23.887  0.00  0.00    +0.000 C 
ENDBRANCH  11  12
ENDBRANCH   9  10
ENDBRANCH   8   9
ENDBRANCH   6   7
ENDBRANCH   4   5
ENDBRANCH   1   3
BRANCH   2  15
ATOM     15  C   UNL     1      21.556  -2.658   8.377  0.00  0.00    +0.000 C 
BRANCH  15  16
ATOM     16  C   UNL     1      22.188  -1.925   7.332  0.00  0.00    +0.000 A 
ATOM     17  C   UNL     1      22.652  -0.633   7.571  0.00  0.00    +0.000 A 
ATOM     18  C   UNL     1      22.341  -2.505   6.074  0.00  0.00    +0.000 A 
ATOM     19  C   UNL     1      22.960  -1.781   5.058  0.00  0.00    +0.000 A 
ATOM     20  C   UNL     1      23.269   0.074   6.542  0.00  0.00    +0.000 A 
ATOM     21  C   UNL     1      23.428  -0.490   5.281  0.00  0.00    +0.000 A 
BRANCH  20  22
ATOM     22  O   UNL     1      23.731   1.341   6.752  0.00  0.00    +0.000 OA
ATOM     23  H   UNL     1      24.642   1.396   6.415  0.00  0.00    +0.000 HD
ENDBRANCH  20  22
BRANCH  19  24
ATOM     24  O   UNL     1      23.122  -2.325   3.816  0.00  0.00    +0.000 OA
ATOM     25  H   UNL     1      22.493  -3.061   3.720  0.00  0.00    +0.000 HD
ENDBRANCH  19  24
ENDBRANCH  15  16
ENDBRANCH   2  15
TORSDOF 10
ENDMDL
MODEL 7
REMARK VINA RESULT:      -4.2     33.197     34.920
REMARK  Name = 76617_Cardol.pdbqt.pdb
REMARK  10 active torsions:
REMARK  status: ('A' for Active; 'I' for Inactive)
REMARK    1  A    between atoms: C_1  and  C_2
REMARK    2  A    between atoms: C_3  and  C_4
REMARK    3  A    between atoms: C_5  and  C_6
REMARK    4  A    between atoms: C_7  and  C_8
REMARK    5  A    between atoms: C_8  and  C_9
REMARK    6  A    between atoms: C_10  and  C_11
REMARK    7  A    between atoms: C_14  and  C_15
REMARK    8  A    between atoms: C_15  and  C_16
REMARK    9  A    between atoms: C_19  and  O_24
REMARK   10  A    between atoms: C_20  and  O_22
REMARK                            x       y       z     vdW  Elec       q    Type
REMARK                         _______ _______ _______ _____ _____    ______ ____
ROOT
ATOM      1  C   UNL     1      14.727  -6.216  32.846  0.00  0.00    +0.000 C 
ATOM      2  C   UNL     1      14.164  -6.009  31.807  0.00  0.00    +0.000 C 
ENDROOT
BRANCH   1   3
ATOM      3  C   UNL     1      15.447  -6.482  34.171  0.00  0.00    +0.000 C 
ATOM      4  C   UNL     1      16.168  -6.749  35.497  0.00  0.00    +0.000 C 
BRANCH   4   5
ATOM      5  C   UNL     1      16.890  -7.015  36.821  0.00  0.00    +0.000 C 
ATOM      6  C   UNL     1      17.611  -7.280  38.146  0.00  0.00    +0.000 C 
BRANCH   6   7
ATOM      7  C   UNL     1      18.332  -7.546  39.471  0.00  0.00    +0.000 C 
ATOM      8  C   UNL     1      19.053  -7.812  40.796  0.00  0.00    +0.000 C 
BRANCH   8   9
ATOM      9  C   UNL     1      19.773  -8.078  42.120  0.00  0.00    +0.000 C 
BRANCH   9  10
ATOM     10  C   UNL     1      20.494  -8.346  43.446  0.00  0.00    +0.000 C 
ATOM     11  C   UNL     1      21.215  -8.612  44.770  0.00  0.00    +0.000 C 
BRANCH  11  12
ATOM     12  C   UNL     1      21.936  -8.879  46.095  0.00  0.00    +0.000 C 
ATOM     13  C   UNL     1      22.657  -9.145  47.419  0.00  0.00    +0.000 C 
ATOM     14  C   UNL     1      23.378  -9.413  48.744  0.00  0.00    +0.000 C 
ENDBRANCH  11  12
ENDBRANCH   9  10
ENDBRANCH   8   9
ENDBRANCH   6   7
ENDBRANCH   4   5
ENDBRANCH   1   3
BRANCH   2  15
ATOM     15  C   UNL     1      13.443  -5.742  30.481  0.00  0.00    +0.000 C 
BRANCH  15  16
ATOM     16  C   UNL     1      12.775  -5.494  29.249  0.00  0.00    +0.000 A 
ATOM     17  C   UNL     1      11.986  -4.354  29.103  0.00  0.00    +0.000 A 
ATOM     18  C   UNL     1      12.912  -6.394  28.193  0.00  0.00    +0.000 A 
ATOM     19  C   UNL     1      12.255  -6.143  26.991  0.00  0.00    +0.000 A 
ATOM     20  C   UNL     1      11.337  -4.122  27.893  0.00  0.00    +0.000 A 
ATOM     21  C   UNL     1      11.464  -5.010  26.830  0.00  0.00    +0.000 A 
BRANCH  20  22
ATOM     22  O   UNL     1      10.560  -3.013  27.725  0.00  0.00    +0.000 OA
ATOM     23  H   UNL     1      10.125  -2.811  28.572  0.00  0.00    +0.000 HD
ENDBRANCH  20  22
BRANCH  19  24
ATOM     24  O   UNL     1      12.372  -7.009  25.941  0.00  0.00    +0.000 OA
ATOM     25  H   UNL     1      11.923  -6.618  25.171  0.00  0.00    +0.000 HD
ENDBRANCH  19  24
ENDBRANCH  15  16
ENDBRANCH   2  15
TORSDOF 10
ENDMDL
MODEL 8
REMARK VINA RESULT:      -4.1     26.574     27.960
REMARK  Name = 76617_Cardol.pdbqt.pdb
REMARK  10 active torsions:
REMARK  status: ('A' for Active; 'I' for Inactive)
REMARK    1  A    between atoms: C_1  and  C_2
REMARK    2  A    between atoms: C_3  and  C_4
REMARK    3  A    between atoms: C_5  and  C_6
REMARK    4  A    between atoms: C_7  and  C_8
REMARK    5  A    between atoms: C_8  and  C_9
REMARK    6  A    between atoms: C_10  and  C_11
REMARK    7  A    between atoms: C_14  and  C_15
REMARK    8  A    between atoms: C_15  and  C_16
REMARK    9  A    between atoms: C_19  and  O_24
REMARK   10  A    between atoms: C_20  and  O_22
REMARK                            x       y       z     vdW  Elec       q    Type
REMARK                         _______ _______ _______ _____ _____    ______ ____
ROOT
ATOM      1  C   UNL     1      49.483   1.376  36.143  0.00  0.00    +0.000 C 
ATOM      2  C   UNL     1      49.475   1.517  34.952  0.00  0.00    +0.000 C 
ENDROOT
BRANCH   1   3
ATOM      3  C   UNL     1      49.493   1.195  37.664  0.00  0.00    +0.000 C 
ATOM      4  C   UNL     1      49.501   1.013  39.185  0.00  0.00    +0.000 C 
BRANCH   4   5
ATOM      5  C   UNL     1      49.511   0.830  40.706  0.00  0.00    +0.000 C 
ATOM      6  C   UNL     1      49.521   0.647  42.226  0.00  0.00    +0.000 C 
BRANCH   6   7
ATOM      7  C   UNL     1      49.531   0.464  43.747  0.00  0.00    +0.000 C 
ATOM      8  C   UNL     1      49.543   0.280  45.267  0.00  0.00    +0.000 C 
BRANCH   8   9
ATOM      9  C   UNL     1      49.554   0.097  46.788  0.00  0.00    +0.000 C 
BRANCH   9  10
ATOM     10  C   UNL     1      49.565  -0.088  48.308  0.00  0.00    +0.000 C 
ATOM     11  C   UNL     1      49.575  -0.274  49.828  0.00  0.00    +0.000 C 
BRANCH  11  12
ATOM     12  C   UNL     1      49.585  -0.459  51.349  0.00  0.00    +0.000 C 
ATOM     13  C   UNL     1      49.594  -0.644  52.869  0.00  0.00    +0.000 C 
ATOM     14  C   UNL     1      49.604  -0.829  54.390  0.00  0.00    +0.000 C 
ENDBRANCH  11  12
ENDBRANCH   9  10
ENDBRANCH   8   9
ENDBRANCH   6   7
ENDBRANCH   4   5
ENDBRANCH   1   3
BRANCH   2  15
ATOM     15  C   UNL     1      49.465   1.698  33.430  0.00  0.00    +0.000 C 
BRANCH  15  16
ATOM     16  C   UNL     1      49.455   1.868  32.016  0.00  0.00    +0.000 A 
ATOM     17  C   UNL     1      49.132   3.108  31.468  0.00  0.00    +0.000 A 
ATOM     18  C   UNL     1      49.769   0.793  31.187  0.00  0.00    +0.000 A 
ATOM     19  C   UNL     1      49.757   0.969  29.805  0.00  0.00    +0.000 A 
ATOM     20  C   UNL     1      49.125   3.263  30.084  0.00  0.00    +0.000 A 
ATOM     21  C   UNL     1      49.436   2.201  29.243  0.00  0.00    +0.000 A 
BRANCH  20  22
ATOM     22  O   UNL     1      48.812   4.468  29.523  0.00  0.00    +0.000 OA
ATOM     23  H   UNL     1      47.870   4.459  29.282  0.00  0.00    +0.000 HD
ENDBRANCH  20  22
BRANCH  19  24
ATOM     24  O   UNL     1      50.060  -0.068  28.970  0.00  0.00    +0.000 OA
ATOM     25  H   UNL     1      49.385  -0.759  29.084  0.00  0.00    +0.000 HD
ENDBRANCH  19  24
ENDBRANCH  15  16
ENDBRANCH   2  15
TORSDOF 10
ENDMDL
MODEL 9
REMARK VINA RESULT:      -4.1     25.206     28.190
REMARK  Name = 76617_Cardol.pdbqt.pdb
REMARK  10 active torsions:
REMARK  status: ('A' for Active; 'I' for Inactive)
REMARK    1  A    between atoms: C_1  and  C_2
REMARK    2  A    between atoms: C_3  and  C_4
REMARK    3  A    between atoms: C_5  and  C_6
REMARK    4  A    between atoms: C_7  and  C_8
REMARK    5  A    between atoms: C_8  and  C_9
REMARK    6  A    between atoms: C_10  and  C_11
REMARK    7  A    between atoms: C_14  and  C_15
REMARK    8  A    between atoms: C_15  and  C_16
REMARK    9  A    between atoms: C_19  and  O_24
REMARK   10  A    between atoms: C_20  and  O_22
REMARK                            x       y       z     vdW  Elec       q    Type
REMARK                         _______ _______ _______ _____ _____    ______ ____
ROOT
ATOM      1  C   UNL     1      49.860   2.264  35.337  0.00  0.00    +0.000 C 
ATOM      2  C   UNL     1      49.853   3.026  34.410  0.00  0.00    +0.000 C 
ENDROOT
BRANCH   1   3
ATOM      3  C   UNL     1      49.869   1.290  36.519  0.00  0.00    +0.000 C 
ATOM      4  C   UNL     1      49.876   0.317  37.702  0.00  0.00    +0.000 C 
BRANCH   4   5
ATOM      5  C   UNL     1      49.883  -0.656  38.885  0.00  0.00    +0.000 C 
ATOM      6  C   UNL     1      49.890  -1.630  40.066  0.00  0.00    +0.000 C 
BRANCH   6   7
ATOM      7  C   UNL     1      49.897  -2.604  41.249  0.00  0.00    +0.000 C 
ATOM      8  C   UNL     1      49.903  -3.578  42.431  0.00  0.00    +0.000 C 
BRANCH   8   9
ATOM      9  C   UNL     1      49.910  -4.551  43.613  0.00  0.00    +0.000 C 
BRANCH   9  10
ATOM     10  C   UNL     1      49.917  -5.525  44.795  0.00  0.00    +0.000 C 
ATOM     11  C   UNL     1      49.924  -6.500  45.976  0.00  0.00    +0.000 C 
BRANCH  11  12
ATOM     12  C   UNL     1      49.931  -7.474  47.159  0.00  0.00    +0.000 C 
ATOM     13  C   UNL     1      49.938  -8.447  48.341  0.00  0.00    +0.000 C 
ATOM     14  C   UNL     1      49.945  -9.422  49.523  0.00  0.00    +0.000 C 
ENDBRANCH  11  12
ENDBRANCH   9  10
ENDBRANCH   8   9
ENDBRANCH   6   7
ENDBRANCH   4   5
ENDBRANCH   1   3
BRANCH   2  15
ATOM     15  C   UNL     1      49.845   4.001  33.228  0.00  0.00    +0.000 C 
BRANCH  15  16
ATOM     16  C   UNL     1      49.837   4.908  32.130  0.00  0.00    +0.000 A 
ATOM     17  C   UNL     1      50.364   6.189  32.283  0.00  0.00    +0.000 A 
ATOM     18  C   UNL     1      49.303   4.509  30.906  0.00  0.00    +0.000 A 
ATOM     19  C   UNL     1      49.301   5.403  29.838  0.00  0.00    +0.000 A 
ATOM     20  C   UNL     1      50.352   7.068  31.203  0.00  0.00    +0.000 A 
ATOM     21  C   UNL     1      49.822   6.686  29.975  0.00  0.00    +0.000 A 
BRANCH  20  22
ATOM     22  O   UNL     1      50.862   8.328  31.328  0.00  0.00    +0.000 OA
ATOM     23  H   UNL     1      51.750   8.262  31.721  0.00  0.00    +0.000 HD
ENDBRANCH  20  22
BRANCH  19  24
ATOM     24  O   UNL     1      48.783   5.039  28.628  0.00  0.00    +0.000 OA
ATOM     25  H   UNL     1      48.654   5.843  28.095  0.00  0.00    +0.000 HD
ENDBRANCH  19  24
ENDBRANCH  15  16
ENDBRANCH   2  15
TORSDOF 10
ENDMDL
