MODEL 1
REMARK VINA RESULT:      -5.7      0.000      0.000
REMARK  Name = 85668777_Hyaluronidase.pdbqt.pdb
REMARK  5 active torsions:
REMARK  status: ('A' for Active; 'I' for Inactive)
REMARK    1  A    between atoms: N_1  and  C_13
REMARK    2  A    between atoms: C_14  and  C_15
REMARK    3  A    between atoms: C_15  and  C_16
REMARK    4  A    between atoms: C_17  and  C_19
REMARK    5  A    between atoms: C_19  and  O_20
REMARK                            x       y       z     vdW  Elec       q    Type
REMARK                         _______ _______ _______ _____ _____    ______ ____
ROOT
ATOM      1  N   UNL     1      29.758   0.547   3.940  0.00  0.00    +0.000 N 
ATOM      2  C   UNL     1      32.116   0.739   3.431  0.00  0.00    +0.000 C 
ATOM      3  C   UNL     1      31.381   2.073   3.309  0.00  0.00    +0.000 A 
ATOM      4  C   UNL     1      30.929  -0.208   3.860  0.00  0.00    +0.000 C 
ATOM      5  C   UNL     1      30.017   1.890   3.617  0.00  0.00    +0.000 A 
ATOM      6  C   UNL     1      32.712   0.353   2.040  0.00  0.00    +0.000 C 
ATOM      7  C   UNL     1      33.210   0.858   4.540  0.00  0.00    +0.000 C 
ATOM      8  C   UNL     1      31.872   3.323   2.957  0.00  0.00    +0.000 A 
ATOM      9  C   UNL     1      29.131   2.952   3.579  0.00  0.00    +0.000 A 
ATOM     10  C   UNL     1      30.930  -1.530   4.127  0.00  0.00    +0.000 C 
ATOM     11  C   UNL     1      30.978   4.392   2.920  0.00  0.00    +0.000 A 
ATOM     12  C   UNL     1      29.623   4.208   3.228  0.00  0.00    +0.000 A 
ENDROOT
BRANCH   1  13
ATOM     13  C   UNL     1      28.452   0.051   4.302  0.00  0.00    +0.000 C 
ATOM     14  C   UNL     1      27.065  -0.477   4.682  0.00  0.00    +0.000 C 
BRANCH  14  15
ATOM     15  C   UNL     1      25.678  -1.005   5.060  0.00  0.00    +0.000 C 
BRANCH  15  16
ATOM     16  C   UNL     1      24.291  -1.532   5.439  0.00  0.00    +0.000 C 
ATOM     17  C   UNL     1      22.904  -2.060   5.817  0.00  0.00    +0.000 C 
BRANCH  17  19
ATOM     18  O   UNL     1      21.093  -2.373   7.260  0.00  0.00    +0.000 OA
ATOM     19  C   UNL     1      21.607  -2.555   6.169  0.00  0.00    +0.000 C 
BRANCH  19  20
ATOM     20  O   UNL     1      20.998  -3.244   5.188  0.00  0.00    +0.000 OA
ATOM     21  H   UNL     1      21.280  -4.168   5.346  0.00  0.00    +0.000 HD
ENDBRANCH  19  20
ENDBRANCH  17  19
ENDBRANCH  15  16
ENDBRANCH  14  15
ENDBRANCH   1  13
TORSDOF 5
ENDMDL
MODEL 2
REMARK VINA RESULT:      -5.7      4.579      6.227
REMARK  Name = 85668777_Hyaluronidase.pdbqt.pdb
REMARK  5 active torsions:
REMARK  status: ('A' for Active; 'I' for Inactive)
REMARK    1  A    between atoms: N_1  and  C_13
REMARK    2  A    between atoms: C_14  and  C_15
REMARK    3  A    between atoms: C_15  and  C_16
REMARK    4  A    between atoms: C_17  and  C_19
REMARK    5  A    between atoms: C_19  and  O_20
REMARK                            x       y       z     vdW  Elec       q    Type
REMARK                         _______ _______ _______ _____ _____    ______ ____
ROOT
ATOM      1  N   UNL     1      29.539   2.110   3.987  0.00  0.00    +0.000 N 
ATOM      2  C   UNL     1      31.629   1.028   3.423  0.00  0.00    +0.000 C 
ATOM      3  C   UNL     1      30.565   0.036   3.894  0.00  0.00    +0.000 A 
ATOM      4  C   UNL     1      30.828   2.383   3.525  0.00  0.00    +0.000 C 
ATOM      5  C   UNL     1      29.379   0.732   4.206  0.00  0.00    +0.000 A 
ATOM      6  C   UNL     1      32.845   0.979   4.402  0.00  0.00    +0.000 C 
ATOM      7  C   UNL     1      32.030   0.685   1.952  0.00  0.00    +0.000 C 
ATOM      8  C   UNL     1      30.644  -1.342   4.034  0.00  0.00    +0.000 A 
ATOM      9  C   UNL     1      28.258   0.058   4.659  0.00  0.00    +0.000 A 
ATOM     10  C   UNL     1      31.220   3.643   3.243  0.00  0.00    +0.000 C 
ATOM     11  C   UNL     1      29.514  -2.019   4.491  0.00  0.00    +0.000 A 
ATOM     12  C   UNL     1      28.335  -1.327   4.799  0.00  0.00    +0.000 A 
ENDROOT
BRANCH   1  13
ATOM     13  C   UNL     1      28.497   3.082   4.215  0.00  0.00    +0.000 C 
ATOM     14  C   UNL     1      27.394   4.116   4.460  0.00  0.00    +0.000 C 
BRANCH  14  15
ATOM     15  C   UNL     1      26.292   5.151   4.706  0.00  0.00    +0.000 C 
BRANCH  15  16
ATOM     16  C   UNL     1      25.190   6.185   4.952  0.00  0.00    +0.000 C 
ATOM     17  C   UNL     1      24.087   7.219   5.199  0.00  0.00    +0.000 C 
BRANCH  17  19
ATOM     18  O   UNL     1      22.815   8.659   6.527  0.00  0.00    +0.000 OA
ATOM     19  C   UNL     1      23.056   8.184   5.431  0.00  0.00    +0.000 C 
BRANCH  19  20
ATOM     20  O   UNL     1      22.367   8.526   4.328  0.00  0.00    +0.000 OA
ATOM     21  H   UNL     1      21.847   7.724   4.121  0.00  0.00    +0.000 HD
ENDBRANCH  19  20
ENDBRANCH  17  19
ENDBRANCH  15  16
ENDBRANCH  14  15
ENDBRANCH   1  13
TORSDOF 5
ENDMDL
MODEL 3
REMARK VINA RESULT:      -5.7     35.826     36.982
REMARK  Name = 85668777_Hyaluronidase.pdbqt.pdb
REMARK  5 active torsions:
REMARK  status: ('A' for Active; 'I' for Inactive)
REMARK    1  A    between atoms: N_1  and  C_13
REMARK    2  A    between atoms: C_14  and  C_15
REMARK    3  A    between atoms: C_15  and  C_16
REMARK    4  A    between atoms: C_17  and  C_19
REMARK    5  A    between atoms: C_19  and  O_20
REMARK                            x       y       z     vdW  Elec       q    Type
REMARK                         _______ _______ _______ _____ _____    ______ ____
ROOT
ATOM      1  N   UNL     1      35.470 -12.591  38.854  0.00  0.00    +0.000 N 
ATOM      2  C   UNL     1      35.420 -11.962  41.190  0.00  0.00    +0.000 C 
ATOM      3  C   UNL     1      35.637 -10.764  40.266  0.00  0.00    +0.000 A 
ATOM      4  C   UNL     1      35.321 -13.130  40.133  0.00  0.00    +0.000 C 
ATOM      5  C   UNL     1      35.656 -11.200  38.925  0.00  0.00    +0.000 A 
ATOM      6  C   UNL     1      36.657 -12.114  42.130  0.00  0.00    +0.000 C 
ATOM      7  C   UNL     1      34.087 -11.763  41.981  0.00  0.00    +0.000 C 
ATOM      8  C   UNL     1      35.802  -9.423  40.584  0.00  0.00    +0.000 A 
ATOM      9  C   UNL     1      35.838 -10.303  37.888  0.00  0.00    +0.000 A 
ATOM     10  C   UNL     1      35.129 -14.452  40.319  0.00  0.00    +0.000 C 
ATOM     11  C   UNL     1      35.986  -8.520  39.538  0.00  0.00    +0.000 A 
ATOM     12  C   UNL     1      36.003  -8.955  38.205  0.00  0.00    +0.000 A 
ENDROOT
BRANCH   1  13
ATOM     13  C   UNL     1      35.439 -13.330  37.614  0.00  0.00    +0.000 C 
ATOM     14  C   UNL     1      35.412 -14.116  36.300  0.00  0.00    +0.000 C 
BRANCH  14  15
ATOM     15  C   UNL     1      35.385 -14.902  34.986  0.00  0.00    +0.000 C 
BRANCH  15  16
ATOM     16  C   UNL     1      35.358 -15.688  33.672  0.00  0.00    +0.000 C 
ATOM     17  C   UNL     1      35.331 -16.475  32.358  0.00  0.00    +0.000 C 
BRANCH  17  19
ATOM     18  O   UNL     1      34.987 -16.723  30.061  0.00  0.00    +0.000 OA
ATOM     19  C   UNL     1      35.306 -17.212  31.131  0.00  0.00    +0.000 C 
BRANCH  19  20
ATOM     20  O   UNL     1      35.667 -18.501  31.258  0.00  0.00    +0.000 OA
ATOM     21  H   UNL     1      36.590 -18.516  30.934  0.00  0.00    +0.000 HD
ENDBRANCH  19  20
ENDBRANCH  17  19
ENDBRANCH  15  16
ENDBRANCH  14  15
ENDBRANCH   1  13
TORSDOF 5
ENDMDL
MODEL 4
REMARK VINA RESULT:      -5.7     36.439     37.759
REMARK  Name = 85668777_Hyaluronidase.pdbqt.pdb
REMARK  5 active torsions:
REMARK  status: ('A' for Active; 'I' for Inactive)
REMARK    1  A    between atoms: N_1  and  C_13
REMARK    2  A    between atoms: C_14  and  C_15
REMARK    3  A    between atoms: C_15  and  C_16
REMARK    4  A    between atoms: C_17  and  C_19
REMARK    5  A    between atoms: C_19  and  O_20
REMARK                            x       y       z     vdW  Elec       q    Type
REMARK                         _______ _______ _______ _____ _____    ______ ____
ROOT
ATOM      1  N   UNL     1      35.861 -10.653  39.196  0.00  0.00    +0.000 N 
ATOM      2  C   UNL     1      35.887 -13.071  39.099  0.00  0.00    +0.000 C 
ATOM      3  C   UNL     1      35.750 -12.544  40.527  0.00  0.00    +0.000 A 
ATOM      4  C   UNL     1      35.952 -11.715  38.294  0.00  0.00    +0.000 C 
ATOM      5  C   UNL     1      35.742 -11.134  40.511  0.00  0.00    +0.000 A 
ATOM      6  C   UNL     1      37.208 -13.895  38.982  0.00  0.00    +0.000 C 
ATOM      7  C   UNL     1      34.621 -13.914  38.741  0.00  0.00    +0.000 C 
ATOM      8  C   UNL     1      35.645 -13.245  41.720  0.00  0.00    +0.000 A 
ATOM      9  C   UNL     1      35.628 -10.409  41.684  0.00  0.00    +0.000 A 
ATOM     10  C   UNL     1      36.073 -11.501  36.968  0.00  0.00    +0.000 C 
ATOM     11  C   UNL     1      35.530 -12.514  42.902  0.00  0.00    +0.000 A 
ATOM     12  C   UNL     1      35.520 -11.112  42.884  0.00  0.00    +0.000 A 
ENDROOT
BRANCH   1  13
ATOM     13  C   UNL     1      35.881  -9.250  38.858  0.00  0.00    +0.000 C 
ATOM     14  C   UNL     1      35.907  -7.760  38.502  0.00  0.00    +0.000 C 
BRANCH  14  15
ATOM     15  C   UNL     1      35.933  -6.270  38.148  0.00  0.00    +0.000 C 
BRANCH  15  16
ATOM     16  C   UNL     1      35.959  -4.781  37.794  0.00  0.00    +0.000 C 
ATOM     17  C   UNL     1      35.984  -3.291  37.440  0.00  0.00    +0.000 C 
BRANCH  17  19
ATOM     18  O   UNL     1      35.167  -1.103  37.495  0.00  0.00    +0.000 OA
ATOM     19  C   UNL     1      36.005  -1.898  37.108  0.00  0.00    +0.000 C 
BRANCH  19  20
ATOM     20  O   UNL     1      37.037  -1.538  36.325  0.00  0.00    +0.000 OA
ATOM     21  H   UNL     1      36.980  -0.561  36.301  0.00  0.00    +0.000 HD
ENDBRANCH  19  20
ENDBRANCH  17  19
ENDBRANCH  15  16
ENDBRANCH  14  15
ENDBRANCH   1  13
TORSDOF 5
ENDMDL
MODEL 5
REMARK VINA RESULT:      -5.5     14.150     17.329
REMARK  Name = 85668777_Hyaluronidase.pdbqt.pdb
REMARK  5 active torsions:
REMARK  status: ('A' for Active; 'I' for Inactive)
REMARK    1  A    between atoms: N_1  and  C_13
REMARK    2  A    between atoms: C_14  and  C_15
REMARK    3  A    between atoms: C_15  and  C_16
REMARK    4  A    between atoms: C_17  and  C_19
REMARK    5  A    between atoms: C_19  and  O_20
REMARK                            x       y       z     vdW  Elec       q    Type
REMARK                         _______ _______ _______ _____ _____    ______ ____
ROOT
ATOM      1  N   UNL     1      44.956  -3.564  10.136  0.00  0.00    +0.000 N 
ATOM      2  C   UNL     1      47.294  -4.121   9.854  0.00  0.00    +0.000 C 
ATOM      3  C   UNL     1      46.707  -4.694  11.144  0.00  0.00    +0.000 A 
ATOM      4  C   UNL     1      46.030  -3.386   9.262  0.00  0.00    +0.000 C 
ATOM      5  C   UNL     1      45.348  -4.332  11.245  0.00  0.00    +0.000 A 
ATOM      6  C   UNL     1      48.446  -3.129  10.212  0.00  0.00    +0.000 C 
ATOM      7  C   UNL     1      47.776  -5.297   8.946  0.00  0.00    +0.000 C 
ATOM      8  C   UNL     1      47.319  -5.457  12.129  0.00  0.00    +0.000 A 
ATOM      9  C   UNL     1      44.585  -4.729  12.329  0.00  0.00    +0.000 A 
ATOM     10  C   UNL     1      45.896  -2.679   8.121  0.00  0.00    +0.000 C 
ATOM     11  C   UNL     1      46.549  -5.856  13.221  0.00  0.00    +0.000 A 
ATOM     12  C   UNL     1      45.198  -5.497  13.319  0.00  0.00    +0.000 A 
ENDROOT
BRANCH   1  13
ATOM     13  C   UNL     1      43.621  -3.047   9.955  0.00  0.00    +0.000 C 
ATOM     14  C   UNL     1      42.202  -2.501   9.767  0.00  0.00    +0.000 C 
BRANCH  14  15
ATOM     15  C   UNL     1      40.783  -1.955   9.580  0.00  0.00    +0.000 C 
BRANCH  15  16
ATOM     16  C   UNL     1      39.365  -1.410   9.395  0.00  0.00    +0.000 C 
ATOM     17  C   UNL     1      37.945  -0.864   9.208  0.00  0.00    +0.000 C 
BRANCH  17  19
ATOM     18  O   UNL     1      36.333   0.825   9.139  0.00  0.00    +0.000 OA
ATOM     19  C   UNL     1      36.619  -0.355   9.032  0.00  0.00    +0.000 C 
BRANCH  19  20
ATOM     20  O   UNL     1      35.705  -1.297   8.738  0.00  0.00    +0.000 OA
ATOM     21  H   UNL     1      35.278  -0.958   7.925  0.00  0.00    +0.000 HD
ENDBRANCH  19  20
ENDBRANCH  17  19
ENDBRANCH  15  16
ENDBRANCH  14  15
ENDBRANCH   1  13
TORSDOF 5
ENDMDL
MODEL 6
REMARK VINA RESULT:      -5.5     13.306     16.635
REMARK  Name = 85668777_Hyaluronidase.pdbqt.pdb
REMARK  5 active torsions:
REMARK  status: ('A' for Active; 'I' for Inactive)
REMARK    1  A    between atoms: N_1  and  C_13
REMARK    2  A    between atoms: C_14  and  C_15
REMARK    3  A    between atoms: C_15  and  C_16
REMARK    4  A    between atoms: C_17  and  C_19
REMARK    5  A    between atoms: C_19  and  O_20
REMARK                            x       y       z     vdW  Elec       q    Type
REMARK                         _______ _______ _______ _____ _____    ______ ____
ROOT
ATOM      1  N   UNL     1      40.416   0.089  10.861  0.00  0.00    +0.000 N 
ATOM      2  C   UNL     1      39.089   2.104  11.041  0.00  0.00    +0.000 C 
ATOM      3  C   UNL     1      38.357   0.986  10.298  0.00  0.00    +0.000 A 
ATOM      4  C   UNL     1      40.455   1.388  11.371  0.00  0.00    +0.000 C 
ATOM      5  C   UNL     1      39.185  -0.154  10.229  0.00  0.00    +0.000 A 
ATOM      6  C   UNL     1      39.272   3.323  10.082  0.00  0.00    +0.000 C 
ATOM      7  C   UNL     1      38.285   2.472  12.330  0.00  0.00    +0.000 C 
ATOM      8  C   UNL     1      37.087   0.982   9.739  0.00  0.00    +0.000 A 
ATOM      9  C   UNL     1      38.752  -1.309   9.603  0.00  0.00    +0.000 A 
ATOM     10  C   UNL     1      41.540   1.852  12.023  0.00  0.00    +0.000 C 
ATOM     11  C   UNL     1      36.653  -0.183   9.108  0.00  0.00    +0.000 A 
ATOM     12  C   UNL     1      37.476  -1.315   9.041  0.00  0.00    +0.000 A 
ENDROOT
BRANCH   1  13
ATOM     13  C   UNL     1      41.471  -0.891  10.955  0.00  0.00    +0.000 C 
ATOM     14  C   UNL     1      42.588  -1.935  11.056  0.00  0.00    +0.000 C 
BRANCH  14  15
ATOM     15  C   UNL     1      43.704  -2.979  11.157  0.00  0.00    +0.000 C 
BRANCH  15  16
ATOM     16  C   UNL     1      44.819  -4.023  11.257  0.00  0.00    +0.000 C 
ATOM     17  C   UNL     1      45.936  -5.068  11.357  0.00  0.00    +0.000 C 
BRANCH  17  19
ATOM     18  O   UNL     1      48.110  -5.783  11.823  0.00  0.00    +0.000 OA
ATOM     19  C   UNL     1      46.980  -6.043  11.448  0.00  0.00    +0.000 C 
BRANCH  19  20
ATOM     20  O   UNL     1      46.606  -7.281  11.083  0.00  0.00    +0.000 OA
ATOM     21  H   UNL     1      47.161  -7.469  10.299  0.00  0.00    +0.000 HD
ENDBRANCH  19  20
ENDBRANCH  17  19
ENDBRANCH  15  16
ENDBRANCH  14  15
ENDBRANCH   1  13
TORSDOF 5
ENDMDL
MODEL 7
REMARK VINA RESULT:      -5.4     12.782     15.863
REMARK  Name = 85668777_Hyaluronidase.pdbqt.pdb
REMARK  5 active torsions:
REMARK  status: ('A' for Active; 'I' for Inactive)
REMARK    1  A    between atoms: N_1  and  C_13
REMARK    2  A    between atoms: C_14  and  C_15
REMARK    3  A    between atoms: C_15  and  C_16
REMARK    4  A    between atoms: C_17  and  C_19
REMARK    5  A    between atoms: C_19  and  O_20
REMARK                            x       y       z     vdW  Elec       q    Type
REMARK                         _______ _______ _______ _____ _____    ______ ____
ROOT
ATOM      1  N   UNL     1      39.223   0.889  11.187  0.00  0.00    +0.000 N 
ATOM      2  C   UNL     1      38.387  -0.437   9.343  0.00  0.00    +0.000 C 
ATOM      3  C   UNL     1      39.770  -0.890   9.809  0.00  0.00    +0.000 A 
ATOM      4  C   UNL     1      38.123   0.759  10.338  0.00  0.00    +0.000 C 
ATOM      5  C   UNL     1      40.196  -0.078  10.881  0.00  0.00    +0.000 A 
ATOM      6  C   UNL     1      38.477   0.035   7.857  0.00  0.00    +0.000 C 
ATOM      7  C   UNL     1      37.372  -1.608   9.539  0.00  0.00    +0.000 C 
ATOM      8  C   UNL     1      40.571  -1.918   9.330  0.00  0.00    +0.000 A 
ATOM      9  C   UNL     1      41.423  -0.284  11.486  0.00  0.00    +0.000 A 
ATOM     10  C   UNL     1      37.057   1.580  10.441  0.00  0.00    +0.000 C 
ATOM     11  C   UNL     1      41.807  -2.124   9.940  0.00  0.00    +0.000 A 
ATOM     12  C   UNL     1      42.228  -1.318  11.006  0.00  0.00    +0.000 A 
ENDROOT
BRANCH   1  13
ATOM     13  C   UNL     1      39.372   1.865  12.240  0.00  0.00    +0.000 C 
ATOM     14  C   UNL     1      39.528   2.905  13.354  0.00  0.00    +0.000 C 
BRANCH  14  15
ATOM     15  C   UNL     1      39.684   3.945  14.467  0.00  0.00    +0.000 C 
BRANCH  15  16
ATOM     16  C   UNL     1      39.839   4.984  15.580  0.00  0.00    +0.000 C 
ATOM     17  C   UNL     1      39.995   6.024  16.695  0.00  0.00    +0.000 C 
BRANCH  17  19
ATOM     18  O   UNL     1      39.289   7.822  18.009  0.00  0.00    +0.000 OA
ATOM     19  C   UNL     1      40.142   6.994  17.737  0.00  0.00    +0.000 C 
BRANCH  19  20
ATOM     20  O   UNL     1      41.310   6.917  18.397  0.00  0.00    +0.000 OA
ATOM     21  H   UNL     1      41.047   6.952  19.339  0.00  0.00    +0.000 HD
ENDBRANCH  19  20
ENDBRANCH  17  19
ENDBRANCH  15  16
ENDBRANCH  14  15
ENDBRANCH   1  13
TORSDOF 5
ENDMDL
MODEL 8
REMARK VINA RESULT:      -5.3     36.426     38.899
REMARK  Name = 85668777_Hyaluronidase.pdbqt.pdb
REMARK  5 active torsions:
REMARK  status: ('A' for Active; 'I' for Inactive)
REMARK    1  A    between atoms: N_1  and  C_13
REMARK    2  A    between atoms: C_14  and  C_15
REMARK    3  A    between atoms: C_15  and  C_16
REMARK    4  A    between atoms: C_17  and  C_19
REMARK    5  A    between atoms: C_19  and  O_20
REMARK                            x       y       z     vdW  Elec       q    Type
REMARK                         _______ _______ _______ _____ _____    ______ ____
ROOT
ATOM      1  N   UNL     1      49.986  -0.556  36.757  0.00  0.00    +0.000 N 
ATOM      2  C   UNL     1      50.449  -2.587  37.988  0.00  0.00    +0.000 C 
ATOM      3  C   UNL     1      50.108  -1.413  38.905  0.00  0.00    +0.000 A 
ATOM      4  C   UNL     1      50.335  -1.895  36.575  0.00  0.00    +0.000 C 
ATOM      5  C   UNL     1      49.851  -0.266  38.125  0.00  0.00    +0.000 A 
ATOM      6  C   UNL     1      51.900  -3.074  38.297  0.00  0.00    +0.000 C 
ATOM      7  C   UNL     1      49.384  -3.715  38.185  0.00  0.00    +0.000 C 
ATOM      8  C   UNL     1      50.034  -1.366  40.290  0.00  0.00    +0.000 A 
ATOM      9  C   UNL     1      49.518   0.938  38.720  0.00  0.00    +0.000 A 
ATOM     10  C   UNL     1      50.521  -2.410  35.342  0.00  0.00    +0.000 C 
ATOM     11  C   UNL     1      49.698  -0.152  40.888  0.00  0.00    +0.000 A 
ATOM     12  C   UNL     1      49.442   0.986  40.112  0.00  0.00    +0.000 A 
ENDROOT
BRANCH   1  13
ATOM     13  C   UNL     1      49.784   0.417  35.711  0.00  0.00    +0.000 C 
ATOM     14  C   UNL     1      49.572   1.447  34.597  0.00  0.00    +0.000 C 
BRANCH  14  15
ATOM     15  C   UNL     1      49.360   2.477  33.483  0.00  0.00    +0.000 C 
BRANCH  15  16
ATOM     16  C   UNL     1      49.149   3.507  32.370  0.00  0.00    +0.000 C 
ATOM     17  C   UNL     1      48.937   4.538  31.257  0.00  0.00    +0.000 C 
BRANCH  17  19
ATOM     18  O   UNL     1      48.630   6.698  30.423  0.00  0.00    +0.000 OA
ATOM     19  C   UNL     1      48.741   5.502  30.217  0.00  0.00    +0.000 C 
BRANCH  19  20
ATOM     20  O   UNL     1      48.689   4.973  28.982  0.00  0.00    +0.000 OA
ATOM     21  H   UNL     1      47.737   5.005  28.757  0.00  0.00    +0.000 HD
ENDBRANCH  19  20
ENDBRANCH  17  19
ENDBRANCH  15  16
ENDBRANCH  14  15
ENDBRANCH   1  13
TORSDOF 5
ENDMDL
MODEL 9
REMARK VINA RESULT:      -5.1     21.090     23.722
REMARK  Name = 85668777_Hyaluronidase.pdbqt.pdb
REMARK  5 active torsions:
REMARK  status: ('A' for Active; 'I' for Inactive)
REMARK    1  A    between atoms: N_1  and  C_13
REMARK    2  A    between atoms: C_14  and  C_15
REMARK    3  A    between atoms: C_15  and  C_16
REMARK    4  A    between atoms: C_17  and  C_19
REMARK    5  A    between atoms: C_19  and  O_20
REMARK                            x       y       z     vdW  Elec       q    Type
REMARK                         _______ _______ _______ _____ _____    ______ ____
ROOT
ATOM      1  N   UNL     1      42.488 -17.098  -4.644  0.00  0.00    +0.000 N 
ATOM      2  C   UNL     1      43.667 -17.404  -6.736  0.00  0.00    +0.000 C 
ATOM      3  C   UNL     1      43.429 -18.723  -6.000  0.00  0.00    +0.000 A 
ATOM      4  C   UNL     1      42.993 -16.387  -5.734  0.00  0.00    +0.000 C 
ATOM      5  C   UNL     1      42.741 -18.472  -4.794  0.00  0.00    +0.000 A 
ATOM      6  C   UNL     1      45.203 -17.168  -6.880  0.00  0.00    +0.000 C 
ATOM      7  C   UNL     1      42.935 -17.450  -8.116  0.00  0.00    +0.000 C 
ATOM      8  C   UNL     1      43.788 -20.013  -6.363  0.00  0.00    +0.000 A 
ATOM      9  C   UNL     1      42.404 -19.507  -3.940  0.00  0.00    +0.000 A 
ATOM     10  C   UNL     1      42.870 -15.047  -5.815  0.00  0.00    +0.000 C 
ATOM     11  C   UNL     1      43.448 -21.055  -5.501  0.00  0.00    +0.000 A 
ATOM     12  C   UNL     1      42.763 -20.804  -4.304  0.00  0.00    +0.000 A 
ENDROOT
BRANCH   1  13
ATOM     13  C   UNL     1      41.798 -16.533  -3.509  0.00  0.00    +0.000 C 
ATOM     14  C   UNL     1      41.070 -15.930  -2.305  0.00  0.00    +0.000 C 
BRANCH  14  15
ATOM     15  C   UNL     1      40.342 -15.326  -1.100  0.00  0.00    +0.000 C 
BRANCH  15  16
ATOM     16  C   UNL     1      39.614 -14.723   0.104  0.00  0.00    +0.000 C 
ATOM     17  C   UNL     1      38.886 -14.119   1.310  0.00  0.00    +0.000 C 
BRANCH  17  19
ATOM     18  O   UNL     1      38.357 -13.950   3.579  0.00  0.00    +0.000 OA
ATOM     19  C   UNL     1      38.207 -13.554   2.436  0.00  0.00    +0.000 C 
BRANCH  19  20
ATOM     20  O   UNL     1      37.380 -12.540   2.125  0.00  0.00    +0.000 OA
ATOM     21  H   UNL     1      37.074 -12.760   1.222  0.00  0.00    +0.000 HD
ENDBRANCH  19  20
ENDBRANCH  17  19
ENDBRANCH  15  16
ENDBRANCH  14  15
ENDBRANCH   1  13
TORSDOF 5
ENDMDL
