MODEL 1
REMARK VINA RESULT:      -4.9      0.000      0.000
REMARK  Name = 86311066_OplopantriolA.pdbqt.pdb
REMARK  12 active torsions:
REMARK  status: ('A' for Active; 'I' for Inactive)
REMARK    1  A    between atoms: C_1  and  C_3
REMARK    2  A    between atoms: C_2  and  C_13
REMARK    3  A    between atoms: C_4  and  C_5
REMARK    4  A    between atoms: C_6  and  C_7
REMARK    5  A    between atoms: C_8  and  C_9
REMARK    6  A    between atoms: C_10  and  O_11
REMARK    7  A    between atoms: C_13  and  O_14
REMARK    8  A    between atoms: C_13  and  C_16
REMARK    9  A    between atoms: C_17  and  C_18
REMARK   10  A    between atoms: C_19  and  C_20
REMARK   11  A    between atoms: C_20  and  C_21
REMARK   12  A    between atoms: C_20  and  O_23
REMARK                            x       y       z     vdW  Elec       q    Type
REMARK                         _______ _______ _______ _____ _____    ______ ____
ROOT
ATOM      1  C   UNL     1      40.095  -0.311  10.200  0.00  0.00    +0.000 C 
ATOM      2  C   UNL     1      41.066  -0.461  10.891  0.00  0.00    +0.000 C 
ENDROOT
BRANCH   1   3
ATOM      3  C   UNL     1      38.857  -0.122   9.320  0.00  0.00    +0.000 C 
ATOM      4  C   UNL     1      37.618   0.067   8.439  0.00  0.00    +0.000 C 
BRANCH   4   5
ATOM      5  C   UNL     1      36.379   0.255   7.558  0.00  0.00    +0.000 C 
ATOM      6  C   UNL     1      35.141   0.442   6.676  0.00  0.00    +0.000 C 
BRANCH   6   7
ATOM      7  C   UNL     1      33.903   0.630   5.794  0.00  0.00    +0.000 C 
ATOM      8  C   UNL     1      32.665   0.817   4.911  0.00  0.00    +0.000 C 
BRANCH   8   9
ATOM      9  C   UNL     1      31.428   1.004   4.029  0.00  0.00    +0.000 C 
ATOM     10  C   UNL     1      30.190   1.191   3.145  0.00  0.00    +0.000 C 
BRANCH  10  11
ATOM     11  O   UNL     1      29.118   1.352   2.380  0.00  0.00    +0.000 OA
ATOM     12  H   UNL     1      29.118   2.238   1.979  0.00  0.00    +0.000 HD
ENDBRANCH  10  11
ENDBRANCH   8   9
ENDBRANCH   6   7
ENDBRANCH   4   5
ENDBRANCH   1   3
BRANCH   2  13
ATOM     13  C   UNL     1      42.212  -0.638  11.705  0.00  0.00    +0.000 C 
BRANCH  13  14
ATOM     14  O   UNL     1      42.433   0.286  12.701  0.00  0.00    +0.000 OA
ATOM     15  H   UNL     1      42.304   1.195  12.381  0.00  0.00    +0.000 HD
ENDBRANCH  13  14
BRANCH  13  16
ATOM     16  C   UNL     1      43.132  -1.706  11.547  0.00  0.00    +0.000 C 
ATOM     17  C   UNL     1      43.911  -2.609  11.413  0.00  0.00    +0.000 C 
BRANCH  17  18
ATOM     18  C   UNL     1      44.906  -3.760  11.241  0.00  0.00    +0.000 C 
ATOM     19  C   UNL     1      45.687  -4.663  11.106  0.00  0.00    +0.000 C 
BRANCH  19  20
ATOM     20  C   UNL     1      46.611  -5.729  10.948  0.00  0.00    +0.000 C 
BRANCH  20  21
ATOM     21  C   UNL     1      47.120  -6.140   9.684  0.00  0.00    +0.000 C 
ATOM     22  C   UNL     1      47.586  -6.537   8.498  0.00  0.00    +0.000 C 
ENDBRANCH  20  21
BRANCH  20  23
ATOM     23  O   UNL     1      47.035  -6.401  12.076  0.00  0.00    +0.000 OA
ATOM     24  H   UNL     1      46.896  -5.877  12.883  0.00  0.00    +0.000 HD
ENDBRANCH  20  23
ENDBRANCH  19  20
ENDBRANCH  17  18
ENDBRANCH  13  16
ENDBRANCH   2  13
TORSDOF 12
ENDMDL
MODEL 2
REMARK VINA RESULT:      -4.3     24.948     29.383
REMARK  Name = 86311066_OplopantriolA.pdbqt.pdb
REMARK  12 active torsions:
REMARK  status: ('A' for Active; 'I' for Inactive)
REMARK    1  A    between atoms: C_1  and  C_3
REMARK    2  A    between atoms: C_2  and  C_13
REMARK    3  A    between atoms: C_4  and  C_5
REMARK    4  A    between atoms: C_6  and  C_7
REMARK    5  A    between atoms: C_8  and  C_9
REMARK    6  A    between atoms: C_10  and  O_11
REMARK    7  A    between atoms: C_13  and  O_14
REMARK    8  A    between atoms: C_13  and  C_16
REMARK    9  A    between atoms: C_17  and  C_18
REMARK   10  A    between atoms: C_19  and  C_20
REMARK   11  A    between atoms: C_20  and  C_21
REMARK   12  A    between atoms: C_20  and  O_23
REMARK                            x       y       z     vdW  Elec       q    Type
REMARK                         _______ _______ _______ _____ _____    ______ ____
ROOT
ATOM      1  C   UNL     1      21.758  15.665  18.129  0.00  0.00    +0.000 C 
ATOM      2  C   UNL     1      22.031  16.831  18.029  0.00  0.00    +0.000 C 
ENDROOT
BRANCH   1   3
ATOM      3  C   UNL     1      21.409  14.180  18.258  0.00  0.00    +0.000 C 
ATOM      4  C   UNL     1      21.061  12.694  18.387  0.00  0.00    +0.000 C 
BRANCH   4   5
ATOM      5  C   UNL     1      20.713  11.208  18.516  0.00  0.00    +0.000 C 
ATOM      6  C   UNL     1      20.368   9.721  18.645  0.00  0.00    +0.000 C 
BRANCH   6   7
ATOM      7  C   UNL     1      20.021   8.235  18.773  0.00  0.00    +0.000 C 
ATOM      8  C   UNL     1      19.674   6.748  18.901  0.00  0.00    +0.000 C 
BRANCH   8   9
ATOM      9  C   UNL     1      19.329   5.262  19.029  0.00  0.00    +0.000 C 
ATOM     10  C   UNL     1      18.985   3.775  19.156  0.00  0.00    +0.000 C 
BRANCH  10  11
ATOM     11  O   UNL     1      18.686   2.486  19.267  0.00  0.00    +0.000 OA
ATOM     12  H   UNL     1      19.265   1.954  18.695  0.00  0.00    +0.000 HD
ENDBRANCH  10  11
ENDBRANCH   8   9
ENDBRANCH   6   7
ENDBRANCH   4   5
ENDBRANCH   1   3
BRANCH   2  13
ATOM     13  C   UNL     1      22.354  18.205  17.911  0.00  0.00    +0.000 C 
BRANCH  13  14
ATOM     14  O   UNL     1      22.788  18.653  16.684  0.00  0.00    +0.000 OA
ATOM     15  H   UNL     1      22.599  18.010  15.981  0.00  0.00    +0.000 HD
ENDBRANCH  13  14
BRANCH  13  16
ATOM     16  C   UNL     1      22.255  19.131  18.981  0.00  0.00    +0.000 C 
ATOM     17  C   UNL     1      22.171  19.916  19.885  0.00  0.00    +0.000 C 
BRANCH  17  18
ATOM     18  C   UNL     1      22.063  20.918  21.038  0.00  0.00    +0.000 C 
ATOM     19  C   UNL     1      21.979  21.704  21.942  0.00  0.00    +0.000 C 
BRANCH  19  20
ATOM     20  C   UNL     1      21.881  22.634  23.010  0.00  0.00    +0.000 C 
BRANCH  20  21
ATOM     21  C   UNL     1      22.475  22.425  24.286  0.00  0.00    +0.000 C 
ATOM     22  C   UNL     1      23.045  22.222  25.476  0.00  0.00    +0.000 C 
ENDBRANCH  20  21
BRANCH  20  23
ATOM     23  O   UNL     1      21.172  23.800  22.800  0.00  0.00    +0.000 OA
ATOM     24  H   UNL     1      20.372  23.841  23.351  0.00  0.00    +0.000 HD
ENDBRANCH  20  23
ENDBRANCH  19  20
ENDBRANCH  17  18
ENDBRANCH  13  16
ENDBRANCH   2  13
TORSDOF 12
ENDMDL
MODEL 3
REMARK VINA RESULT:      -4.2     25.349     31.318
REMARK  Name = 86311066_OplopantriolA.pdbqt.pdb
REMARK  12 active torsions:
REMARK  status: ('A' for Active; 'I' for Inactive)
REMARK    1  A    between atoms: C_1  and  C_3
REMARK    2  A    between atoms: C_2  and  C_13
REMARK    3  A    between atoms: C_4  and  C_5
REMARK    4  A    between atoms: C_6  and  C_7
REMARK    5  A    between atoms: C_8  and  C_9
REMARK    6  A    between atoms: C_10  and  O_11
REMARK    7  A    between atoms: C_13  and  O_14
REMARK    8  A    between atoms: C_13  and  C_16
REMARK    9  A    between atoms: C_17  and  C_18
REMARK   10  A    between atoms: C_19  and  C_20
REMARK   11  A    between atoms: C_20  and  C_21
REMARK   12  A    between atoms: C_20  and  O_23
REMARK                            x       y       z     vdW  Elec       q    Type
REMARK                         _______ _______ _______ _____ _____    ______ ____
ROOT
ATOM      1  C   UNL     1      49.643  -1.922  37.104  0.00  0.00    +0.000 C 
ATOM      2  C   UNL     1      49.361  -0.761  36.981  0.00  0.00    +0.000 C 
ENDROOT
BRANCH   1   3
ATOM      3  C   UNL     1      50.003  -3.402  37.259  0.00  0.00    +0.000 C 
ATOM      4  C   UNL     1      50.365  -4.882  37.415  0.00  0.00    +0.000 C 
BRANCH   4   5
ATOM      5  C   UNL     1      50.726  -6.363  37.570  0.00  0.00    +0.000 C 
ATOM      6  C   UNL     1      51.086  -7.843  37.724  0.00  0.00    +0.000 C 
BRANCH   6   7
ATOM      7  C   UNL     1      51.446  -9.324  37.878  0.00  0.00    +0.000 C 
ATOM      8  C   UNL     1      51.807 -10.805  38.033  0.00  0.00    +0.000 C 
BRANCH   8   9
ATOM      9  C   UNL     1      52.168 -12.285  38.186  0.00  0.00    +0.000 C 
ATOM     10  C   UNL     1      52.528 -13.766  38.339  0.00  0.00    +0.000 C 
BRANCH  10  11
ATOM     11  O   UNL     1      52.841 -15.049  38.472  0.00  0.00    +0.000 OA
ATOM     12  H   UNL     1      52.541 -15.553  37.696  0.00  0.00    +0.000 HD
ENDBRANCH  10  11
ENDBRANCH   8   9
ENDBRANCH   6   7
ENDBRANCH   4   5
ENDBRANCH   1   3
BRANCH   2  13
ATOM     13  C   UNL     1      49.028   0.608  36.836  0.00  0.00    +0.000 C 
BRANCH  13  14
ATOM     14  O   UNL     1      48.722   1.313  37.977  0.00  0.00    +0.000 OA
ATOM     15  H   UNL     1      47.817   1.130  38.279  0.00  0.00    +0.000 HD
ENDBRANCH  13  14
BRANCH  13  16
ATOM     16  C   UNL     1      48.995   1.282  35.587  0.00  0.00    +0.000 C 
ATOM     17  C   UNL     1      48.967   1.850  34.530  0.00  0.00    +0.000 C 
BRANCH  17  18
ATOM     18  C   UNL     1      48.930   2.574  33.182  0.00  0.00    +0.000 C 
ATOM     19  C   UNL     1      48.901   3.141  32.124  0.00  0.00    +0.000 C 
BRANCH  19  20
ATOM     20  C   UNL     1      48.868   3.812  30.873  0.00  0.00    +0.000 C 
BRANCH  20  21
ATOM     21  C   UNL     1      48.910   5.228  30.744  0.00  0.00    +0.000 C 
ATOM     22  C   UNL     1      48.934   6.557  30.623  0.00  0.00    +0.000 C 
ENDBRANCH  20  21
BRANCH  20  23
ATOM     23  O   UNL     1      48.790   3.051  29.724  0.00  0.00    +0.000 OA
ATOM     24  H   UNL     1      47.885   3.022  29.369  0.00  0.00    +0.000 HD
ENDBRANCH  20  23
ENDBRANCH  19  20
ENDBRANCH  17  18
ENDBRANCH  13  16
ENDBRANCH   2  13
TORSDOF 12
ENDMDL
MODEL 4
REMARK VINA RESULT:      -4.2     24.494     26.611
REMARK  Name = 86311066_OplopantriolA.pdbqt.pdb
REMARK  12 active torsions:
REMARK  status: ('A' for Active; 'I' for Inactive)
REMARK    1  A    between atoms: C_1  and  C_3
REMARK    2  A    between atoms: C_2  and  C_13
REMARK    3  A    between atoms: C_4  and  C_5
REMARK    4  A    between atoms: C_6  and  C_7
REMARK    5  A    between atoms: C_8  and  C_9
REMARK    6  A    between atoms: C_10  and  O_11
REMARK    7  A    between atoms: C_13  and  O_14
REMARK    8  A    between atoms: C_13  and  C_16
REMARK    9  A    between atoms: C_17  and  C_18
REMARK   10  A    between atoms: C_19  and  C_20
REMARK   11  A    between atoms: C_20  and  C_21
REMARK   12  A    between atoms: C_20  and  O_23
REMARK                            x       y       z     vdW  Elec       q    Type
REMARK                         _______ _______ _______ _____ _____    ______ ____
ROOT
ATOM      1  C   UNL     1      21.684  15.657  17.713  0.00  0.00    +0.000 C 
ATOM      2  C   UNL     1      21.941  16.820  17.562  0.00  0.00    +0.000 C 
ENDROOT
BRANCH   1   3
ATOM      3  C   UNL     1      21.356  14.174  17.905  0.00  0.00    +0.000 C 
ATOM      4  C   UNL     1      21.029  12.690  18.096  0.00  0.00    +0.000 C 
BRANCH   4   5
ATOM      5  C   UNL     1      20.701  11.205  18.287  0.00  0.00    +0.000 C 
ATOM      6  C   UNL     1      20.376   9.721  18.477  0.00  0.00    +0.000 C 
BRANCH   6   7
ATOM      7  C   UNL     1      20.049   8.237  18.667  0.00  0.00    +0.000 C 
ATOM      8  C   UNL     1      19.722   6.752  18.857  0.00  0.00    +0.000 C 
BRANCH   8   9
ATOM      9  C   UNL     1      19.394   5.268  19.047  0.00  0.00    +0.000 C 
ATOM     10  C   UNL     1      19.066   3.784  19.238  0.00  0.00    +0.000 C 
BRANCH  10  11
ATOM     11  O   UNL     1      18.781   2.498  19.403  0.00  0.00    +0.000 OA
ATOM     12  H   UNL     1      18.266   2.367  20.216  0.00  0.00    +0.000 HD
ENDBRANCH  10  11
ENDBRANCH   8   9
ENDBRANCH   6   7
ENDBRANCH   4   5
ENDBRANCH   1   3
BRANCH   2  13
ATOM     13  C   UNL     1      22.244  18.192  17.383  0.00  0.00    +0.000 C 
BRANCH  13  14
ATOM     14  O   UNL     1      21.391  19.111  17.951  0.00  0.00    +0.000 OA
ATOM     15  H   UNL     1      21.767  19.495  18.761  0.00  0.00    +0.000 HD
ENDBRANCH  13  14
BRANCH  13  16
ATOM     16  C   UNL     1      23.369  18.662  16.657  0.00  0.00    +0.000 C 
ATOM     17  C   UNL     1      24.320  19.060  16.042  0.00  0.00    +0.000 C 
BRANCH  17  18
ATOM     18  C   UNL     1      25.533  19.569  15.260  0.00  0.00    +0.000 C 
ATOM     19  C   UNL     1      26.485  19.969  14.646  0.00  0.00    +0.000 C 
BRANCH  19  20
ATOM     20  C   UNL     1      27.609  20.443  13.920  0.00  0.00    +0.000 C 
BRANCH  20  21
ATOM     21  C   UNL     1      28.885  19.815  13.958  0.00  0.00    +0.000 C 
ATOM     22  C   UNL     1      30.084  19.230  14.009  0.00  0.00    +0.000 C 
ENDBRANCH  20  21
BRANCH  20  23
ATOM     23  O   UNL     1      27.456  21.570  13.138  0.00  0.00    +0.000 OA
ATOM     24  H   UNL     1      27.145  22.331  13.657  0.00  0.00    +0.000 HD
ENDBRANCH  20  23
ENDBRANCH  19  20
ENDBRANCH  17  18
ENDBRANCH  13  16
ENDBRANCH   2  13
TORSDOF 12
ENDMDL
MODEL 5
REMARK VINA RESULT:      -4.2     13.426     18.658
REMARK  Name = 86311066_OplopantriolA.pdbqt.pdb
REMARK  12 active torsions:
REMARK  status: ('A' for Active; 'I' for Inactive)
REMARK    1  A    between atoms: C_1  and  C_3
REMARK    2  A    between atoms: C_2  and  C_13
REMARK    3  A    between atoms: C_4  and  C_5
REMARK    4  A    between atoms: C_6  and  C_7
REMARK    5  A    between atoms: C_8  and  C_9
REMARK    6  A    between atoms: C_10  and  O_11
REMARK    7  A    between atoms: C_13  and  O_14
REMARK    8  A    between atoms: C_13  and  C_16
REMARK    9  A    between atoms: C_17  and  C_18
REMARK   10  A    between atoms: C_19  and  C_20
REMARK   11  A    between atoms: C_20  and  C_21
REMARK   12  A    between atoms: C_20  and  O_23
REMARK                            x       y       z     vdW  Elec       q    Type
REMARK                         _______ _______ _______ _____ _____    ______ ____
ROOT
ATOM      1  C   UNL     1      51.497 -11.182  15.392  0.00  0.00    +0.000 C 
ATOM      2  C   UNL     1      52.014 -10.104  15.508  0.00  0.00    +0.000 C 
ENDROOT
BRANCH   1   3
ATOM      3  C   UNL     1      50.838 -12.556  15.243  0.00  0.00    +0.000 C 
ATOM      4  C   UNL     1      50.179 -13.930  15.095  0.00  0.00    +0.000 C 
BRANCH   4   5
ATOM      5  C   UNL     1      49.519 -15.305  14.947  0.00  0.00    +0.000 C 
ATOM      6  C   UNL     1      48.860 -16.679  14.797  0.00  0.00    +0.000 C 
BRANCH   6   7
ATOM      7  C   UNL     1      48.201 -18.054  14.649  0.00  0.00    +0.000 C 
ATOM      8  C   UNL     1      47.542 -19.428  14.500  0.00  0.00    +0.000 C 
BRANCH   8   9
ATOM      9  C   UNL     1      46.884 -20.803  14.350  0.00  0.00    +0.000 C 
ATOM     10  C   UNL     1      46.226 -22.178  14.202  0.00  0.00    +0.000 C 
BRANCH  10  11
ATOM     11  O   UNL     1      45.655 -23.370  14.072  0.00  0.00    +0.000 OA
ATOM     12  H   UNL     1      45.799 -23.718  13.176  0.00  0.00    +0.000 HD
ENDBRANCH  10  11
ENDBRANCH   8   9
ENDBRANCH   6   7
ENDBRANCH   4   5
ENDBRANCH   1   3
BRANCH   2  13
ATOM     13  C   UNL     1      52.623  -8.832  15.644  0.00  0.00    +0.000 C 
BRANCH  13  14
ATOM     14  O   UNL     1      53.985  -8.796  15.837  0.00  0.00    +0.000 OA
ATOM     15  H   UNL     1      54.329  -9.659  16.124  0.00  0.00    +0.000 HD
ENDBRANCH  13  14
BRANCH  13  16
ATOM     16  C   UNL     1      51.908  -7.608  15.593  0.00  0.00    +0.000 C 
ATOM     17  C   UNL     1      51.303  -6.572  15.548  0.00  0.00    +0.000 C 
BRANCH  17  18
ATOM     18  C   UNL     1      50.534  -5.250  15.490  0.00  0.00    +0.000 C 
ATOM     19  C   UNL     1      49.930  -4.212  15.444  0.00  0.00    +0.000 C 
BRANCH  19  20
ATOM     20  C   UNL     1      49.217  -2.986  15.390  0.00  0.00    +0.000 C 
BRANCH  20  21
ATOM     21  C   UNL     1      49.850  -1.712  15.431  0.00  0.00    +0.000 C 
ATOM     22  C   UNL     1      50.457  -0.523  15.463  0.00  0.00    +0.000 C 
ENDBRANCH  20  21
BRANCH  20  23
ATOM     23  O   UNL     1      47.841  -3.031  15.295  0.00  0.00    +0.000 OA
ATOM     24  H   UNL     1      47.548  -3.259  14.396  0.00  0.00    +0.000 HD
ENDBRANCH  20  23
ENDBRANCH  19  20
ENDBRANCH  17  18
ENDBRANCH  13  16
ENDBRANCH   2  13
TORSDOF 12
ENDMDL
MODEL 6
REMARK VINA RESULT:      -4.0     27.101     31.658
REMARK  Name = 86311066_OplopantriolA.pdbqt.pdb
REMARK  12 active torsions:
REMARK  status: ('A' for Active; 'I' for Inactive)
REMARK    1  A    between atoms: C_1  and  C_3
REMARK    2  A    between atoms: C_2  and  C_13
REMARK    3  A    between atoms: C_4  and  C_5
REMARK    4  A    between atoms: C_6  and  C_7
REMARK    5  A    between atoms: C_8  and  C_9
REMARK    6  A    between atoms: C_10  and  O_11
REMARK    7  A    between atoms: C_13  and  O_14
REMARK    8  A    between atoms: C_13  and  C_16
REMARK    9  A    between atoms: C_17  and  C_18
REMARK   10  A    between atoms: C_19  and  C_20
REMARK   11  A    between atoms: C_20  and  C_21
REMARK   12  A    between atoms: C_20  and  O_23
REMARK                            x       y       z     vdW  Elec       q    Type
REMARK                         _______ _______ _______ _____ _____    ______ ____
ROOT
ATOM      1  C   UNL     1      50.879   1.997  38.280  0.00  0.00    +0.000 C 
ATOM      2  C   UNL     1      50.531   0.864  38.477  0.00  0.00    +0.000 C 
ENDROOT
BRANCH   1   3
ATOM      3  C   UNL     1      51.322   3.440  38.029  0.00  0.00    +0.000 C 
ATOM      4  C   UNL     1      51.765   4.885  37.779  0.00  0.00    +0.000 C 
BRANCH   4   5
ATOM      5  C   UNL     1      52.207   6.330  37.529  0.00  0.00    +0.000 C 
ATOM      6  C   UNL     1      52.650   7.775  37.277  0.00  0.00    +0.000 C 
BRANCH   6   7
ATOM      7  C   UNL     1      53.094   9.219  37.026  0.00  0.00    +0.000 C 
ATOM      8  C   UNL     1      53.537  10.664  36.775  0.00  0.00    +0.000 C 
BRANCH   8   9
ATOM      9  C   UNL     1      53.981  12.108  36.525  0.00  0.00    +0.000 C 
ATOM     10  C   UNL     1      54.426  13.552  36.274  0.00  0.00    +0.000 C 
BRANCH  10  11
ATOM     11  O   UNL     1      54.810  14.804  36.057  0.00  0.00    +0.000 OA
ATOM     12  H   UNL     1      54.071  15.416  36.210  0.00  0.00    +0.000 HD
ENDBRANCH  10  11
ENDBRANCH   8   9
ENDBRANCH   6   7
ENDBRANCH   4   5
ENDBRANCH   1   3
BRANCH   2  13
ATOM     13  C   UNL     1      50.119  -0.471  38.710  0.00  0.00    +0.000 C 
BRANCH  13  14
ATOM     14  O   UNL     1      49.910  -0.854  40.015  0.00  0.00    +0.000 OA
ATOM     15  H   UNL     1      50.206  -0.171  40.640  0.00  0.00    +0.000 HD
ENDBRANCH  13  14
BRANCH  13  16
ATOM     16  C   UNL     1      49.914  -1.422  37.677  0.00  0.00    +0.000 C 
ATOM     17  C   UNL     1      49.739  -2.226  36.803  0.00  0.00    +0.000 C 
BRANCH  17  18
ATOM     18  C   UNL     1      49.514  -3.251  35.689  0.00  0.00    +0.000 C 
ATOM     19  C   UNL     1      49.338  -4.055  34.814  0.00  0.00    +0.000 C 
BRANCH  19  20
ATOM     20  C   UNL     1      49.128  -5.005  33.780  0.00  0.00    +0.000 C 
BRANCH  20  21
ATOM     21  C   UNL     1      48.831  -4.645  32.436  0.00  0.00    +0.000 C 
ATOM     22  C   UNL     1      48.560  -4.293  31.177  0.00  0.00    +0.000 C 
ENDBRANCH  20  21
BRANCH  20  23
ATOM     23  O   UNL     1      49.216  -6.346  34.095  0.00  0.00    +0.000 OA
ATOM     24  H   UNL     1      48.407  -6.671  34.525  0.00  0.00    +0.000 HD
ENDBRANCH  20  23
ENDBRANCH  19  20
ENDBRANCH  17  18
ENDBRANCH  13  16
ENDBRANCH   2  13
TORSDOF 12
ENDMDL
MODEL 7
REMARK VINA RESULT:      -3.9     20.885     23.979
REMARK  Name = 86311066_OplopantriolA.pdbqt.pdb
REMARK  12 active torsions:
REMARK  status: ('A' for Active; 'I' for Inactive)
REMARK    1  A    between atoms: C_1  and  C_3
REMARK    2  A    between atoms: C_2  and  C_13
REMARK    3  A    between atoms: C_4  and  C_5
REMARK    4  A    between atoms: C_6  and  C_7
REMARK    5  A    between atoms: C_8  and  C_9
REMARK    6  A    between atoms: C_10  and  O_11
REMARK    7  A    between atoms: C_13  and  O_14
REMARK    8  A    between atoms: C_13  and  C_16
REMARK    9  A    between atoms: C_17  and  C_18
REMARK   10  A    between atoms: C_19  and  C_20
REMARK   11  A    between atoms: C_20  and  C_21
REMARK   12  A    between atoms: C_20  and  O_23
REMARK                            x       y       z     vdW  Elec       q    Type
REMARK                         _______ _______ _______ _____ _____    ______ ____
ROOT
ATOM      1  C   UNL     1      47.079  17.215  20.157  0.00  0.00    +0.000 C 
ATOM      2  C   UNL     1      47.569  17.672  21.154  0.00  0.00    +0.000 C 
ENDROOT
BRANCH   1   3
ATOM      3  C   UNL     1      46.455  16.633  18.885  0.00  0.00    +0.000 C 
ATOM      4  C   UNL     1      45.831  16.052  17.613  0.00  0.00    +0.000 C 
BRANCH   4   5
ATOM      5  C   UNL     1      45.206  15.471  16.341  0.00  0.00    +0.000 C 
ATOM      6  C   UNL     1      44.582  14.889  15.069  0.00  0.00    +0.000 C 
BRANCH   6   7
ATOM      7  C   UNL     1      43.959  14.308  13.796  0.00  0.00    +0.000 C 
ATOM      8  C   UNL     1      43.335  13.727  12.524  0.00  0.00    +0.000 C 
BRANCH   8   9
ATOM      9  C   UNL     1      42.712  13.145  11.252  0.00  0.00    +0.000 C 
ATOM     10  C   UNL     1      42.088  12.561   9.980  0.00  0.00    +0.000 C 
BRANCH  10  11
ATOM     11  O   UNL     1      41.547  12.057   8.878  0.00  0.00    +0.000 OA
ATOM     12  H   UNL     1      40.615  12.323   8.806  0.00  0.00    +0.000 HD
ENDBRANCH  10  11
ENDBRANCH   8   9
ENDBRANCH   6   7
ENDBRANCH   4   5
ENDBRANCH   1   3
BRANCH   2  13
ATOM     13  C   UNL     1      48.147  18.211  22.329  0.00  0.00    +0.000 C 
BRANCH  13  14
ATOM     14  O   UNL     1      49.519  18.295  22.383  0.00  0.00    +0.000 OA
ATOM     15  H   UNL     1      49.874  17.856  23.174  0.00  0.00    +0.000 HD
ENDBRANCH  13  14
BRANCH  13  16
ATOM     16  C   UNL     1      47.391  18.665  23.441  0.00  0.00    +0.000 C 
ATOM     17  C   UNL     1      46.750  19.048  24.381  0.00  0.00    +0.000 C 
BRANCH  17  18
ATOM     18  C   UNL     1      45.933  19.534  25.581  0.00  0.00    +0.000 C 
ATOM     19  C   UNL     1      45.292  19.915  26.522  0.00  0.00    +0.000 C 
BRANCH  19  20
ATOM     20  C   UNL     1      44.533  20.366  27.634  0.00  0.00    +0.000 C 
BRANCH  20  21
ATOM     21  C   UNL     1      43.253  19.844  27.969  0.00  0.00    +0.000 C 
ATOM     22  C   UNL     1      42.051  19.347  28.270  0.00  0.00    +0.000 C 
ENDBRANCH  20  21
BRANCH  20  23
ATOM     23  O   UNL     1      45.065  21.361  28.430  0.00  0.00    +0.000 OA
ATOM     24  H   UNL     1      45.975  21.583  28.171  0.00  0.00    +0.000 HD
ENDBRANCH  20  23
ENDBRANCH  19  20
ENDBRANCH  17  18
ENDBRANCH  13  16
ENDBRANCH   2  13
TORSDOF 12
ENDMDL
MODEL 8
REMARK VINA RESULT:      -3.9     36.773     38.765
REMARK  Name = 86311066_OplopantriolA.pdbqt.pdb
REMARK  12 active torsions:
REMARK  status: ('A' for Active; 'I' for Inactive)
REMARK    1  A    between atoms: C_1  and  C_3
REMARK    2  A    between atoms: C_2  and  C_13
REMARK    3  A    between atoms: C_4  and  C_5
REMARK    4  A    between atoms: C_6  and  C_7
REMARK    5  A    between atoms: C_8  and  C_9
REMARK    6  A    between atoms: C_10  and  O_11
REMARK    7  A    between atoms: C_13  and  O_14
REMARK    8  A    between atoms: C_13  and  C_16
REMARK    9  A    between atoms: C_17  and  C_18
REMARK   10  A    between atoms: C_19  and  C_20
REMARK   11  A    between atoms: C_20  and  C_21
REMARK   12  A    between atoms: C_20  and  O_23
REMARK                            x       y       z     vdW  Elec       q    Type
REMARK                         _______ _______ _______ _____ _____    ______ ____
ROOT
ATOM      1  C   UNL     1      28.408  21.692  36.697  0.00  0.00    +0.000 C 
ATOM      2  C   UNL     1      28.867  21.564  37.800  0.00  0.00    +0.000 C 
ENDROOT
BRANCH   1   3
ATOM      3  C   UNL     1      27.823  21.855  35.292  0.00  0.00    +0.000 C 
ATOM      4  C   UNL     1      27.237  22.018  33.886  0.00  0.00    +0.000 C 
BRANCH   4   5
ATOM      5  C   UNL     1      26.653  22.182  32.479  0.00  0.00    +0.000 C 
ATOM      6  C   UNL     1      26.066  22.345  31.074  0.00  0.00    +0.000 C 
BRANCH   6   7
ATOM      7  C   UNL     1      25.480  22.508  29.668  0.00  0.00    +0.000 C 
ATOM      8  C   UNL     1      24.894  22.672  28.262  0.00  0.00    +0.000 C 
BRANCH   8   9
ATOM      9  C   UNL     1      24.310  22.834  26.856  0.00  0.00    +0.000 C 
ATOM     10  C   UNL     1      23.726  22.997  25.450  0.00  0.00    +0.000 C 
BRANCH  10  11
ATOM     11  O   UNL     1      23.219  23.138  24.231  0.00  0.00    +0.000 OA
ATOM     12  H   UNL     1      23.564  23.944  23.812  0.00  0.00    +0.000 HD
ENDBRANCH  10  11
ENDBRANCH   8   9
ENDBRANCH   6   7
ENDBRANCH   4   5
ENDBRANCH   1   3
BRANCH   2  13
ATOM     13  C   UNL     1      29.410  21.411  39.099  0.00  0.00    +0.000 C 
BRANCH  13  14
ATOM     14  O   UNL     1      30.716  21.797  39.292  0.00  0.00    +0.000 OA
ATOM     15  H   UNL     1      31.326  21.043  39.227  0.00  0.00    +0.000 HD
ENDBRANCH  13  14
BRANCH  13  16
ATOM     16  C   UNL     1      28.682  20.887  40.199  0.00  0.00    +0.000 C 
ATOM     17  C   UNL     1      28.067  20.443  41.129  0.00  0.00    +0.000 C 
BRANCH  17  18
ATOM     18  C   UNL     1      27.284  19.875  42.315  0.00  0.00    +0.000 C 
ATOM     19  C   UNL     1      26.670  19.429  43.246  0.00  0.00    +0.000 C 
BRANCH  19  20
ATOM     20  C   UNL     1      25.944  18.902  44.347  0.00  0.00    +0.000 C 
BRANCH  20  21
ATOM     21  C   UNL     1      26.478  17.935  45.244  0.00  0.00    +0.000 C 
ATOM     22  C   UNL     1      26.969  17.017  46.079  0.00  0.00    +0.000 C 
ENDBRANCH  20  21
BRANCH  20  23
ATOM     23  O   UNL     1      24.656  19.350  44.557  0.00  0.00    +0.000 OA
ATOM     24  H   UNL     1      24.523  19.655  45.471  0.00  0.00    +0.000 HD
ENDBRANCH  20  23
ENDBRANCH  19  20
ENDBRANCH  17  18
ENDBRANCH  13  16
ENDBRANCH   2  13
TORSDOF 12
ENDMDL
MODEL 9
REMARK VINA RESULT:      -3.9     18.885     22.985
REMARK  Name = 86311066_OplopantriolA.pdbqt.pdb
REMARK  12 active torsions:
REMARK  status: ('A' for Active; 'I' for Inactive)
REMARK    1  A    between atoms: C_1  and  C_3
REMARK    2  A    between atoms: C_2  and  C_13
REMARK    3  A    between atoms: C_4  and  C_5
REMARK    4  A    between atoms: C_6  and  C_7
REMARK    5  A    between atoms: C_8  and  C_9
REMARK    6  A    between atoms: C_10  and  O_11
REMARK    7  A    between atoms: C_13  and  O_14
REMARK    8  A    between atoms: C_13  and  C_16
REMARK    9  A    between atoms: C_17  and  C_18
REMARK   10  A    between atoms: C_19  and  C_20
REMARK   11  A    between atoms: C_20  and  C_21
REMARK   12  A    between atoms: C_20  and  O_23
REMARK                            x       y       z     vdW  Elec       q    Type
REMARK                         _______ _______ _______ _____ _____    ______ ____
ROOT
ATOM      1  C   UNL     1      44.856 -16.877  -6.193  0.00  0.00    +0.000 C 
ATOM      2  C   UNL     1      44.633 -18.018  -6.496  0.00  0.00    +0.000 C 
ENDROOT
BRANCH   1   3
ATOM      3  C   UNL     1      45.140 -15.423  -5.806  0.00  0.00    +0.000 C 
ATOM      4  C   UNL     1      45.423 -13.969  -5.418  0.00  0.00    +0.000 C 
BRANCH   4   5
ATOM      5  C   UNL     1      45.706 -12.514  -5.031  0.00  0.00    +0.000 C 
ATOM      6  C   UNL     1      45.986 -11.058  -4.645  0.00  0.00    +0.000 C 
BRANCH   6   7
ATOM      7  C   UNL     1      46.267  -9.603  -4.258  0.00  0.00    +0.000 C 
ATOM      8  C   UNL     1      46.549  -8.148  -3.872  0.00  0.00    +0.000 C 
BRANCH   8   9
ATOM      9  C   UNL     1      46.829  -6.693  -3.485  0.00  0.00    +0.000 C 
ATOM     10  C   UNL     1      47.109  -5.237  -3.099  0.00  0.00    +0.000 C 
BRANCH  10  11
ATOM     11  O   UNL     1      47.351  -3.976  -2.764  0.00  0.00    +0.000 OA
ATOM     12  H   UNL     1      47.059  -3.806  -1.852  0.00  0.00    +0.000 HD
ENDBRANCH  10  11
ENDBRANCH   8   9
ENDBRANCH   6   7
ENDBRANCH   4   5
ENDBRANCH   1   3
BRANCH   2  13
ATOM     13  C   UNL     1      44.369 -19.362  -6.855  0.00  0.00    +0.000 C 
BRANCH  13  14
ATOM     14  O   UNL     1      45.189 -19.941  -7.797  0.00  0.00    +0.000 OA
ATOM     15  H   UNL     1      45.580 -19.276  -8.388  0.00  0.00    +0.000 HD
ENDBRANCH  13  14
BRANCH  13  16
ATOM     16  C   UNL     1      43.316 -20.133  -6.299  0.00  0.00    +0.000 C 
ATOM     17  C   UNL     1      42.426 -20.786  -5.828  0.00  0.00    +0.000 C 
BRANCH  17  18
ATOM     18  C   UNL     1      41.291 -21.620  -5.226  0.00  0.00    +0.000 C 
ATOM     19  C   UNL     1      40.401 -22.273  -4.754  0.00  0.00    +0.000 C 
BRANCH  19  20
ATOM     20  C   UNL     1      39.349 -23.045  -4.195  0.00  0.00    +0.000 C 
BRANCH  20  21
ATOM     21  C   UNL     1      39.454 -24.441  -3.939  0.00  0.00    +0.000 C 
ATOM     22  C   UNL     1      39.551 -25.753  -3.714  0.00  0.00    +0.000 C 
ENDBRANCH  20  21
BRANCH  20  23
ATOM     23  O   UNL     1      38.163 -22.409  -3.885  0.00  0.00    +0.000 OA
ATOM     24  H   UNL     1      38.161 -22.072  -2.973  0.00  0.00    +0.000 HD
ENDBRANCH  20  23
ENDBRANCH  19  20
ENDBRANCH  17  18
ENDBRANCH  13  16
ENDBRANCH   2  13
TORSDOF 12
ENDMDL
