MODEL 1
REMARK VINA RESULT:      -8.6      0.000      0.000
REMARK  Name = 91746246_sitosterol.pdbqt.pdb
REMARK  10 active torsions:
REMARK  status: ('A' for Active; 'I' for Inactive)
REMARK    1  A    between atoms: C_5  and  C_20
REMARK    2  A    between atoms: C_19  and  O_30
REMARK    3  A    between atoms: C_20  and  C_22
REMARK    4  A    between atoms: C_23  and  C_24
REMARK    5  A    between atoms: C_24  and  C_28
REMARK    6  A    between atoms: O_30  and  C_32
REMARK    7  A    between atoms: C_32  and  C_33
REMARK    8  A    between atoms: C_34  and  C_35
REMARK    9  A    between atoms: C_38  and  O_41
REMARK   10  A    between atoms: C_40  and  O_43
REMARK                            x       y       z     vdW  Elec       q    Type
REMARK                         _______ _______ _______ _____ _____    ______ ____
ROOT
ATOM      1  C   UNL     1      45.819  -2.734   9.863  0.00  0.00    +0.000 C 
ATOM      2  C   UNL     1      44.771  -2.387  11.049  0.00  0.00    +0.000 C 
ATOM      3  C   UNL     1      43.597  -1.517  10.835  0.00  0.00    +0.000 C 
ATOM      4  C   UNL     1      43.067  -1.057   9.500  0.00  0.00    +0.000 C 
ATOM      5  C   UNL     1      46.063  -4.226  10.045  0.00  0.00    +0.000 C 
ATOM      6  C   UNL     1      45.118  -2.368   8.633  0.00  0.00    +0.000 C 
ATOM      7  C   UNL     1      41.860  -0.097   9.338  0.00  0.00    +0.000 C 
ATOM      8  C   UNL     1      44.664  -3.550  11.875  0.00  0.00    +0.000 C 
ATOM      9  C   UNL     1      43.855  -1.567   8.434  0.00  0.00    +0.000 C 
ATOM     10  C   UNL     1      45.432  -4.678  11.241  0.00  0.00    +0.000 C 
ATOM     11  C   UNL     1      42.750  -1.155  11.912  0.00  0.00    +0.000 C 
ATOM     12  C   UNL     1      47.108  -1.915  10.143  0.00  0.00    +0.000 C 
ATOM     13  C   UNL     1      40.915   0.027  10.685  0.00  0.00    +0.000 C 
ATOM     14  C   UNL     1      40.923  -0.610   8.295  0.00  0.00    +0.000 C 
ATOM     15  C   UNL     1      41.457  -0.407  11.782  0.00  0.00    +0.000 C 
ATOM     16  C   UNL     1      42.380   1.333   9.007  0.00  0.00    +0.000 C 
ATOM     17  C   UNL     1      39.509  -0.242  10.481  0.00  0.00    +0.000 C 
ATOM     18  C   UNL     1      39.413  -0.899   8.268  0.00  0.00    +0.000 C 
ATOM     19  C   UNL     1      38.617  -0.694   9.446  0.00  0.00    +0.000 C 
ENDROOT
BRANCH   5  20
ATOM     20  C   UNL     1      46.997  -4.987   9.278  0.00  0.00    +0.000 C 
ATOM     21  C   UNL     1      47.983  -5.930   9.914  0.00  0.00    +0.000 C 
BRANCH  20  22
ATOM     22  C   UNL     1      47.212  -4.708   7.899  0.00  0.00    +0.000 C 
ATOM     23  C   UNL     1      47.447  -4.405   6.411  0.00  0.00    +0.000 C 
BRANCH  23  24
ATOM     24  C   UNL     1      47.670  -4.108   5.033  0.00  0.00    +0.000 C 
ATOM     25  C   UNL     1      48.768  -4.707   4.305  0.00  0.00    +0.000 C 
ATOM     26  C   UNL     1      49.074  -4.396   2.856  0.00  0.00    +0.000 C 
ATOM     27  C   UNL     1      49.714  -5.711   4.931  0.00  0.00    +0.000 C 
BRANCH  24  28
ATOM     28  C   UNL     1      46.800  -3.206   4.363  0.00  0.00    +0.000 C 
ATOM     29  C   UNL     1      45.855  -2.280   3.589  0.00  0.00    +0.000 C 
ENDBRANCH  24  28
ENDBRANCH  23  24
ENDBRANCH  20  22
ENDBRANCH   5  20
BRANCH  19  30
ATOM     30  O   UNL     1      37.355  -0.113   9.359  0.00  0.00    +0.000 OA
BRANCH  30  32
ATOM     31  O   UNL     1      37.663   2.192   9.373  0.00  0.00    +0.000 OA
ATOM     32  C   UNL     1      37.340   1.139   9.902  0.00  0.00    +0.000 C 
BRANCH  32  33
ATOM     33  C   UNL     1      36.840   1.123  11.255  0.00  0.00    +0.000 C 
ATOM     34  C   UNL     1      36.436   1.123  12.386  0.00  0.00    +0.000 C 
BRANCH  34  35
ATOM     35  C   UNL     1      35.969   1.138  13.734  0.00  0.00    +0.000 A 
ATOM     36  C   UNL     1      36.470   0.214  14.650  0.00  0.00    +0.000 A 
ATOM     37  C   UNL     1      35.010   2.066  14.130  0.00  0.00    +0.000 A 
ATOM     38  C   UNL     1      36.022   0.208  15.973  0.00  0.00    +0.000 A 
ATOM     39  C   UNL     1      34.553   2.071  15.446  0.00  0.00    +0.000 A 
ATOM     40  C   UNL     1      35.058   1.145  16.357  0.00  0.00    +0.000 A 
BRANCH  38  41
ATOM     41  O   UNL     1      36.462  -0.666  16.936  0.00  0.00    +0.000 OA
ATOM     42  C   UNL     1      35.842  -1.927  16.938  0.00  0.00    +0.000 C 
ENDBRANCH  38  41
BRANCH  40  43
ATOM     43  O   UNL     1      34.604   1.154  17.648  0.00  0.00    +0.000 OA
ATOM     44  H   UNL     1      33.952   1.873  17.745  0.00  0.00    +0.000 HD
ENDBRANCH  40  43
ENDBRANCH  34  35
ENDBRANCH  32  33
ENDBRANCH  30  32
ENDBRANCH  19  30
TORSDOF 10
ENDMDL
MODEL 2
REMARK VINA RESULT:      -8.5      1.313      2.066
REMARK  Name = 91746246_sitosterol.pdbqt.pdb
REMARK  10 active torsions:
REMARK  status: ('A' for Active; 'I' for Inactive)
REMARK    1  A    between atoms: C_5  and  C_20
REMARK    2  A    between atoms: C_19  and  O_30
REMARK    3  A    between atoms: C_20  and  C_22
REMARK    4  A    between atoms: C_23  and  C_24
REMARK    5  A    between atoms: C_24  and  C_28
REMARK    6  A    between atoms: O_30  and  C_32
REMARK    7  A    between atoms: C_32  and  C_33
REMARK    8  A    between atoms: C_34  and  C_35
REMARK    9  A    between atoms: C_38  and  O_41
REMARK   10  A    between atoms: C_40  and  O_43
REMARK                            x       y       z     vdW  Elec       q    Type
REMARK                         _______ _______ _______ _____ _____    ______ ____
ROOT
ATOM      1  C   UNL     1      46.167  -2.168   8.798  0.00  0.00    +0.000 C 
ATOM      2  C   UNL     1      45.263  -2.266  10.139  0.00  0.00    +0.000 C 
ATOM      3  C   UNL     1      43.968  -1.567  10.271  0.00  0.00    +0.000 C 
ATOM      4  C   UNL     1      43.200  -0.909   9.152  0.00  0.00    +0.000 C 
ATOM      5  C   UNL     1      46.624  -3.606   8.585  0.00  0.00    +0.000 C 
ATOM      6  C   UNL     1      45.257  -1.651   7.777  0.00  0.00    +0.000 C 
ATOM      7  C   UNL     1      41.868  -0.140   9.359  0.00  0.00    +0.000 C 
ATOM      8  C   UNL     1      45.424  -3.587  10.665  0.00  0.00    +0.000 C 
ATOM      9  C   UNL     1      43.886  -1.036   7.915  0.00  0.00    +0.000 C 
ATOM     10  C   UNL     1      46.233  -4.408   9.698  0.00  0.00    +0.000 C 
ATOM     11  C   UNL     1      43.244  -1.594  11.488  0.00  0.00    +0.000 C 
ATOM     12  C   UNL     1      47.367  -1.240   9.127  0.00  0.00    +0.000 C 
ATOM     13  C   UNL     1      41.117  -0.473  10.790  0.00  0.00    +0.000 C 
ATOM     14  C   UNL     1      40.866  -0.548   8.330  0.00  0.00    +0.000 C 
ATOM     15  C   UNL     1      41.861  -1.049  11.683  0.00  0.00    +0.000 C 
ATOM     16  C   UNL     1      42.148   1.391   9.330  0.00  0.00    +0.000 C 
ATOM     17  C   UNL     1      39.742  -0.907  10.680  0.00  0.00    +0.000 C 
ATOM     18  C   UNL     1      39.417  -1.059   8.398  0.00  0.00    +0.000 C 
ATOM     19  C   UNL     1      38.777  -1.251   9.669  0.00  0.00    +0.000 C 
ENDROOT
BRANCH   5  20
ATOM     20  C   UNL     1      47.528  -4.018   7.560  0.00  0.00    +0.000 C 
ATOM     21  C   UNL     1      48.823  -4.722   7.865  0.00  0.00    +0.000 C 
BRANCH  20  22
ATOM     22  C   UNL     1      47.373  -3.564   6.221  0.00  0.00    +0.000 C 
ATOM     23  C   UNL     1      47.204  -3.073   4.775  0.00  0.00    +0.000 C 
BRANCH  23  24
ATOM     24  C   UNL     1      47.030  -2.621   3.432  0.00  0.00    +0.000 C 
ATOM     25  C   UNL     1      45.822  -1.937   3.022  0.00  0.00    +0.000 C 
ATOM     26  C   UNL     1      45.569  -1.475   1.603  0.00  0.00    +0.000 C 
ATOM     27  C   UNL     1      44.696  -1.617   3.983  0.00  0.00    +0.000 C 
BRANCH  24  28
ATOM     28  C   UNL     1      48.059  -2.848   2.480  0.00  0.00    +0.000 C 
ATOM     29  C   UNL     1      49.165  -3.025   1.433  0.00  0.00    +0.000 C 
ENDBRANCH  24  28
ENDBRANCH  23  24
ENDBRANCH  20  22
ENDBRANCH   5  20
BRANCH  19  30
ATOM     30  O   UNL     1      37.452  -0.872   9.863  0.00  0.00    +0.000 OA
BRANCH  30  32
ATOM     31  O   UNL     1      37.522   1.324   9.102  0.00  0.00    +0.000 OA
ATOM     32  C   UNL     1      37.327   0.483   9.966  0.00  0.00    +0.000 C 
BRANCH  32  33
ATOM     33  C   UNL     1      36.877   0.874  11.279  0.00  0.00    +0.000 C 
ATOM     34  C   UNL     1      36.498   1.181  12.378  0.00  0.00    +0.000 C 
BRANCH  34  35
ATOM     35  C   UNL     1      36.046   1.527  13.685  0.00  0.00    +0.000 A 
ATOM     36  C   UNL     1      34.961   0.852  14.242  0.00  0.00    +0.000 A 
ATOM     37  C   UNL     1      36.680   2.540  14.398  0.00  0.00    +0.000 A 
ATOM     38  C   UNL     1      34.499   1.179  15.520  0.00  0.00    +0.000 A 
ATOM     39  C   UNL     1      36.230   2.877  15.673  0.00  0.00    +0.000 A 
ATOM     40  C   UNL     1      35.144   2.199  16.224  0.00  0.00    +0.000 A 
BRANCH  38  41
ATOM     41  O   UNL     1      33.438   0.566  16.141  0.00  0.00    +0.000 OA
ATOM     42  C   UNL     1      33.450  -0.838  16.113  0.00  0.00    +0.000 C 
ENDBRANCH  38  41
BRANCH  40  43
ATOM     43  O   UNL     1      34.706   2.536  17.476  0.00  0.00    +0.000 OA
ATOM     44  H   UNL     1      35.180   3.337  17.768  0.00  0.00    +0.000 HD
ENDBRANCH  40  43
ENDBRANCH  34  35
ENDBRANCH  32  33
ENDBRANCH  30  32
ENDBRANCH  19  30
TORSDOF 10
ENDMDL
MODEL 3
REMARK VINA RESULT:      -8.4     25.543     30.829
REMARK  Name = 91746246_sitosterol.pdbqt.pdb
REMARK  10 active torsions:
REMARK  status: ('A' for Active; 'I' for Inactive)
REMARK    1  A    between atoms: C_5  and  C_20
REMARK    2  A    between atoms: C_19  and  O_30
REMARK    3  A    between atoms: C_20  and  C_22
REMARK    4  A    between atoms: C_23  and  C_24
REMARK    5  A    between atoms: C_24  and  C_28
REMARK    6  A    between atoms: O_30  and  C_32
REMARK    7  A    between atoms: C_32  and  C_33
REMARK    8  A    between atoms: C_34  and  C_35
REMARK    9  A    between atoms: C_38  and  O_41
REMARK   10  A    between atoms: C_40  and  O_43
REMARK                            x       y       z     vdW  Elec       q    Type
REMARK                         _______ _______ _______ _____ _____    ______ ____
ROOT
ATOM      1  C   UNL     1      50.352  -0.699  42.012  0.00  0.00    +0.000 C 
ATOM      2  C   UNL     1      50.381  -0.324  40.436  0.00  0.00    +0.000 C 
ATOM      3  C   UNL     1      50.437  -1.356  39.380  0.00  0.00    +0.000 C 
ATOM      4  C   UNL     1      50.219  -2.836  39.576  0.00  0.00    +0.000 C 
ATOM      5  C   UNL     1      49.296   0.247  42.571  0.00  0.00    +0.000 C 
ATOM      6  C   UNL     1      49.993  -2.116  42.047  0.00  0.00    +0.000 C 
ATOM      7  C   UNL     1      50.344  -3.882  38.438  0.00  0.00    +0.000 C 
ATOM      8  C   UNL     1      49.570   0.841  40.260  0.00  0.00    +0.000 C 
ATOM      9  C   UNL     1      49.949  -3.137  40.937  0.00  0.00    +0.000 C 
ATOM     10  C   UNL     1      48.888   1.168  41.561  0.00  0.00    +0.000 C 
ATOM     11  C   UNL     1      50.556  -0.999  38.015  0.00  0.00    +0.000 C 
ATOM     12  C   UNL     1      51.758  -0.371  42.582  0.00  0.00    +0.000 C 
ATOM     13  C   UNL     1      50.282  -3.234  36.921  0.00  0.00    +0.000 C 
ATOM     14  C   UNL     1      49.186  -4.824  38.467  0.00  0.00    +0.000 C 
ATOM     15  C   UNL     1      50.471  -1.952  36.860  0.00  0.00    +0.000 C 
ATOM     16  C   UNL     1      51.707  -4.623  38.568  0.00  0.00    +0.000 C 
ATOM     17  C   UNL     1      49.286  -3.807  36.044  0.00  0.00    +0.000 C 
ATOM     18  C   UNL     1      48.162  -5.287  37.418  0.00  0.00    +0.000 C 
ATOM     19  C   UNL     1      48.204  -4.755  36.084  0.00  0.00    +0.000 C 
ENDROOT
BRANCH   5  20
ATOM     20  C   UNL     1      48.968   0.357  43.956  0.00  0.00    +0.000 C 
ATOM     21  C   UNL     1      49.992   0.718  44.999  0.00  0.00    +0.000 C 
BRANCH  20  22
ATOM     22  C   UNL     1      47.720  -0.112  44.453  0.00  0.00    +0.000 C 
ATOM     23  C   UNL     1      46.374  -0.621  44.990  0.00  0.00    +0.000 C 
BRANCH  23  24
ATOM     24  C   UNL     1      45.125  -1.108  45.480  0.00  0.00    +0.000 C 
ATOM     25  C   UNL     1      44.209  -0.242  46.192  0.00  0.00    +0.000 C 
ATOM     26  C   UNL     1      42.893  -0.716  46.768  0.00  0.00    +0.000 C 
ATOM     27  C   UNL     1      44.487   1.229  46.422  0.00  0.00    +0.000 C 
BRANCH  24  28
ATOM     28  C   UNL     1      44.773  -2.468  45.268  0.00  0.00    +0.000 C 
ATOM     29  C   UNL     1      44.460  -3.948  45.018  0.00  0.00    +0.000 C 
ENDBRANCH  24  28
ENDBRANCH  23  24
ENDBRANCH  20  22
ENDBRANCH   5  20
BRANCH  19  30
ATOM     30  O   UNL     1      48.008  -5.583  34.983  0.00  0.00    +0.000 OA
BRANCH  30  32
ATOM     31  O   UNL     1      50.080  -6.286  34.197  0.00  0.00    +0.000 OA
ATOM     32  C   UNL     1      49.089  -5.574  34.149  0.00  0.00    +0.000 C 
BRANCH  32  33
ATOM     33  C   UNL     1      48.939  -4.596  33.100  0.00  0.00    +0.000 C 
ATOM     34  C   UNL     1      48.823  -3.793  32.214  0.00  0.00    +0.000 C 
BRANCH  34  35
ATOM     35  C   UNL     1      48.695  -2.852  31.150  0.00  0.00    +0.000 A 
ATOM     36  C   UNL     1      49.680  -1.883  30.962  0.00  0.00    +0.000 A 
ATOM     37  C   UNL     1      47.588  -2.896  30.307  0.00  0.00    +0.000 A 
ATOM     38  C   UNL     1      49.570  -0.948  29.929  0.00  0.00    +0.000 A 
ATOM     39  C   UNL     1      47.465  -1.971  29.274  0.00  0.00    +0.000 A 
ATOM     40  C   UNL     1      48.453  -1.004  29.091  0.00  0.00    +0.000 A 
BRANCH  38  41
ATOM     41  O   UNL     1      50.492   0.038  29.676  0.00  0.00    +0.000 OA
ATOM     42  C   UNL     1      51.808  -0.403  29.464  0.00  0.00    +0.000 C 
ENDBRANCH  38  41
BRANCH  40  43
ATOM     43  O   UNL     1      48.326  -0.096  28.075  0.00  0.00    +0.000 OA
ATOM     44  H   UNL     1      47.394  -0.079  27.786  0.00  0.00    +0.000 HD
ENDBRANCH  40  43
ENDBRANCH  34  35
ENDBRANCH  32  33
ENDBRANCH  30  32
ENDBRANCH  19  30
TORSDOF 10
ENDMDL
MODEL 4
REMARK VINA RESULT:      -8.3     25.776     30.932
REMARK  Name = 91746246_sitosterol.pdbqt.pdb
REMARK  10 active torsions:
REMARK  status: ('A' for Active; 'I' for Inactive)
REMARK    1  A    between atoms: C_5  and  C_20
REMARK    2  A    between atoms: C_19  and  O_30
REMARK    3  A    between atoms: C_20  and  C_22
REMARK    4  A    between atoms: C_23  and  C_24
REMARK    5  A    between atoms: C_24  and  C_28
REMARK    6  A    between atoms: O_30  and  C_32
REMARK    7  A    between atoms: C_32  and  C_33
REMARK    8  A    between atoms: C_34  and  C_35
REMARK    9  A    between atoms: C_38  and  O_41
REMARK   10  A    between atoms: C_40  and  O_43
REMARK                            x       y       z     vdW  Elec       q    Type
REMARK                         _______ _______ _______ _____ _____    ______ ____
ROOT
ATOM      1  C   UNL     1      50.329  -0.737  41.969  0.00  0.00    +0.000 C 
ATOM      2  C   UNL     1      50.388  -0.374  40.390  0.00  0.00    +0.000 C 
ATOM      3  C   UNL     1      50.482  -1.412  39.345  0.00  0.00    +0.000 C 
ATOM      4  C   UNL     1      50.280  -2.894  39.547  0.00  0.00    +0.000 C 
ATOM      5  C   UNL     1      49.248   0.198  42.497  0.00  0.00    +0.000 C 
ATOM      6  C   UNL     1      49.990  -2.159  42.007  0.00  0.00    +0.000 C 
ATOM      7  C   UNL     1      50.445  -3.946  38.420  0.00  0.00    +0.000 C 
ATOM      8  C   UNL     1      49.564   0.778  40.188  0.00  0.00    +0.000 C 
ATOM      9  C   UNL     1      49.985  -3.189  40.905  0.00  0.00    +0.000 C 
ATOM     10  C   UNL     1      48.849   1.105  41.472  0.00  0.00    +0.000 C 
ATOM     11  C   UNL     1      50.626  -1.064  37.979  0.00  0.00    +0.000 C 
ATOM     12  C   UNL     1      51.718  -0.385  42.566  0.00  0.00    +0.000 C 
ATOM     13  C   UNL     1      50.407  -3.311  36.897  0.00  0.00    +0.000 C 
ATOM     14  C   UNL     1      49.300  -4.904  38.431  0.00  0.00    +0.000 C 
ATOM     15  C   UNL     1      50.579  -2.026  36.831  0.00  0.00    +0.000 C 
ATOM     16  C   UNL     1      51.814  -4.667  38.586  0.00  0.00    +0.000 C 
ATOM     17  C   UNL     1      49.438  -3.904  36.003  0.00  0.00    +0.000 C 
ATOM     18  C   UNL     1      48.305  -5.389  37.364  0.00  0.00    +0.000 C 
ATOM     19  C   UNL     1      48.369  -4.867  36.027  0.00  0.00    +0.000 C 
ENDROOT
BRANCH   5  20
ATOM     20  C   UNL     1      48.889   0.313  43.874  0.00  0.00    +0.000 C 
ATOM     21  C   UNL     1      48.856  -0.873  44.799  0.00  0.00    +0.000 C 
BRANCH  20  22
ATOM     22  C   UNL     1      48.303   1.507  44.380  0.00  0.00    +0.000 C 
ATOM     23  C   UNL     1      47.669   2.796  44.924  0.00  0.00    +0.000 C 
BRANCH  23  24
ATOM     24  C   UNL     1      47.087   4.004  45.416  0.00  0.00    +0.000 C 
ATOM     25  C   UNL     1      45.960   3.976  46.324  0.00  0.00    +0.000 C 
ATOM     26  C   UNL     1      45.279   5.224  46.843  0.00  0.00    +0.000 C 
ATOM     27  C   UNL     1      45.357   2.687  46.842  0.00  0.00    +0.000 C 
BRANCH  24  28
ATOM     28  C   UNL     1      47.622   5.255  45.008  0.00  0.00    +0.000 C 
ATOM     29  C   UNL     1      48.253   6.570  44.538  0.00  0.00    +0.000 C 
ENDBRANCH  24  28
ENDBRANCH  23  24
ENDBRANCH  20  22
ENDBRANCH   5  20
BRANCH  19  30
ATOM     30  O   UNL     1      48.209  -5.706  34.928  0.00  0.00    +0.000 OA
BRANCH  30  32
ATOM     31  O   UNL     1      50.307  -6.297  34.117  0.00  0.00    +0.000 OA
ATOM     32  C   UNL     1      49.279  -5.637  34.083  0.00  0.00    +0.000 C 
BRANCH  32  33
ATOM     33  C   UNL     1      49.068  -4.664  33.040  0.00  0.00    +0.000 C 
ATOM     34  C   UNL     1      48.908  -3.858  32.163  0.00  0.00    +0.000 C 
BRANCH  34  35
ATOM     35  C   UNL     1      48.735  -2.908  31.114  0.00  0.00    +0.000 A 
ATOM     36  C   UNL     1      49.678  -1.897  30.935  0.00  0.00    +0.000 A 
ATOM     37  C   UNL     1      47.625  -2.986  30.277  0.00  0.00    +0.000 A 
ATOM     38  C   UNL     1      49.524  -0.953  29.916  0.00  0.00    +0.000 A 
ATOM     39  C   UNL     1      47.459  -2.051  29.258  0.00  0.00    +0.000 A 
ATOM     40  C   UNL     1      48.405  -1.042  29.084  0.00  0.00    +0.000 A 
BRANCH  38  41
ATOM     41  O   UNL     1      50.403   0.074  29.672  0.00  0.00    +0.000 OA
ATOM     42  C   UNL     1      51.712  -0.315  29.344  0.00  0.00    +0.000 C 
ENDBRANCH  38  41
BRANCH  40  43
ATOM     43  O   UNL     1      48.235  -0.126  28.082  0.00  0.00    +0.000 OA
ATOM     44  H   UNL     1      47.620   0.566  28.392  0.00  0.00    +0.000 HD
ENDBRANCH  40  43
ENDBRANCH  34  35
ENDBRANCH  32  33
ENDBRANCH  30  32
ENDBRANCH  19  30
TORSDOF 10
ENDMDL
MODEL 5
REMARK VINA RESULT:      -8.2     11.361     14.129
REMARK  Name = 91746246_sitosterol.pdbqt.pdb
REMARK  10 active torsions:
REMARK  status: ('A' for Active; 'I' for Inactive)
REMARK    1  A    between atoms: C_5  and  C_20
REMARK    2  A    between atoms: C_19  and  O_30
REMARK    3  A    between atoms: C_20  and  C_22
REMARK    4  A    between atoms: C_23  and  C_24
REMARK    5  A    between atoms: C_24  and  C_28
REMARK    6  A    between atoms: O_30  and  C_32
REMARK    7  A    between atoms: C_32  and  C_33
REMARK    8  A    between atoms: C_34  and  C_35
REMARK    9  A    between atoms: C_38  and  O_41
REMARK   10  A    between atoms: C_40  and  O_43
REMARK                            x       y       z     vdW  Elec       q    Type
REMARK                         _______ _______ _______ _____ _____    ______ ____
ROOT
ATOM      1  C   UNL     1      46.047   8.913  20.305  0.00  0.00    +0.000 C 
ATOM      2  C   UNL     1      44.561   8.407  20.709  0.00  0.00    +0.000 C 
ATOM      3  C   UNL     1      43.445   8.388  19.742  0.00  0.00    +0.000 C 
ATOM      4  C   UNL     1      43.564   8.569  18.249  0.00  0.00    +0.000 C 
ATOM      5  C   UNL     1      46.952   7.878  20.962  0.00  0.00    +0.000 C 
ATOM      6  C   UNL     1      46.056   8.903  18.843  0.00  0.00    +0.000 C 
ATOM      7  C   UNL     1      42.348   8.593  17.286  0.00  0.00    +0.000 C 
ATOM      8  C   UNL     1      44.715   7.342  21.651  0.00  0.00    +0.000 C 
ATOM      9  C   UNL     1      44.915   8.772  17.863  0.00  0.00    +0.000 C 
ATOM     10  C   UNL     1      46.176   7.005  21.780  0.00  0.00    +0.000 C 
ATOM     11  C   UNL     1      42.135   8.030  20.145  0.00  0.00    +0.000 C 
ATOM     12  C   UNL     1      46.238  10.314  20.946  0.00  0.00    +0.000 C 
ATOM     13  C   UNL     1      40.968   7.959  17.931  0.00  0.00    +0.000 C 
ATOM     14  C   UNL     1      42.610   7.730  16.095  0.00  0.00    +0.000 C 
ATOM     15  C   UNL     1      40.969   7.833  19.223  0.00  0.00    +0.000 C 
ATOM     16  C   UNL     1      42.037  10.065  16.886  0.00  0.00    +0.000 C 
ATOM     17  C   UNL     1      40.349   6.906  17.156  0.00  0.00    +0.000 C 
ATOM     18  C   UNL     1      41.843   6.579  15.424  0.00  0.00    +0.000 C 
ATOM     19  C   UNL     1      40.600   6.119  15.978  0.00  0.00    +0.000 C 
ENDROOT
BRANCH   5  20
ATOM     20  C   UNL     1      48.378   7.943  20.962  0.00  0.00    +0.000 C 
ATOM     21  C   UNL     1      49.240   6.709  20.976  0.00  0.00    +0.000 C 
BRANCH  20  22
ATOM     22  C   UNL     1      49.056   9.171  21.203  0.00  0.00    +0.000 C 
ATOM     23  C   UNL     1      49.787  10.496  21.466  0.00  0.00    +0.000 C 
BRANCH  23  24
ATOM     24  C   UNL     1      50.453  11.733  21.720  0.00  0.00    +0.000 C 
ATOM     25  C   UNL     1      50.113  12.933  20.985  0.00  0.00    +0.000 C 
ATOM     26  C   UNL     1      50.814  14.258  21.185  0.00  0.00    +0.000 C 
ATOM     27  C   UNL     1      49.013  12.969  19.943  0.00  0.00    +0.000 C 
BRANCH  24  28
ATOM     28  C   UNL     1      51.468  11.789  22.712  0.00  0.00    +0.000 C 
ATOM     29  C   UNL     1      52.612  11.850  23.731  0.00  0.00    +0.000 C 
ENDBRANCH  24  28
ENDBRANCH  23  24
ENDBRANCH  20  22
ENDBRANCH   5  20
BRANCH  19  30
ATOM     30  O   UNL     1      39.526   5.806  15.150  0.00  0.00    +0.000 OA
BRANCH  30  32
ATOM     31  O   UNL     1      40.660   4.078  14.084  0.00  0.00    +0.000 OA
ATOM     32  C   UNL     1      39.663   4.567  14.595  0.00  0.00    +0.000 C 
BRANCH  32  33
ATOM     33  C   UNL     1      38.444   3.803  14.697  0.00  0.00    +0.000 C 
ATOM     34  C   UNL     1      37.433   3.161  14.799  0.00  0.00    +0.000 C 
BRANCH  34  35
ATOM     35  C   UNL     1      36.241   2.391  14.937  0.00  0.00    +0.000 A 
ATOM     36  C   UNL     1      35.978   1.732  16.136  0.00  0.00    +0.000 A 
ATOM     37  C   UNL     1      35.346   2.294  13.874  0.00  0.00    +0.000 A 
ATOM     38  C   UNL     1      34.817   0.969  16.290  0.00  0.00    +0.000 A 
ATOM     39  C   UNL     1      34.186   1.536  14.013  0.00  0.00    +0.000 A 
ATOM     40  C   UNL     1      33.929   0.878  15.215  0.00  0.00    +0.000 A 
BRANCH  38  41
ATOM     41  O   UNL     1      34.484   0.287  17.435  0.00  0.00    +0.000 OA
ATOM     42  C   UNL     1      34.867  -1.063  17.469  0.00  0.00    +0.000 C 
ENDBRANCH  38  41
BRANCH  40  43
ATOM     43  O   UNL     1      32.788   0.134  15.344  0.00  0.00    +0.000 OA
ATOM     44  H   UNL     1      32.190   0.584  15.970  0.00  0.00    +0.000 HD
ENDBRANCH  40  43
ENDBRANCH  34  35
ENDBRANCH  32  33
ENDBRANCH  30  32
ENDBRANCH  19  30
TORSDOF 10
ENDMDL
MODEL 6
REMARK VINA RESULT:      -8.2      5.719     10.289
REMARK  Name = 91746246_sitosterol.pdbqt.pdb
REMARK  10 active torsions:
REMARK  status: ('A' for Active; 'I' for Inactive)
REMARK    1  A    between atoms: C_5  and  C_20
REMARK    2  A    between atoms: C_19  and  O_30
REMARK    3  A    between atoms: C_20  and  C_22
REMARK    4  A    between atoms: C_23  and  C_24
REMARK    5  A    between atoms: C_24  and  C_28
REMARK    6  A    between atoms: O_30  and  C_32
REMARK    7  A    between atoms: C_32  and  C_33
REMARK    8  A    between atoms: C_34  and  C_35
REMARK    9  A    between atoms: C_38  and  O_41
REMARK   10  A    between atoms: C_40  and  O_43
REMARK                            x       y       z     vdW  Elec       q    Type
REMARK                         _______ _______ _______ _____ _____    ______ ____
ROOT
ATOM      1  C   UNL     1      44.370   5.949  13.315  0.00  0.00    +0.000 C 
ATOM      2  C   UNL     1      43.484   6.045  11.961  0.00  0.00    +0.000 C 
ATOM      3  C   UNL     1      42.944   4.848  11.285  0.00  0.00    +0.000 C 
ATOM      4  C   UNL     1      42.902   3.452  11.856  0.00  0.00    +0.000 C 
ATOM      5  C   UNL     1      43.808   7.076  14.172  0.00  0.00    +0.000 C 
ATOM      6  C   UNL     1      44.120   4.602  13.824  0.00  0.00    +0.000 C 
ATOM      7  C   UNL     1      42.371   2.220  11.079  0.00  0.00    +0.000 C 
ATOM      8  C   UNL     1      42.699   7.237  12.049  0.00  0.00    +0.000 C 
ATOM      9  C   UNL     1      43.466   3.415  13.159  0.00  0.00    +0.000 C 
ATOM     10  C   UNL     1      42.880   7.847  13.412  0.00  0.00    +0.000 C 
ATOM     11  C   UNL     1      42.253   4.953  10.053  0.00  0.00    +0.000 C 
ATOM     12  C   UNL     1      45.843   6.228  12.913  0.00  0.00    +0.000 C 
ATOM     13  C   UNL     1      41.440   2.602   9.770  0.00  0.00    +0.000 C 
ATOM     14  C   UNL     1      41.454   1.416  11.940  0.00  0.00    +0.000 C 
ATOM     15  C   UNL     1      41.539   3.830   9.363  0.00  0.00    +0.000 C 
ATOM     16  C   UNL     1      43.574   1.380  10.559  0.00  0.00    +0.000 C 
ATOM     17  C   UNL     1      40.131   1.989   9.742  0.00  0.00    +0.000 C 
ATOM     18  C   UNL     1      40.022   0.884  11.768  0.00  0.00    +0.000 C 
ATOM     19  C   UNL     1      39.283   1.173  10.571  0.00  0.00    +0.000 C 
ENDROOT
BRANCH   5  20
ATOM     20  C   UNL     1      44.331   7.453  15.446  0.00  0.00    +0.000 C 
ATOM     21  C   UNL     1      45.809   7.558  15.710  0.00  0.00    +0.000 C 
BRANCH  20  22
ATOM     22  C   UNL     1      43.494   7.503  16.596  0.00  0.00    +0.000 C 
ATOM     23  C   UNL     1      42.592   7.559  17.839  0.00  0.00    +0.000 C 
BRANCH  23  24
ATOM     24  C   UNL     1      41.766   7.600  19.002  0.00  0.00    +0.000 C 
ATOM     25  C   UNL     1      42.339   7.556  20.330  0.00  0.00    +0.000 C 
ATOM     26  C   UNL     1      41.509   7.555  21.595  0.00  0.00    +0.000 C 
ATOM     27  C   UNL     1      43.833   7.509  20.576  0.00  0.00    +0.000 C 
BRANCH  24  28
ATOM     28  C   UNL     1      40.355   7.685  18.855  0.00  0.00    +0.000 C 
ATOM     29  C   UNL     1      38.827   7.746  18.758  0.00  0.00    +0.000 C 
ENDBRANCH  24  28
ENDBRANCH  23  24
ENDBRANCH  20  22
ENDBRANCH   5  20
BRANCH  19  30
ATOM     30  O   UNL     1      38.506   0.194   9.960  0.00  0.00    +0.000 OA
BRANCH  30  32
ATOM     31  O   UNL     1      36.361   0.489   9.110  0.00  0.00    +0.000 OA
ATOM     32  C   UNL     1      37.176   0.497  10.021  0.00  0.00    +0.000 C 
BRANCH  32  33
ATOM     33  C   UNL     1      36.769   0.825  11.365  0.00  0.00    +0.000 C 
ATOM     34  C   UNL     1      36.412   1.096  12.480  0.00  0.00    +0.000 C 
BRANCH  34  35
ATOM     35  C   UNL     1      35.970   1.415  13.797  0.00  0.00    +0.000 A 
ATOM     36  C   UNL     1      35.418   0.419  14.602  0.00  0.00    +0.000 A 
ATOM     37  C   UNL     1      36.083   2.717  14.276  0.00  0.00    +0.000 A 
ATOM     38  C   UNL     1      34.974   0.712  15.894  0.00  0.00    +0.000 A 
ATOM     39  C   UNL     1      35.643   3.024  15.561  0.00  0.00    +0.000 A 
ATOM     40  C   UNL     1      35.092   2.024  16.361  0.00  0.00    +0.000 A 
BRANCH  38  41
ATOM     41  O   UNL     1      34.418  -0.208  16.749  0.00  0.00    +0.000 OA
ATOM     42  C   UNL     1      33.285  -0.879  16.262  0.00  0.00    +0.000 C 
ENDBRANCH  38  41
BRANCH  40  43
ATOM     43  O   UNL     1      34.661   2.332  17.622  0.00  0.00    +0.000 OA
ATOM     44  H   UNL     1      33.704   2.518  17.588  0.00  0.00    +0.000 HD
ENDBRANCH  40  43
ENDBRANCH  34  35
ENDBRANCH  32  33
ENDBRANCH  30  32
ENDBRANCH  19  30
TORSDOF 10
ENDMDL
MODEL 7
REMARK VINA RESULT:      -8.1      6.297     10.952
REMARK  Name = 91746246_sitosterol.pdbqt.pdb
REMARK  10 active torsions:
REMARK  status: ('A' for Active; 'I' for Inactive)
REMARK    1  A    between atoms: C_5  and  C_20
REMARK    2  A    between atoms: C_19  and  O_30
REMARK    3  A    between atoms: C_20  and  C_22
REMARK    4  A    between atoms: C_23  and  C_24
REMARK    5  A    between atoms: C_24  and  C_28
REMARK    6  A    between atoms: O_30  and  C_32
REMARK    7  A    between atoms: C_32  and  C_33
REMARK    8  A    between atoms: C_34  and  C_35
REMARK    9  A    between atoms: C_38  and  O_41
REMARK   10  A    between atoms: C_40  and  O_43
REMARK                            x       y       z     vdW  Elec       q    Type
REMARK                         _______ _______ _______ _____ _____    ______ ____
ROOT
ATOM      1  C   UNL     1      44.196   6.935  14.222  0.00  0.00    +0.000 C 
ATOM      2  C   UNL     1      43.959   6.556  12.664  0.00  0.00    +0.000 C 
ATOM      3  C   UNL     1      43.412   5.250  12.244  0.00  0.00    +0.000 C 
ATOM      4  C   UNL     1      42.774   4.225  13.149  0.00  0.00    +0.000 C 
ATOM      5  C   UNL     1      43.682   8.366  14.310  0.00  0.00    +0.000 C 
ATOM      6  C   UNL     1      43.411   5.949  14.964  0.00  0.00    +0.000 C 
ATOM      7  C   UNL     1      42.264   2.844  12.659  0.00  0.00    +0.000 C 
ATOM      8  C   UNL     1      43.560   7.754  11.991  0.00  0.00    +0.000 C 
ATOM      9  C   UNL     1      42.763   4.669  14.498  0.00  0.00    +0.000 C 
ATOM     10  C   UNL     1      43.365   8.848  13.006  0.00  0.00    +0.000 C 
ATOM     11  C   UNL     1      43.303   4.910  10.873  0.00  0.00    +0.000 C 
ATOM     12  C   UNL     1      45.726   6.870  14.476  0.00  0.00    +0.000 C 
ATOM     13  C   UNL     1      42.049   2.749  11.026  0.00  0.00    +0.000 C 
ATOM     14  C   UNL     1      40.906   2.565  13.212  0.00  0.00    +0.000 C 
ATOM     15  C   UNL     1      42.629   3.684  10.337  0.00  0.00    +0.000 C 
ATOM     16  C   UNL     1      43.295   1.746  13.054  0.00  0.00    +0.000 C 
ATOM     17  C   UNL     1      40.737   2.318  10.599  0.00  0.00    +0.000 C 
ATOM     18  C   UNL     1      39.562   2.161  12.583  0.00  0.00    +0.000 C 
ATOM     19  C   UNL     1      39.448   2.007  11.159  0.00  0.00    +0.000 C 
ENDROOT
BRANCH   5  20
ATOM     20  C   UNL     1      43.759   9.177  15.482  0.00  0.00    +0.000 C 
ATOM     21  C   UNL     1      44.754  10.298  15.622  0.00  0.00    +0.000 C 
BRANCH  20  22
ATOM     22  C   UNL     1      43.073   8.810  16.673  0.00  0.00    +0.000 C 
ATOM     23  C   UNL     1      42.334   8.413  17.961  0.00  0.00    +0.000 C 
BRANCH  23  24
ATOM     24  C   UNL     1      41.659   8.032  19.160  0.00  0.00    +0.000 C 
ATOM     25  C   UNL     1      42.388   7.795  20.388  0.00  0.00    +0.000 C 
ATOM     26  C   UNL     1      41.728   7.349  21.674  0.00  0.00    +0.000 C 
ATOM     27  C   UNL     1      43.888   7.978  20.497  0.00  0.00    +0.000 C 
BRANCH  24  28
ATOM     28  C   UNL     1      40.247   7.880  19.148  0.00  0.00    +0.000 C 
ATOM     29  C   UNL     1      38.731   7.655  19.101  0.00  0.00    +0.000 C 
ENDBRANCH  24  28
ENDBRANCH  23  24
ENDBRANCH  20  22
ENDBRANCH   5  20
BRANCH  19  30
ATOM     30  O   UNL     1      38.726   0.950  10.614  0.00  0.00    +0.000 OA
BRANCH  30  32
ATOM     31  O   UNL     1      39.694  -1.103  11.121  0.00  0.00    +0.000 OA
ATOM     32  C   UNL     1      38.900  -0.199  11.330  0.00  0.00    +0.000 C 
BRANCH  32  33
ATOM     33  C   UNL     1      38.016  -0.251  12.469  0.00  0.00    +0.000 C 
ATOM     34  C   UNL     1      37.286  -0.277  13.423  0.00  0.00    +0.000 C 
BRANCH  34  35
ATOM     35  C   UNL     1      36.427  -0.290  14.561  0.00  0.00    +0.000 A 
ATOM     36  C   UNL     1      35.847   0.897  15.004  0.00  0.00    +0.000 A 
ATOM     37  C   UNL     1      36.176  -1.484  15.232  0.00  0.00    +0.000 A 
ATOM     38  C   UNL     1      35.007   0.905  16.121  0.00  0.00    +0.000 A 
ATOM     39  C   UNL     1      35.341  -1.491  16.347  0.00  0.00    +0.000 A 
ATOM     40  C   UNL     1      34.764  -0.300  16.785  0.00  0.00    +0.000 A 
BRANCH  38  41
ATOM     41  O   UNL     1      34.397   2.029  16.623  0.00  0.00    +0.000 OA
ATOM     42  C   UNL     1      35.128   3.222  16.496  0.00  0.00    +0.000 C 
ENDBRANCH  38  41
BRANCH  40  43
ATOM     43  O   UNL     1      33.946  -0.312  17.882  0.00  0.00    +0.000 OA
ATOM     44  H   UNL     1      33.046  -0.058  17.604  0.00  0.00    +0.000 HD
ENDBRANCH  40  43
ENDBRANCH  34  35
ENDBRANCH  32  33
ENDBRANCH  30  32
ENDBRANCH  19  30
TORSDOF 10
ENDMDL
MODEL 8
REMARK VINA RESULT:      -8.1     25.314     28.220
REMARK  Name = 91746246_sitosterol.pdbqt.pdb
REMARK  10 active torsions:
REMARK  status: ('A' for Active; 'I' for Inactive)
REMARK    1  A    between atoms: C_5  and  C_20
REMARK    2  A    between atoms: C_19  and  O_30
REMARK    3  A    between atoms: C_20  and  C_22
REMARK    4  A    between atoms: C_23  and  C_24
REMARK    5  A    between atoms: C_24  and  C_28
REMARK    6  A    between atoms: O_30  and  C_32
REMARK    7  A    between atoms: C_32  and  C_33
REMARK    8  A    between atoms: C_34  and  C_35
REMARK    9  A    between atoms: C_38  and  O_41
REMARK   10  A    between atoms: C_40  and  O_43
REMARK                            x       y       z     vdW  Elec       q    Type
REMARK                         _______ _______ _______ _____ _____    ______ ____
ROOT
ATOM      1  C   UNL     1      19.233   9.868  19.958  0.00  0.00    +0.000 C 
ATOM      2  C   UNL     1      19.910   8.592  19.223  0.00  0.00    +0.000 C 
ATOM      3  C   UNL     1      19.361   7.226  19.349  0.00  0.00    +0.000 C 
ATOM      4  C   UNL     1      18.015   6.863  19.925  0.00  0.00    +0.000 C 
ATOM      5  C   UNL     1      19.269  10.944  18.880  0.00  0.00    +0.000 C 
ATOM      6  C   UNL     1      17.896   9.411  20.332  0.00  0.00    +0.000 C 
ATOM      7  C   UNL     1      17.512   5.404  20.083  0.00  0.00    +0.000 C 
ATOM      8  C   UNL     1      20.425   9.047  17.969  0.00  0.00    +0.000 C 
ATOM      9  C   UNL     1      17.312   8.020  20.352  0.00  0.00    +0.000 C 
ATOM     10  C   UNL     1      20.006  10.476  17.752  0.00  0.00    +0.000 C 
ATOM     11  C   UNL     1      20.026   6.116  18.773  0.00  0.00    +0.000 C 
ATOM     12  C   UNL     1      20.150  10.240  21.154  0.00  0.00    +0.000 C 
ATOM     13  C   UNL     1      18.341   4.306  19.171  0.00  0.00    +0.000 C 
ATOM     14  C   UNL     1      16.108   5.281  19.591  0.00  0.00    +0.000 C 
ATOM     15  C   UNL     1      19.483   4.719  18.713  0.00  0.00    +0.000 C 
ATOM     16  C   UNL     1      17.654   4.969  21.571  0.00  0.00    +0.000 C 
ATOM     17  C   UNL     1      17.529   3.482  18.303  0.00  0.00    +0.000 C 
ATOM     18  C   UNL     1      15.407   4.351  18.587  0.00  0.00    +0.000 C 
ATOM     19  C   UNL     1      16.160   3.353  17.881  0.00  0.00    +0.000 C 
ENDROOT
BRANCH   5  20
ATOM     20  C   UNL     1      18.855  12.296  19.080  0.00  0.00    +0.000 C 
ATOM     21  C   UNL     1      17.537  12.648  19.716  0.00  0.00    +0.000 C 
BRANCH  20  22
ATOM     22  C   UNL     1      19.552  13.373  18.465  0.00  0.00    +0.000 C 
ATOM     23  C   UNL     1      20.301  14.538  17.800  0.00  0.00    +0.000 C 
BRANCH  23  24
ATOM     24  C   UNL     1      20.988  15.618  17.168  0.00  0.00    +0.000 C 
ATOM     25  C   UNL     1      21.857  16.497  17.921  0.00  0.00    +0.000 C 
ATOM     26  C   UNL     1      22.576  17.680  17.309  0.00  0.00    +0.000 C 
ATOM     27  C   UNL     1      22.129  16.309  19.399  0.00  0.00    +0.000 C 
BRANCH  24  28
ATOM     28  C   UNL     1      20.816  15.835  15.774  0.00  0.00    +0.000 C 
ATOM     29  C   UNL     1      20.672  16.125  14.276  0.00  0.00    +0.000 C 
ENDBRANCH  24  28
ENDBRANCH  23  24
ENDBRANCH  20  22
ENDBRANCH   5  20
BRANCH  19  30
ATOM     30  O   UNL     1      15.644   2.074  17.692  0.00  0.00    +0.000 OA
BRANCH  30  32
ATOM     31  O   UNL     1      16.989   0.517  16.608  0.00  0.00    +0.000 OA
ATOM     32  C   UNL     1      16.209   1.458  16.613  0.00  0.00    +0.000 C 
BRANCH  32  33
ATOM     33  C   UNL     1      15.749   2.034  15.374  0.00  0.00    +0.000 C 
ATOM     34  C   UNL     1      15.381   2.508  14.333  0.00  0.00    +0.000 C 
BRANCH  34  35
ATOM     35  C   UNL     1      14.961   3.065  13.090  0.00  0.00    +0.000 A 
ATOM     36  C   UNL     1      15.570   2.652  11.906  0.00  0.00    +0.000 A 
ATOM     37  C   UNL     1      13.951   4.023  13.059  0.00  0.00    +0.000 A 
ATOM     38  C   UNL     1      15.177   3.190  10.677  0.00  0.00    +0.000 A 
ATOM     39  C   UNL     1      13.549   4.568  11.842  0.00  0.00    +0.000 A 
ATOM     40  C   UNL     1      14.163   4.151  10.661  0.00  0.00    +0.000 A 
BRANCH  38  41
ATOM     41  O   UNL     1      15.726   2.841   9.468  0.00  0.00    +0.000 OA
ATOM     42  C   UNL     1      17.015   2.288   9.525  0.00  0.00    +0.000 C 
ENDBRANCH  38  41
BRANCH  40  43
ATOM     43  O   UNL     1      13.765   4.691   9.469  0.00  0.00    +0.000 OA
ATOM     44  H   UNL     1      14.454   5.309   9.160  0.00  0.00    +0.000 HD
ENDBRANCH  40  43
ENDBRANCH  34  35
ENDBRANCH  32  33
ENDBRANCH  30  32
ENDBRANCH  19  30
TORSDOF 10
ENDMDL
MODEL 9
REMARK VINA RESULT:      -8.0     11.340     16.708
REMARK  Name = 91746246_sitosterol.pdbqt.pdb
REMARK  10 active torsions:
REMARK  status: ('A' for Active; 'I' for Inactive)
REMARK    1  A    between atoms: C_5  and  C_20
REMARK    2  A    between atoms: C_19  and  O_30
REMARK    3  A    between atoms: C_20  and  C_22
REMARK    4  A    between atoms: C_23  and  C_24
REMARK    5  A    between atoms: C_24  and  C_28
REMARK    6  A    between atoms: O_30  and  C_32
REMARK    7  A    between atoms: C_32  and  C_33
REMARK    8  A    between atoms: C_34  and  C_35
REMARK    9  A    between atoms: C_38  and  O_41
REMARK   10  A    between atoms: C_40  and  O_43
REMARK                            x       y       z     vdW  Elec       q    Type
REMARK                         _______ _______ _______ _____ _____    ______ ____
ROOT
ATOM      1  C   UNL     1      51.314 -15.695  15.643  0.00  0.00    +0.000 C 
ATOM      2  C   UNL     1      50.937 -14.136  15.875  0.00  0.00    +0.000 C 
ATOM      3  C   UNL     1      51.559 -13.049  15.092  0.00  0.00    +0.000 C 
ATOM      4  C   UNL     1      52.391 -13.220  13.846  0.00  0.00    +0.000 C 
ATOM      5  C   UNL     1      49.956 -16.386  15.682  0.00  0.00    +0.000 C 
ATOM      6  C   UNL     1      51.984 -15.722  14.344  0.00  0.00    +0.000 C 
ATOM      7  C   UNL     1      53.066 -12.043  13.093  0.00  0.00    +0.000 C 
ATOM      8  C   UNL     1      49.547 -14.079  16.208  0.00  0.00    +0.000 C 
ATOM      9  C   UNL     1      52.520 -14.592  13.500  0.00  0.00    +0.000 C 
ATOM     10  C   UNL     1      48.948 -15.451  16.060  0.00  0.00    +0.000 C 
ATOM     11  C   UNL     1      51.281 -11.690  15.380  0.00  0.00    +0.000 C 
ATOM     12  C   UNL     1      52.200 -16.130  16.840  0.00  0.00    +0.000 C 
ATOM     13  C   UNL     1      52.447 -10.561  13.473  0.00  0.00    +0.000 C 
ATOM     14  C   UNL     1      52.827 -12.160  11.624  0.00  0.00    +0.000 C 
ATOM     15  C   UNL     1      51.736 -10.521  14.558  0.00  0.00    +0.000 C 
ATOM     16  C   UNL     1      54.583 -12.013  13.440  0.00  0.00    +0.000 C 
ATOM     17  C   UNL     1      51.998  -9.771  12.348  0.00  0.00    +0.000 C 
ATOM     18  C   UNL     1      52.268 -11.205  10.556  0.00  0.00    +0.000 C 
ATOM     19  C   UNL     1      51.821  -9.891  10.925  0.00  0.00    +0.000 C 
ENDROOT
BRANCH   5  20
ATOM     20  C   UNL     1      49.772 -17.799  15.608  0.00  0.00    +0.000 C 
ATOM     21  C   UNL     1      49.390 -18.496  14.330  0.00  0.00    +0.000 C 
BRANCH  20  22
ATOM     22  C   UNL     1      49.694 -18.590  16.788  0.00  0.00    +0.000 C 
ATOM     23  C   UNL     1      49.607 -19.445  18.063  0.00  0.00    +0.000 C 
BRANCH  23  24
ATOM     24  C   UNL     1      49.515 -20.227  19.253  0.00  0.00    +0.000 C 
ATOM     25  C   UNL     1      50.435 -20.029  20.353  0.00  0.00    +0.000 C 
ATOM     26  C   UNL     1      50.409 -20.857  21.619  0.00  0.00    +0.000 C 
ATOM     27  C   UNL     1      51.514 -18.966  20.336  0.00  0.00    +0.000 C 
BRANCH  24  28
ATOM     28  C   UNL     1      48.503 -21.218  19.362  0.00  0.00    +0.000 C 
ATOM     29  C   UNL     1      47.456 -22.333  19.452  0.00  0.00    +0.000 C 
ENDBRANCH  24  28
ENDBRANCH  23  24
ENDBRANCH  20  22
ENDBRANCH   5  20
BRANCH  19  30
ATOM     30  O   UNL     1      52.115  -8.789  10.127  0.00  0.00    +0.000 OA
BRANCH  30  32
ATOM     31  O   UNL     1      50.533  -8.294   8.497  0.00  0.00    +0.000 OA
ATOM     32  C   UNL     1      50.983  -8.212   9.630  0.00  0.00    +0.000 C 
BRANCH  32  33
ATOM     33  C   UNL     1      50.285  -7.459  10.642  0.00  0.00    +0.000 C 
ATOM     34  C   UNL     1      49.704  -6.847  11.497  0.00  0.00    +0.000 C 
BRANCH  34  35
ATOM     35  C   UNL     1      49.013  -6.136  12.523  0.00  0.00    +0.000 A 
ATOM     36  C   UNL     1      49.644  -5.897  13.743  0.00  0.00    +0.000 A 
ATOM     37  C   UNL     1      47.712  -5.690  12.309  0.00  0.00    +0.000 A 
ATOM     38  C   UNL     1      48.982  -5.208  14.763  0.00  0.00    +0.000 A 
ATOM     39  C   UNL     1      47.041  -5.001  13.317  0.00  0.00    +0.000 A 
ATOM     40  C   UNL     1      47.677  -4.766  14.535  0.00  0.00    +0.000 A 
BRANCH  38  41
ATOM     41  O   UNL     1      49.529  -4.932  15.993  0.00  0.00    +0.000 OA
ATOM     42  C   UNL     1      49.621  -6.023  16.872  0.00  0.00    +0.000 C 
ENDBRANCH  38  41
BRANCH  40  43
ATOM     43  O   UNL     1      47.011  -4.091  15.522  0.00  0.00    +0.000 OA
ATOM     44  H   UNL     1      46.717  -3.231  15.168  0.00  0.00    +0.000 HD
ENDBRANCH  40  43
ENDBRANCH  34  35
ENDBRANCH  32  33
ENDBRANCH  30  32
ENDBRANCH  19  30
TORSDOF 10
ENDMDL
