MODEL 1
REMARK VINA RESULT:      -4.2      0.000      0.000
REMARK  Name = 92041_2Ethoxy5fluorouracil.pdbqt.pdb
REMARK  2 active torsions:
REMARK  status: ('A' for Active; 'I' for Inactive)
REMARK    1  A    between atoms: C_5  and  O_10
REMARK    2  A    between atoms: O_10  and  C_11
REMARK                            x       y       z     vdW  Elec       q    Type
REMARK                         _______ _______ _______ _____ _____    ______ ____
ROOT
ATOM      1  F   UNL     1      37.708   3.935  13.879  0.00  0.00    +0.000 F 
ATOM      2  O   UNL     1      39.490   2.014  12.753  0.00  0.00    +0.000 OA
ATOM      3  N   UNL     1      38.250   0.364  13.764  0.00  0.00    +0.000 N 
ATOM      4  N   UNL     1      36.247   0.791  14.948  0.00  0.00    +0.000 NA
ATOM      5  C   UNL     1      37.169  -0.037  14.544  0.00  0.00    +0.000 C 
ATOM      6  C   UNL     1      38.482   1.682  13.363  0.00  0.00    +0.000 C 
ATOM      7  C   UNL     1      37.399   2.633  13.768  0.00  0.00    +0.000 C 
ATOM      8  C   UNL     1      36.522   2.020  14.492  0.00  0.00    +0.000 C 
ATOM      9  H   UNL     1      38.956  -0.311  13.511  0.00  0.00    +0.000 HD
ENDROOT
BRANCH   5  10
ATOM     10  O   UNL     1      37.193  -1.361  14.823  0.00  0.00    +0.000 OA
BRANCH  10  11
ATOM     11  C   UNL     1      36.405  -1.764  15.816  0.00  0.00    +0.000 C 
ATOM     12  C   UNL     1      35.546  -2.220  16.999  0.00  0.00    +0.000 C 
ENDBRANCH  10  11
ENDBRANCH   5  10
TORSDOF 2
ENDMDL
MODEL 2
REMARK VINA RESULT:      -4.1      2.206      2.464
REMARK  Name = 92041_2Ethoxy5fluorouracil.pdbqt.pdb
REMARK  2 active torsions:
REMARK  status: ('A' for Active; 'I' for Inactive)
REMARK    1  A    between atoms: C_5  and  O_10
REMARK    2  A    between atoms: O_10  and  C_11
REMARK                            x       y       z     vdW  Elec       q    Type
REMARK                         _______ _______ _______ _____ _____    ______ ____
ROOT
ATOM      1  F   UNL     1      38.736   0.677  12.263  0.00  0.00    +0.000 F 
ATOM      2  O   UNL     1      38.143   3.129  13.593  0.00  0.00    +0.000 OA
ATOM      3  N   UNL     1      36.684   1.973  14.940  0.00  0.00    +0.000 N 
ATOM      4  N   UNL     1      36.433  -0.378  14.860  0.00  0.00    +0.000 NA
ATOM      5  C   UNL     1      36.079   0.783  15.336  0.00  0.00    +0.000 C 
ATOM      6  C   UNL     1      37.697   2.058  13.982  0.00  0.00    +0.000 C 
ATOM      7  C   UNL     1      38.156   0.727  13.474  0.00  0.00    +0.000 C 
ATOM      8  C   UNL     1      37.429  -0.214  13.980  0.00  0.00    +0.000 C 
ATOM      9  H   UNL     1      36.344   2.848  15.311  0.00  0.00    +0.000 HD
ENDROOT
BRANCH   5  10
ATOM     10  O   UNL     1      35.102   0.976  16.252  0.00  0.00    +0.000 OA
BRANCH  10  11
ATOM     11  C   UNL     1      34.212  -0.004  16.374  0.00  0.00    +0.000 C 
ATOM     12  C   UNL     1      33.210  -1.146  16.571  0.00  0.00    +0.000 C 
ENDBRANCH  10  11
ENDBRANCH   5  10
TORSDOF 2
ENDMDL
MODEL 3
REMARK VINA RESULT:      -3.8     13.090     13.775
REMARK  Name = 92041_2Ethoxy5fluorouracil.pdbqt.pdb
REMARK  2 active torsions:
REMARK  status: ('A' for Active; 'I' for Inactive)
REMARK    1  A    between atoms: C_5  and  O_10
REMARK    2  A    between atoms: O_10  and  C_11
REMARK                            x       y       z     vdW  Elec       q    Type
REMARK                         _______ _______ _______ _____ _____    ______ ____
ROOT
ATOM      1  F   UNL     1      49.393   8.629  22.660  0.00  0.00    +0.000 F 
ATOM      2  O   UNL     1      47.380   9.931  21.115  0.00  0.00    +0.000 OA
ATOM      3  N   UNL     1      46.143   7.997  21.214  0.00  0.00    +0.000 N 
ATOM      4  N   UNL     1      46.791   6.108  22.481  0.00  0.00    +0.000 NA
ATOM      5  C   UNL     1      45.971   6.686  21.649  0.00  0.00    +0.000 C 
ATOM      6  C   UNL     1      47.212   8.814  21.587  0.00  0.00    +0.000 C 
ATOM      7  C   UNL     1      48.128   8.184  22.590  0.00  0.00    +0.000 C 
ATOM      8  C   UNL     1      47.763   6.966  22.817  0.00  0.00    +0.000 C 
ATOM      9  H   UNL     1      45.500   8.383  20.539  0.00  0.00    +0.000 HD
ENDROOT
BRANCH   5  10
ATOM     10  O   UNL     1      44.874   6.101  21.114  0.00  0.00    +0.000 OA
BRANCH  10  11
ATOM     11  C   UNL     1      43.814   6.886  20.948  0.00  0.00    +0.000 C 
ATOM     12  C   UNL     1      42.558   7.739  20.747  0.00  0.00    +0.000 C 
ENDBRANCH  10  11
ENDBRANCH   5  10
TORSDOF 2
ENDMDL
MODEL 4
REMARK VINA RESULT:      -3.8      6.197      6.822
REMARK  Name = 92041_2Ethoxy5fluorouracil.pdbqt.pdb
REMARK  2 active torsions:
REMARK  status: ('A' for Active; 'I' for Inactive)
REMARK    1  A    between atoms: C_5  and  O_10
REMARK    2  A    between atoms: O_10  and  C_11
REMARK                            x       y       z     vdW  Elec       q    Type
REMARK                         _______ _______ _______ _____ _____    ______ ____
ROOT
ATOM      1  F   UNL     1      43.245  -0.512   9.714  0.00  0.00    +0.000 F 
ATOM      2  O   UNL     1      41.769  -1.531  11.931  0.00  0.00    +0.000 OA
ATOM      3  N   UNL     1      39.895  -1.537  10.600  0.00  0.00    +0.000 N 
ATOM      4  N   UNL     1      39.941  -0.997   8.298  0.00  0.00    +0.000 NA
ATOM      5  C   UNL     1      39.276  -1.314   9.373  0.00  0.00    +0.000 C 
ATOM      6  C   UNL     1      41.270  -1.416  10.820  0.00  0.00    +0.000 C 
ATOM      7  C   UNL     1      42.051  -1.113   9.579  0.00  0.00    +0.000 C 
ATOM      8  C   UNL     1      41.248  -0.937   8.583  0.00  0.00    +0.000 C 
ATOM      9  H   UNL     1      39.330  -1.741  11.410  0.00  0.00    +0.000 HD
ENDROOT
BRANCH   5  10
ATOM     10  O   UNL     1      37.932  -1.463   9.435  0.00  0.00    +0.000 OA
BRANCH  10  11
ATOM     11  C   UNL     1      37.214  -0.589   8.737  0.00  0.00    +0.000 C 
ATOM     12  C   UNL     1      36.434   0.423   7.891  0.00  0.00    +0.000 C 
ENDBRANCH  10  11
ENDBRANCH   5  10
TORSDOF 2
ENDMDL
MODEL 5
REMARK VINA RESULT:      -3.7     23.039     23.533
REMARK  Name = 92041_2Ethoxy5fluorouracil.pdbqt.pdb
REMARK  2 active torsions:
REMARK  status: ('A' for Active; 'I' for Inactive)
REMARK    1  A    between atoms: C_5  and  O_10
REMARK    2  A    between atoms: O_10  and  C_11
REMARK                            x       y       z     vdW  Elec       q    Type
REMARK                         _______ _______ _______ _____ _____    ______ ____
ROOT
ATOM      1  F   UNL     1      45.647 -15.729  -4.548  0.00  0.00    +0.000 F 
ATOM      2  O   UNL     1      46.150 -12.992  -3.925  0.00  0.00    +0.000 OA
ATOM      3  N   UNL     1      44.306 -13.031  -2.553  0.00  0.00    +0.000 N 
ATOM      4  N   UNL     1      43.063 -14.994  -2.111  0.00  0.00    +0.000 NA
ATOM      5  C   UNL     1      43.237 -13.710  -1.974  0.00  0.00    +0.000 C 
ATOM      6  C   UNL     1      45.275 -13.634  -3.359  0.00  0.00    +0.000 C 
ATOM      7  C   UNL     1      45.121 -15.119  -3.473  0.00  0.00    +0.000 C 
ATOM      8  C   UNL     1      44.049 -15.501  -2.862  0.00  0.00    +0.000 C 
ATOM      9  H   UNL     1      44.372 -12.030  -2.448  0.00  0.00    +0.000 HD
ENDROOT
BRANCH   5  10
ATOM     10  O   UNL     1      42.422 -12.891  -1.270  0.00  0.00    +0.000 OA
BRANCH  10  11
ATOM     11  C   UNL     1      41.537 -13.486  -0.477  0.00  0.00    +0.000 C 
ATOM     12  C   UNL     1      40.546 -14.227   0.426  0.00  0.00    +0.000 C 
ENDBRANCH  10  11
ENDBRANCH   5  10
TORSDOF 2
ENDMDL
MODEL 6
REMARK VINA RESULT:      -3.6     28.130     28.889
REMARK  Name = 92041_2Ethoxy5fluorouracil.pdbqt.pdb
REMARK  2 active torsions:
REMARK  status: ('A' for Active; 'I' for Inactive)
REMARK    1  A    between atoms: C_5  and  O_10
REMARK    2  A    between atoms: O_10  and  C_11
REMARK                            x       y       z     vdW  Elec       q    Type
REMARK                         _______ _______ _______ _____ _____    ______ ____
ROOT
ATOM      1  F   UNL     1      25.897  21.506  31.640  0.00  0.00    +0.000 F 
ATOM      2  O   UNL     1      27.905  20.967  33.592  0.00  0.00    +0.000 OA
ATOM      3  N   UNL     1      29.482  21.651  32.066  0.00  0.00    +0.000 N 
ATOM      4  N   UNL     1      28.931  22.556  29.951  0.00  0.00    +0.000 NA
ATOM      5  C   UNL     1      29.822  22.153  30.813  0.00  0.00    +0.000 C 
ATOM      6  C   UNL     1      28.170  21.495  32.520  0.00  0.00    +0.000 C 
ATOM      7  C   UNL     1      27.139  22.011  31.565  0.00  0.00    +0.000 C 
ATOM      8  C   UNL     1      27.707  22.408  30.474  0.00  0.00    +0.000 C 
ATOM      9  H   UNL     1      30.210  21.316  32.679  0.00  0.00    +0.000 HD
ENDROOT
BRANCH   5  10
ATOM     10  O   UNL     1      31.160  22.170  30.605  0.00  0.00    +0.000 OA
BRANCH  10  11
ATOM     11  C   UNL     1      31.848  23.072  31.297  0.00  0.00    +0.000 C 
ATOM     12  C   UNL     1      32.595  24.154  32.085  0.00  0.00    +0.000 C 
ENDBRANCH  10  11
ENDBRANCH   5  10
TORSDOF 2
ENDMDL
MODEL 7
REMARK VINA RESULT:      -3.3     20.260     21.373
REMARK  Name = 92041_2Ethoxy5fluorouracil.pdbqt.pdb
REMARK  2 active torsions:
REMARK  status: ('A' for Active; 'I' for Inactive)
REMARK    1  A    between atoms: C_5  and  O_10
REMARK    2  A    between atoms: O_10  and  C_11
REMARK                            x       y       z     vdW  Elec       q    Type
REMARK                         _______ _______ _______ _____ _____    ______ ____
ROOT
ATOM      1  F   UNL     1      50.306 -18.810  12.120  0.00  0.00    +0.000 F 
ATOM      2  O   UNL     1      47.624 -18.520  13.044  0.00  0.00    +0.000 OA
ATOM      3  N   UNL     1      48.311 -16.703  14.273  0.00  0.00    +0.000 N 
ATOM      4  N   UNL     1      50.501 -15.818  14.162  0.00  0.00    +0.000 NA
ATOM      5  C   UNL     1      49.304 -15.815  14.677  0.00  0.00    +0.000 C 
ATOM      6  C   UNL     1      48.492 -17.700  13.311  0.00  0.00    +0.000 C 
ATOM      7  C   UNL     1      49.844 -17.674  12.667  0.00  0.00    +0.000 C 
ATOM      8  C   UNL     1      50.582 -16.773  13.227  0.00  0.00    +0.000 C 
ATOM      9  H   UNL     1      47.412 -16.683  14.732  0.00  0.00    +0.000 HD
ENDROOT
BRANCH   5  10
ATOM     10  O   UNL     1      48.883 -14.971  15.647  0.00  0.00    +0.000 OA
BRANCH  10  11
ATOM     11  C   UNL     1      49.717 -13.987  15.970  0.00  0.00    +0.000 C 
ATOM     12  C   UNL     1      50.682 -12.878  16.399  0.00  0.00    +0.000 C 
ENDBRANCH  10  11
ENDBRANCH   5  10
TORSDOF 2
ENDMDL
MODEL 8
REMARK VINA RESULT:      -3.2     13.770     14.087
REMARK  Name = 92041_2Ethoxy5fluorouracil.pdbqt.pdb
REMARK  2 active torsions:
REMARK  status: ('A' for Active; 'I' for Inactive)
REMARK    1  A    between atoms: C_5  and  O_10
REMARK    2  A    between atoms: O_10  and  C_11
REMARK                            x       y       z     vdW  Elec       q    Type
REMARK                         _______ _______ _______ _____ _____    ______ ____
ROOT
ATOM      1  F   UNL     1      26.023   3.220   4.997  0.00  0.00    +0.000 F 
ATOM      2  O   UNL     1      27.390   2.295   2.671  0.00  0.00    +0.000 OA
ATOM      3  N   UNL     1      27.800   0.321   3.775  0.00  0.00    +0.000 N 
ATOM      4  N   UNL     1      26.928  -0.171   5.917  0.00  0.00    +0.000 NA
ATOM      5  C   UNL     1      27.672  -0.493   4.897  0.00  0.00    +0.000 C 
ATOM      6  C   UNL     1      27.184   1.566   3.633  0.00  0.00    +0.000 C 
ATOM      7  C   UNL     1      26.277   1.920   4.771  0.00  0.00    +0.000 C 
ATOM      8  C   UNL     1      26.346   1.013   5.689  0.00  0.00    +0.000 C 
ATOM      9  H   UNL     1      28.420   0.042   3.029  0.00  0.00    +0.000 HD
ENDROOT
BRANCH   5  10
ATOM     10  O   UNL     1      28.398  -1.631   4.799  0.00  0.00    +0.000 OA
BRANCH  10  11
ATOM     11  C   UNL     1      29.642  -1.495   4.352  0.00  0.00    +0.000 C 
ATOM     12  C   UNL     1      31.096  -1.343   3.895  0.00  0.00    +0.000 C 
ENDBRANCH  10  11
ENDBRANCH   5  10
TORSDOF 2
ENDMDL
MODEL 9
REMARK VINA RESULT:      -3.2     32.234     33.079
REMARK  Name = 92041_2Ethoxy5fluorouracil.pdbqt.pdb
REMARK  2 active torsions:
REMARK  status: ('A' for Active; 'I' for Inactive)
REMARK    1  A    between atoms: C_5  and  O_10
REMARK    2  A    between atoms: O_10  and  C_11
REMARK                            x       y       z     vdW  Elec       q    Type
REMARK                         _______ _______ _______ _____ _____    ______ ____
ROOT
ATOM      1  F   UNL     1      18.717 -10.126  41.870  0.00  0.00    +0.000 F 
ATOM      2  O   UNL     1      20.924  -8.917  40.529  0.00  0.00    +0.000 OA
ATOM      3  N   UNL     1      19.445  -7.466  39.536  0.00  0.00    +0.000 N 
ATOM      4  N   UNL     1      17.139  -7.407  40.059  0.00  0.00    +0.000 NA
ATOM      5  C   UNL     1      18.151  -6.986  39.353  0.00  0.00    +0.000 C 
ATOM      6  C   UNL     1      19.793  -8.456  40.457  0.00  0.00    +0.000 C 
ATOM      7  C   UNL     1      18.652  -8.903  41.317  0.00  0.00    +0.000 C 
ATOM      8  C   UNL     1      17.561  -8.324  40.939  0.00  0.00    +0.000 C 
ATOM      9  H   UNL     1      20.185  -7.134  38.935  0.00  0.00    +0.000 HD
ENDROOT
BRANCH   5  10
ATOM     10  O   UNL     1      18.076  -6.054  38.375  0.00  0.00    +0.000 OA
BRANCH  10  11
ATOM     11  C   UNL     1      17.176  -5.092  38.552  0.00  0.00    +0.000 C 
ATOM     12  C   UNL     1      16.134  -3.999  38.817  0.00  0.00    +0.000 C 
ENDBRANCH  10  11
ENDBRANCH   5  10
TORSDOF 2
ENDMDL
