REMARK  Name = 95716_6Bromoisatin.pdbqt.pdb
REMARK  0 active torsions:
REMARK  status: ('A' for Active; 'I' for Inactive)
REMARK                            x       y       z     vdW  Elec       q    Type
REMARK                         _______ _______ _______ _____ _____    ______ ____
ROOT
ATOM      1 BR   UNL     1       4.201  -0.662   0.000  0.00  0.00    +0.000 Br
ATOM      2  O   UNL     1      -2.350   1.752   0.000  0.00  0.00    +0.000 OA
ATOM      3  O   UNL     1      -3.345  -1.091   0.000  0.00  0.00    +0.000 OA
ATOM      4  N   UNL     1      -1.050  -1.506   0.000  0.00  0.00    +0.000 N 
ATOM      5  C   UNL     1       0.094  -0.713   0.000  0.00  0.00    +0.000 A 
ATOM      6  C   UNL     1      -0.225   0.643   0.000  0.00  0.00    +0.000 A 
ATOM      7  C   UNL     1      -1.684   0.744   0.000  0.00  0.00    +0.000 C 
ATOM      8  C   UNL     1       1.403  -1.144   0.000  0.00  0.00    +0.000 A 
ATOM      9  C   UNL     1       0.732   1.636   0.000  0.00  0.00    +0.000 A 
ATOM     10  C   UNL     1      -2.192  -0.727   0.000  0.00  0.00    +0.000 C 
ATOM     11  C   UNL     1       2.386  -0.152   0.000  0.00  0.00    +0.000 A 
ATOM     12  C   UNL     1       2.063   1.216   0.000  0.00  0.00    +0.000 A 
ATOM     13  H   UNL     1      -1.076  -2.516   0.000  0.00  0.00    +0.000 HD
ENDROOT
TORSDOF 0
