MODEL 1
REMARK VINA RESULT:      -5.6      0.000      0.000
REMARK  Name = 95716_6Bromoisatin.pdbqt.pdb
REMARK  0 active torsions:
REMARK  status: ('A' for Active; 'I' for Inactive)
REMARK                            x       y       z     vdW  Elec       q    Type
REMARK                         _______ _______ _______ _____ _____    ______ ____
ROOT
ATOM      1 BR   UNL     1      19.185   5.295  19.213  0.00  0.00    +0.000 Br
ATOM      2  O   UNL     1      21.149  11.866  17.904  0.00  0.00    +0.000 OA
ATOM      3  O   UNL     1      23.243  10.811  16.013  0.00  0.00    +0.000 OA
ATOM      4  N   UNL     1      22.314   8.784  16.699  0.00  0.00    +0.000 N 
ATOM      5  C   UNL     1      21.291   8.414  17.568  0.00  0.00    +0.000 A 
ATOM      6  C   UNL     1      20.694   9.526  18.157  0.00  0.00    +0.000 A 
ATOM      7  C   UNL     1      21.376  10.710  17.635  0.00  0.00    +0.000 C 
ATOM      8  C   UNL     1      20.870   7.133  17.857  0.00  0.00    +0.000 A 
ATOM      9  C   UNL     1      19.654   9.427  19.058  0.00  0.00    +0.000 A 
ATOM     10  C   UNL     1      22.456  10.159  16.660  0.00  0.00    +0.000 C 
ATOM     11  C   UNL     1      19.818   7.014  18.767  0.00  0.00    +0.000 A 
ATOM     12  C   UNL     1      19.216   8.137  19.361  0.00  0.00    +0.000 A 
ATOM     13  H   UNL     1      22.892   8.158  16.156  0.00  0.00    +0.000 HD
ENDROOT
TORSDOF 0
ENDMDL
MODEL 2
REMARK VINA RESULT:      -5.5      1.346      2.246
REMARK  Name = 95716_6Bromoisatin.pdbqt.pdb
REMARK  0 active torsions:
REMARK  status: ('A' for Active; 'I' for Inactive)
REMARK                            x       y       z     vdW  Elec       q    Type
REMARK                         _______ _______ _______ _____ _____    ______ ____
ROOT
ATOM      1 BR   UNL     1      18.431   6.510  20.716  0.00  0.00    +0.000 Br
ATOM      2  O   UNL     1      22.472   9.592  15.929  0.00  0.00    +0.000 OA
ATOM      3  O   UNL     1      21.739  12.266  17.104  0.00  0.00    +0.000 OA
ATOM      4  N   UNL     1      20.504  10.891  18.526  0.00  0.00    +0.000 N 
ATOM      5  C   UNL     1      20.308   9.518  18.642  0.00  0.00    +0.000 A 
ATOM      6  C   UNL     1      21.024   8.816  17.675  0.00  0.00    +0.000 A 
ATOM      7  C   UNL     1      21.741   9.803  16.868  0.00  0.00    +0.000 C 
ATOM      8  C   UNL     1      19.522   8.866  19.568  0.00  0.00    +0.000 A 
ATOM      9  C   UNL     1      20.999   7.441  17.577  0.00  0.00    +0.000 A 
ATOM     10  C   UNL     1      21.358  11.182  17.479  0.00  0.00    +0.000 C 
ATOM     11  C   UNL     1      19.484   7.473  19.484  0.00  0.00    +0.000 A 
ATOM     12  C   UNL     1      20.207   6.766  18.508  0.00  0.00    +0.000 A 
ATOM     13  H   UNL     1      20.092  11.604  19.111  0.00  0.00    +0.000 HD
ENDROOT
TORSDOF 0
ENDMDL
MODEL 3
REMARK VINA RESULT:      -4.9     37.203     38.358
REMARK  Name = 95716_6Bromoisatin.pdbqt.pdb
REMARK  0 active torsions:
REMARK  status: ('A' for Active; 'I' for Inactive)
REMARK                            x       y       z     vdW  Elec       q    Type
REMARK                         _______ _______ _______ _____ _____    ______ ____
ROOT
ATOM      1 BR   UNL     1      46.442 -12.837  -4.532  0.00  0.00    +0.000 Br
ATOM      2  O   UNL     1      41.927 -16.714  -0.881  0.00  0.00    +0.000 OA
ATOM      3  O   UNL     1      40.743 -14.185   0.246  0.00  0.00    +0.000 OA
ATOM      4  N   UNL     1      42.391 -13.245  -1.110  0.00  0.00    +0.000 N 
ATOM      5  C   UNL     1      43.368 -13.748  -1.964  0.00  0.00    +0.000 A 
ATOM      6  C   UNL     1      43.341 -15.140  -2.007  0.00  0.00    +0.000 A 
ATOM      7  C   UNL     1      42.268 -15.579  -1.116  0.00  0.00    +0.000 C 
ATOM      8  C   UNL     1      44.279 -13.023  -2.703  0.00  0.00    +0.000 A 
ATOM      9  C   UNL     1      44.210 -15.881  -2.781  0.00  0.00    +0.000 A 
ATOM     10  C   UNL     1      41.660 -14.269  -0.537  0.00  0.00    +0.000 C 
ATOM     11  C   UNL     1      45.166 -13.757  -3.492  0.00  0.00    +0.000 A 
ATOM     12  C   UNL     1      45.138 -15.161  -3.535  0.00  0.00    +0.000 A 
ATOM     13  H   UNL     1      42.215 -12.270  -0.913  0.00  0.00    +0.000 HD
ENDROOT
TORSDOF 0
ENDMDL
MODEL 4
REMARK VINA RESULT:      -4.8     19.073     19.788
REMARK  Name = 95716_6Bromoisatin.pdbqt.pdb
REMARK  0 active torsions:
REMARK  status: ('A' for Active; 'I' for Inactive)
REMARK                            x       y       z     vdW  Elec       q    Type
REMARK                         _______ _______ _______ _____ _____    ______ ____
ROOT
ATOM      1 BR   UNL     1      38.482   4.158  13.864  0.00  0.00    +0.000 Br
ATOM      2  O   UNL     1      36.160  -0.815   9.549  0.00  0.00    +0.000 OA
ATOM      3  O   UNL     1      37.406   0.672   7.245  0.00  0.00    +0.000 OA
ATOM      4  N   UNL     1      38.005   2.114   8.978  0.00  0.00    +0.000 N 
ATOM      5  C   UNL     1      37.806   2.134  10.356  0.00  0.00    +0.000 A 
ATOM      6  C   UNL     1      37.076   1.026  10.782  0.00  0.00    +0.000 A 
ATOM      7  C   UNL     1      36.776   0.224   9.596  0.00  0.00    +0.000 C 
ATOM      8  C   UNL     1      38.244   3.091  11.244  0.00  0.00    +0.000 A 
ATOM      9  C   UNL     1      36.745   0.812  12.103  0.00  0.00    +0.000 A 
ATOM     10  C   UNL     1      37.422   0.996   8.410  0.00  0.00    +0.000 C 
ATOM     11  C   UNL     1      37.918   2.891  12.587  0.00  0.00    +0.000 A 
ATOM     12  C   UNL     1      37.182   1.774  13.016  0.00  0.00    +0.000 A 
ATOM     13  H   UNL     1      38.503   2.806   8.437  0.00  0.00    +0.000 HD
ENDROOT
TORSDOF 0
ENDMDL
MODEL 5
REMARK VINA RESULT:      -4.5     13.144     14.285
REMARK  Name = 95716_6Bromoisatin.pdbqt.pdb
REMARK  0 active torsions:
REMARK  status: ('A' for Active; 'I' for Inactive)
REMARK                            x       y       z     vdW  Elec       q    Type
REMARK                         _______ _______ _______ _____ _____    ______ ____
ROOT
ATOM      1 BR   UNL     1      20.560  -2.393   5.221  0.00  0.00    +0.000 Br
ATOM      2  O   UNL     1      19.749  -2.489  12.155  0.00  0.00    +0.000 OA
ATOM      3  O   UNL     1      22.301  -0.912  12.426  0.00  0.00    +0.000 OA
ATOM      4  N   UNL     1      22.226  -1.092  10.102  0.00  0.00    +0.000 N 
ATOM      5  C   UNL     1      21.355  -1.677   9.187  0.00  0.00    +0.000 A 
ATOM      6  C   UNL     1      20.283  -2.296   9.826  0.00  0.00    +0.000 A 
ATOM      7  C   UNL     1      20.467  -2.101  11.264  0.00  0.00    +0.000 C 
ATOM      8  C   UNL     1      21.474  -1.684   7.814  0.00  0.00    +0.000 A 
ATOM      9  C   UNL     1      19.280  -2.949   9.142  0.00  0.00    +0.000 A 
ATOM     10  C   UNL     1      21.786  -1.287  11.398  0.00  0.00    +0.000 C 
ATOM     11  C   UNL     1      20.467  -2.341   7.104  0.00  0.00    +0.000 A 
ATOM     12  C   UNL     1      19.386  -2.965   7.750  0.00  0.00    +0.000 A 
ATOM     13  H   UNL     1      23.072  -0.587   9.881  0.00  0.00    +0.000 HD
ENDROOT
TORSDOF 0
ENDMDL
MODEL 6
REMARK VINA RESULT:      -4.4     14.945     16.072
REMARK  Name = 95716_6Bromoisatin.pdbqt.pdb
REMARK  0 active torsions:
REMARK  status: ('A' for Active; 'I' for Inactive)
REMARK                            x       y       z     vdW  Elec       q    Type
REMARK                         _______ _______ _______ _____ _____    ______ ____
ROOT
ATOM      1 BR   UNL     1      18.750  -2.222   8.070  0.00  0.00    +0.000 Br
ATOM      2  O   UNL     1      24.650  -2.366   4.340  0.00  0.00    +0.000 OA
ATOM      3  O   UNL     1      26.016  -0.817   6.533  0.00  0.00    +0.000 OA
ATOM      4  N   UNL     1      23.886  -0.977   7.469  0.00  0.00    +0.000 N 
ATOM      5  C   UNL     1      22.678  -1.546   7.077  0.00  0.00    +0.000 A 
ATOM      6  C   UNL     1      22.784  -2.160   5.830  0.00  0.00    +0.000 A 
ATOM      7  C   UNL     1      24.162  -1.978   5.375  0.00  0.00    +0.000 C 
ATOM      8  C   UNL     1      21.492  -1.543   7.778  0.00  0.00    +0.000 A 
ATOM      9  C   UNL     1      21.725  -2.797   5.218  0.00  0.00    +0.000 A 
ATOM     10  C   UNL     1      24.862  -1.178   6.511  0.00  0.00    +0.000 C 
ATOM     11  C   UNL     1      20.408  -2.184   7.173  0.00  0.00    +0.000 A 
ATOM     12  C   UNL     1      20.516  -2.802   5.916  0.00  0.00    +0.000 A 
ATOM     13  H   UNL     1      24.059  -0.479   8.331  0.00  0.00    +0.000 HD
ENDROOT
TORSDOF 0
ENDMDL
MODEL 7
REMARK VINA RESULT:      -4.3     15.411     16.469
REMARK  Name = 95716_6Bromoisatin.pdbqt.pdb
REMARK  0 active torsions:
REMARK  status: ('A' for Active; 'I' for Inactive)
REMARK                            x       y       z     vdW  Elec       q    Type
REMARK                         _______ _______ _______ _____ _____    ______ ____
ROOT
ATOM      1 BR   UNL     1      21.379  -2.340   6.008  0.00  0.00    +0.000 Br
ATOM      2  O   UNL     1      27.496   0.025   3.613  0.00  0.00    +0.000 OA
ATOM      3  O   UNL     1      27.632   1.906   5.963  0.00  0.00    +0.000 OA
ATOM      4  N   UNL     1      25.596   0.873   6.438  0.00  0.00    +0.000 N 
ATOM      5  C   UNL     1      24.827  -0.116   5.829  0.00  0.00    +0.000 A 
ATOM      6  C   UNL     1      25.431  -0.587   4.666  0.00  0.00    +0.000 A 
ATOM      7  C   UNL     1      26.686   0.146   4.501  0.00  0.00    +0.000 C 
ATOM      8  C   UNL     1      23.618  -0.612   6.264  0.00  0.00    +0.000 A 
ATOM      9  C   UNL     1      24.870  -1.570   3.878  0.00  0.00    +0.000 A 
ATOM     10  C   UNL     1      26.750   1.116   5.717  0.00  0.00    +0.000 C 
ATOM     11  C   UNL     1      23.034  -1.609   5.479  0.00  0.00    +0.000 A 
ATOM     12  C   UNL     1      23.645  -2.084   4.305  0.00  0.00    +0.000 A 
ATOM     13  H   UNL     1      25.368   1.366   7.290  0.00  0.00    +0.000 HD
ENDROOT
TORSDOF 0
ENDMDL
MODEL 8
REMARK VINA RESULT:      -4.3     19.978     20.500
REMARK  Name = 95716_6Bromoisatin.pdbqt.pdb
REMARK  0 active torsions:
REMARK  status: ('A' for Active; 'I' for Inactive)
REMARK                            x       y       z     vdW  Elec       q    Type
REMARK                         _______ _______ _______ _____ _____    ______ ____
ROOT
ATOM      1 BR   UNL     1      25.019  24.023  29.041  0.00  0.00    +0.000 Br
ATOM      2  O   UNL     1      31.879  24.346  27.782  0.00  0.00    +0.000 OA
ATOM      3  O   UNL     1      32.360  22.692  30.253  0.00  0.00    +0.000 OA
ATOM      4  N   UNL     1      30.032  22.807  30.337  0.00  0.00    +0.000 N 
ATOM      5  C   UNL     1      29.046  23.395  29.549  0.00  0.00    +0.000 A 
ATOM      6  C   UNL     1      29.597  24.068  28.460  0.00  0.00    +0.000 A 
ATOM      7  C   UNL     1      31.048  23.908  28.542  0.00  0.00    +0.000 C 
ATOM      8  C   UNL     1      27.685  23.358  29.758  0.00  0.00    +0.000 A 
ATOM      9  C   UNL     1      28.830  24.735  27.528  0.00  0.00    +0.000 A 
ATOM     10  C   UNL     1      31.290  23.054  29.820  0.00  0.00    +0.000 C 
ATOM     11  C   UNL     1      26.892  24.028  28.823  0.00  0.00    +0.000 A 
ATOM     12  C   UNL     1      27.448  24.707  27.725  0.00  0.00    +0.000 A 
ATOM     13  H   UNL     1      29.881  22.268  31.177  0.00  0.00    +0.000 HD
ENDROOT
TORSDOF 0
ENDMDL
MODEL 9
REMARK VINA RESULT:      -4.1     19.524     20.535
REMARK  Name = 95716_6Bromoisatin.pdbqt.pdb
REMARK  0 active torsions:
REMARK  status: ('A' for Active; 'I' for Inactive)
REMARK                            x       y       z     vdW  Elec       q    Type
REMARK                         _______ _______ _______ _____ _____    ______ ____
ROOT
ATOM      1 BR   UNL     1      36.184   1.617  13.437  0.00  0.00    +0.000 Br
ATOM      2  O   UNL     1      38.454  -0.303   7.120  0.00  0.00    +0.000 OA
ATOM      3  O   UNL     1      39.454   2.504   6.681  0.00  0.00    +0.000 OA
ATOM      4  N   UNL     1      38.571   2.761   8.824  0.00  0.00    +0.000 N 
ATOM      5  C   UNL     1      37.926   1.924   9.731  0.00  0.00    +0.000 A 
ATOM      6  C   UNL     1      37.784   0.635   9.222  0.00  0.00    +0.000 A 
ATOM      7  C   UNL     1      38.379   0.629   7.886  0.00  0.00    +0.000 C 
ATOM      8  C   UNL     1      37.462   2.258  10.984  0.00  0.00    +0.000 A 
ATOM      9  C   UNL     1      37.178  -0.384   9.927  0.00  0.00    +0.000 A 
ATOM     10  C   UNL     1      38.893   2.081   7.665  0.00  0.00    +0.000 C 
ATOM     11  C   UNL     1      36.845   1.238  11.713  0.00  0.00    +0.000 A 
ATOM     12  C   UNL     1      36.702  -0.062  11.199  0.00  0.00    +0.000 A 
ATOM     13  H   UNL     1      38.788   3.738   8.965  0.00  0.00    +0.000 HD
ENDROOT
TORSDOF 0
ENDMDL
