MODEL 1
REMARK VINA RESULT:      -6.8      0.000      0.000
REMARK  Name = 969516_Curcumin.pdbqt.pdb
REMARK  8 active torsions:
REMARK  status: ('A' for Active; 'I' for Inactive)
REMARK    1  A    between atoms: C_3  and  C_5
REMARK    2  A    between atoms: C_4  and  C_6
REMARK    3  A    between atoms: C_8  and  O_12
REMARK    4  A    between atoms: C_10  and  O_14
REMARK    5  A    between atoms: C_17  and  C_19
REMARK    6  A    between atoms: C_18  and  C_20
REMARK    7  A    between atoms: C_22  and  O_26
REMARK    8  A    between atoms: C_24  and  O_28
REMARK                            x       y       z     vdW  Elec       q    Type
REMARK                         _______ _______ _______ _____ _____    ______ ____
ROOT
ATOM      1  C   UNL     1      41.136  -0.859  10.949  0.00  0.00    +0.000 C 
ATOM      2  O   UNL     1      39.668   0.106   9.476  0.00  0.00    +0.000 OA
ATOM      3  C   UNL     1      39.886  -0.254  10.623  0.00  0.00    +0.000 C 
ATOM      4  O   UNL     1      42.733  -1.546  12.441  0.00  0.00    +0.000 OA
ATOM      5  C   UNL     1      42.386  -1.459  11.273  0.00  0.00    +0.000 C 
ENDROOT
BRANCH   3   7
ATOM      6  C   UNL     1      38.057   0.075  12.501  0.00  0.00    +0.000 C 
ATOM      7  C   UNL     1      38.889  -0.076  11.648  0.00  0.00    +0.000 C 
BRANCH   6   8
ATOM      8  C   UNL     1      37.068   0.253  13.514  0.00  0.00    +0.000 A 
ATOM      9  C   UNL     1      37.181  -0.432  14.723  0.00  0.00    +0.000 A 
ATOM     10  C   UNL     1      36.221  -0.269  15.727  0.00  0.00    +0.000 A 
ATOM     11  C   UNL     1      35.992   1.109  13.294  0.00  0.00    +0.000 A 
ATOM     12  C   UNL     1      35.145   0.594  15.494  0.00  0.00    +0.000 A 
ATOM     13  C   UNL     1      35.031   1.279  14.285  0.00  0.00    +0.000 A 
BRANCH  10  14
ATOM     14  O   UNL     1      36.265  -0.908  16.941  0.00  0.00    +0.000 OA
ATOM     15  C   UNL     1      35.701  -2.188  16.984  0.00  0.00    +0.000 C 
ENDBRANCH  10  14
BRANCH  12  16
ATOM     16  O   UNL     1      34.158   0.817  16.415  0.00  0.00    +0.000 OA
ATOM     17  H   UNL     1      33.479   1.410  16.052  0.00  0.00    +0.000 HD
ENDBRANCH  12  16
ENDBRANCH   6   8
ENDBRANCH   3   7
BRANCH   5  19
ATOM     18  C   UNL     1      43.942  -2.382   9.347  0.00  0.00    +0.000 C 
ATOM     19  C   UNL     1      43.233  -1.962  10.221  0.00  0.00    +0.000 C 
BRANCH  18  20
ATOM     20  C   UNL     1      44.787  -2.878   8.311  0.00  0.00    +0.000 A 
ATOM     21  C   UNL     1      44.492  -2.595   6.978  0.00  0.00    +0.000 A 
ATOM     22  C   UNL     1      45.311  -3.074   5.952  0.00  0.00    +0.000 A 
ATOM     23  C   UNL     1      45.906  -3.644   8.632  0.00  0.00    +0.000 A 
ATOM     24  C   UNL     1      46.430  -3.840   6.288  0.00  0.00    +0.000 A 
ATOM     25  C   UNL     1      46.730  -4.126   7.619  0.00  0.00    +0.000 A 
BRANCH  22  26
ATOM     26  O   UNL     1      45.093  -2.842   4.615  0.00  0.00    +0.000 OA
ATOM     27  C   UNL     1      44.224  -1.779   4.319  0.00  0.00    +0.000 C 
ENDBRANCH  22  26
BRANCH  24  28
ATOM     28  O   UNL     1      47.244  -4.317   5.298  0.00  0.00    +0.000 OA
ATOM     29  H   UNL     1      46.910  -3.999   4.438  0.00  0.00    +0.000 HD
ENDBRANCH  24  28
ENDBRANCH  18  20
ENDBRANCH   5  19
TORSDOF 8
ENDMDL
MODEL 2
REMARK VINA RESULT:      -6.7      2.177      2.854
REMARK  Name = 969516_Curcumin.pdbqt.pdb
REMARK  8 active torsions:
REMARK  status: ('A' for Active; 'I' for Inactive)
REMARK    1  A    between atoms: C_3  and  C_5
REMARK    2  A    between atoms: C_4  and  C_6
REMARK    3  A    between atoms: C_8  and  O_12
REMARK    4  A    between atoms: C_10  and  O_14
REMARK    5  A    between atoms: C_17  and  C_19
REMARK    6  A    between atoms: C_18  and  C_20
REMARK    7  A    between atoms: C_22  and  O_26
REMARK    8  A    between atoms: C_24  and  O_28
REMARK                            x       y       z     vdW  Elec       q    Type
REMARK                         _______ _______ _______ _____ _____    ______ ____
ROOT
ATOM      1  C   UNL     1      41.805  -1.458  11.191  0.00  0.00    +0.000 C 
ATOM      2  O   UNL     1      40.278  -2.063   9.593  0.00  0.00    +0.000 OA
ATOM      3  C   UNL     1      40.498  -1.443  10.622  0.00  0.00    +0.000 C 
ATOM      4  O   UNL     1      43.422  -0.635  12.591  0.00  0.00    +0.000 OA
ATOM      5  C   UNL     1      43.113  -1.472  11.755  0.00  0.00    +0.000 C 
ENDROOT
BRANCH   3   7
ATOM      6  C   UNL     1      38.569  -0.075  11.802  0.00  0.00    +0.000 C 
ATOM      7  C   UNL     1      39.446  -0.697  11.266  0.00  0.00    +0.000 C 
BRANCH   6   8
ATOM      8  C   UNL     1      37.527   0.664  12.437  0.00  0.00    +0.000 A 
ATOM      9  C   UNL     1      37.229   0.431  13.779  0.00  0.00    +0.000 A 
ATOM     10  C   UNL     1      36.212   1.146  14.417  0.00  0.00    +0.000 A 
ATOM     11  C   UNL     1      36.809   1.615  11.717  0.00  0.00    +0.000 A 
ATOM     12  C   UNL     1      35.498   2.099  13.684  0.00  0.00    +0.000 A 
ATOM     13  C   UNL     1      35.794   2.333  12.342  0.00  0.00    +0.000 A 
BRANCH  10  14
ATOM     14  O   UNL     1      35.863   0.973  15.734  0.00  0.00    +0.000 OA
ATOM     15  C   UNL     1      36.157  -0.278  16.289  0.00  0.00    +0.000 C 
ENDBRANCH  10  14
BRANCH  12  16
ATOM     16  O   UNL     1      34.486   2.847  14.222  0.00  0.00    +0.000 OA
ATOM     17  H   UNL     1      33.624   2.433  14.049  0.00  0.00    +0.000 HD
ENDBRANCH  12  16
ENDBRANCH   6   8
ENDBRANCH   3   7
BRANCH   5  19
ATOM     18  C   UNL     1      44.850  -3.311  10.993  0.00  0.00    +0.000 C 
ATOM     19  C   UNL     1      44.062  -2.473  11.339  0.00  0.00    +0.000 C 
BRANCH  18  20
ATOM     20  C   UNL     1      45.785  -4.308  10.585  0.00  0.00    +0.000 A 
ATOM     21  C   UNL     1      46.387  -4.224   9.331  0.00  0.00    +0.000 A 
ATOM     22  C   UNL     1      47.305  -5.193   8.917  0.00  0.00    +0.000 A 
ATOM     23  C   UNL     1      46.094  -5.364  11.440  0.00  0.00    +0.000 A 
ATOM     24  C   UNL     1      47.606  -6.246   9.785  0.00  0.00    +0.000 A 
ATOM     25  C   UNL     1      47.007  -6.335  11.040  0.00  0.00    +0.000 A 
BRANCH  22  26
ATOM     26  O   UNL     1      47.943  -5.186   7.700  0.00  0.00    +0.000 OA
ATOM     27  C   UNL     1      47.147  -5.535   6.598  0.00  0.00    +0.000 C 
ENDBRANCH  22  26
BRANCH  24  28
ATOM     28  O   UNL     1      48.503  -7.204   9.398  0.00  0.00    +0.000 OA
ATOM     29  H   UNL     1      48.260  -8.049   9.823  0.00  0.00    +0.000 HD
ENDBRANCH  24  28
ENDBRANCH  18  20
ENDBRANCH   5  19
TORSDOF 8
ENDMDL
MODEL 3
REMARK VINA RESULT:      -6.7     13.952     16.472
REMARK  Name = 969516_Curcumin.pdbqt.pdb
REMARK  8 active torsions:
REMARK  status: ('A' for Active; 'I' for Inactive)
REMARK    1  A    between atoms: C_3  and  C_5
REMARK    2  A    between atoms: C_4  and  C_6
REMARK    3  A    between atoms: C_8  and  O_12
REMARK    4  A    between atoms: C_10  and  O_14
REMARK    5  A    between atoms: C_17  and  C_19
REMARK    6  A    between atoms: C_18  and  C_20
REMARK    7  A    between atoms: C_22  and  O_26
REMARK    8  A    between atoms: C_24  and  O_28
REMARK                            x       y       z     vdW  Elec       q    Type
REMARK                         _______ _______ _______ _____ _____    ______ ____
ROOT
ATOM      1  C   UNL     1      25.058  -1.133   5.697  0.00  0.00    +0.000 C 
ATOM      2  O   UNL     1      24.328  -3.128   4.837  0.00  0.00    +0.000 OA
ATOM      3  C   UNL     1      24.150  -2.232   5.648  0.00  0.00    +0.000 C 
ATOM      4  O   UNL     1      25.644   0.993   6.320  0.00  0.00    +0.000 OA
ATOM      5  C   UNL     1      25.964  -0.035   5.742  0.00  0.00    +0.000 C 
ENDROOT
BRANCH   3   7
ATOM      6  C   UNL     1      22.100  -2.314   7.313  0.00  0.00    +0.000 C 
ATOM      7  C   UNL     1      23.032  -2.277   6.556  0.00  0.00    +0.000 C 
BRANCH   6   8
ATOM      8  C   UNL     1      20.992  -2.357   8.211  0.00  0.00    +0.000 A 
ATOM      9  C   UNL     1      21.114  -3.016   9.433  0.00  0.00    +0.000 A 
ATOM     10  C   UNL     1      20.039  -3.068  10.325  0.00  0.00    +0.000 A 
ATOM     11  C   UNL     1      19.792  -1.742   7.866  0.00  0.00    +0.000 A 
ATOM     12  C   UNL     1      18.839  -2.446   9.968  0.00  0.00    +0.000 A 
ATOM     13  C   UNL     1      18.715  -1.786   8.746  0.00  0.00    +0.000 A 
BRANCH  10  14
ATOM     14  O   UNL     1      20.085  -3.696  11.545  0.00  0.00    +0.000 OA
ATOM     15  C   UNL     1      20.009  -5.094  11.520  0.00  0.00    +0.000 C 
ENDBRANCH  10  14
BRANCH  12  16
ATOM     16  O   UNL     1      17.734  -2.443  10.775  0.00  0.00    +0.000 OA
ATOM     17  H   UNL     1      17.395  -3.346  10.895  0.00  0.00    +0.000 HD
ENDBRANCH  12  16
ENDBRANCH   6   8
ENDBRANCH   3   7
BRANCH   5  19
ATOM     18  C   UNL     1      28.329  -0.239   4.581  0.00  0.00    +0.000 C 
ATOM     19  C   UNL     1      27.253  -0.144   5.108  0.00  0.00    +0.000 C 
BRANCH  18  20
ATOM     20  C   UNL     1      29.607  -0.353   3.959  0.00  0.00    +0.000 A 
ATOM     21  C   UNL     1      30.140   0.732   3.264  0.00  0.00    +0.000 A 
ATOM     22  C   UNL     1      31.392   0.636   2.650  0.00  0.00    +0.000 A 
ATOM     23  C   UNL     1      30.321  -1.546   4.049  0.00  0.00    +0.000 A 
ATOM     24  C   UNL     1      32.097  -0.566   2.748  0.00  0.00    +0.000 A 
ATOM     25  C   UNL     1      31.569  -1.654   3.442  0.00  0.00    +0.000 A 
BRANCH  22  26
ATOM     26  O   UNL     1      31.990   1.653   1.946  0.00  0.00    +0.000 OA
ATOM     27  C   UNL     1      32.178   2.850   2.656  0.00  0.00    +0.000 C 
ENDBRANCH  22  26
BRANCH  24  28
ATOM     28  O   UNL     1      33.325  -0.680   2.154  0.00  0.00    +0.000 OA
ATOM     29  H   UNL     1      33.695   0.214   2.029  0.00  0.00    +0.000 HD
ENDBRANCH  24  28
ENDBRANCH  18  20
ENDBRANCH   5  19
TORSDOF 8
ENDMDL
MODEL 4
REMARK VINA RESULT:      -6.4      3.043      4.179
REMARK  Name = 969516_Curcumin.pdbqt.pdb
REMARK  8 active torsions:
REMARK  status: ('A' for Active; 'I' for Inactive)
REMARK    1  A    between atoms: C_3  and  C_5
REMARK    2  A    between atoms: C_4  and  C_6
REMARK    3  A    between atoms: C_8  and  O_12
REMARK    4  A    between atoms: C_10  and  O_14
REMARK    5  A    between atoms: C_17  and  C_19
REMARK    6  A    between atoms: C_18  and  C_20
REMARK    7  A    between atoms: C_22  and  O_26
REMARK    8  A    between atoms: C_24  and  O_28
REMARK                            x       y       z     vdW  Elec       q    Type
REMARK                         _______ _______ _______ _____ _____    ______ ____
ROOT
ATOM      1  C   UNL     1      42.239  -1.622  11.254  0.00  0.00    +0.000 C 
ATOM      2  O   UNL     1      40.769  -2.411   9.682  0.00  0.00    +0.000 OA
ATOM      3  C   UNL     1      40.947  -1.695  10.656  0.00  0.00    +0.000 C 
ATOM      4  O   UNL     1      43.798  -0.631  12.611  0.00  0.00    +0.000 OA
ATOM      5  C   UNL     1      43.532  -1.548  11.847  0.00  0.00    +0.000 C 
ENDROOT
BRANCH   3   7
ATOM      6  C   UNL     1      38.952  -0.285  11.664  0.00  0.00    +0.000 C 
ATOM      7  C   UNL     1      39.859  -0.926  11.206  0.00  0.00    +0.000 C 
BRANCH   6   8
ATOM      8  C   UNL     1      37.873   0.475  12.207  0.00  0.00    +0.000 A 
ATOM      9  C   UNL     1      37.411   0.204  13.494  0.00  0.00    +0.000 A 
ATOM     10  C   UNL     1      36.356   0.939  14.042  0.00  0.00    +0.000 A 
ATOM     11  C   UNL     1      37.284   1.485  11.452  0.00  0.00    +0.000 A 
ATOM     12  C   UNL     1      35.772   1.951  13.274  0.00  0.00    +0.000 A 
ATOM     13  C   UNL     1      36.233   2.224  11.987  0.00  0.00    +0.000 A 
BRANCH  10  14
ATOM     14  O   UNL     1      35.849   0.730  15.300  0.00  0.00    +0.000 OA
ATOM     15  C   UNL     1      35.256  -0.518  15.526  0.00  0.00    +0.000 C 
ENDBRANCH  10  14
BRANCH  12  16
ATOM     16  O   UNL     1      34.735   2.722  13.724  0.00  0.00    +0.000 OA
ATOM     17  H   UNL     1      34.525   2.508  14.649  0.00  0.00    +0.000 HD
ENDBRANCH  12  16
ENDBRANCH   6   8
ENDBRANCH   3   7
BRANCH   5  19
ATOM     18  C   UNL     1      45.342  -3.390  11.291  0.00  0.00    +0.000 C 
ATOM     19  C   UNL     1      44.518  -2.554  11.544  0.00  0.00    +0.000 C 
BRANCH  18  20
ATOM     20  C   UNL     1      46.322  -4.381  10.986  0.00  0.00    +0.000 A 
ATOM     21  C   UNL     1      47.217  -4.798  11.971  0.00  0.00    +0.000 A 
ATOM     22  C   UNL     1      48.182  -5.768  11.687  0.00  0.00    +0.000 A 
ATOM     23  C   UNL     1      46.383  -4.929   9.707  0.00  0.00    +0.000 A 
ATOM     24  C   UNL     1      48.232  -6.310  10.401  0.00  0.00    +0.000 A 
ATOM     25  C   UNL     1      47.340  -5.896   9.413  0.00  0.00    +0.000 A 
BRANCH  22  26
ATOM     26  O   UNL     1      49.100  -6.235  12.597  0.00  0.00    +0.000 OA
ATOM     27  C   UNL     1      48.891  -5.838  13.927  0.00  0.00    +0.000 C 
ENDBRANCH  22  26
BRANCH  24  28
ATOM     28  O   UNL     1      49.170  -7.261  10.104  0.00  0.00    +0.000 OA
ATOM     29  H   UNL     1      48.934  -7.679   9.255  0.00  0.00    +0.000 HD
ENDBRANCH  24  28
ENDBRANCH  18  20
ENDBRANCH   5  19
TORSDOF 8
ENDMDL
MODEL 5
REMARK VINA RESULT:      -6.1     12.602     14.504
REMARK  Name = 969516_Curcumin.pdbqt.pdb
REMARK  8 active torsions:
REMARK  status: ('A' for Active; 'I' for Inactive)
REMARK    1  A    between atoms: C_3  and  C_5
REMARK    2  A    between atoms: C_4  and  C_6
REMARK    3  A    between atoms: C_8  and  O_12
REMARK    4  A    between atoms: C_10  and  O_14
REMARK    5  A    between atoms: C_17  and  C_19
REMARK    6  A    between atoms: C_18  and  C_20
REMARK    7  A    between atoms: C_22  and  O_26
REMARK    8  A    between atoms: C_24  and  O_28
REMARK                            x       y       z     vdW  Elec       q    Type
REMARK                         _______ _______ _______ _____ _____    ______ ____
ROOT
ATOM      1  C   UNL     1      28.929   0.057   4.582  0.00  0.00    +0.000 C 
ATOM      2  O   UNL     1      28.073   2.028   5.380  0.00  0.00    +0.000 OA
ATOM      3  C   UNL     1      27.893   0.837   5.176  0.00  0.00    +0.000 C 
ATOM      4  O   UNL     1      29.923  -1.941   4.058  0.00  0.00    +0.000 OA
ATOM      5  C   UNL     1      29.967  -0.721   3.993  0.00  0.00    +0.000 C 
ENDROOT
BRANCH   3   7
ATOM      6  C   UNL     1      25.597  -0.303   5.819  0.00  0.00    +0.000 C 
ATOM      7  C   UNL     1      26.641   0.215   5.527  0.00  0.00    +0.000 C 
BRANCH   6   8
ATOM      8  C   UNL     1      24.358  -0.920   6.164  0.00  0.00    +0.000 A 
ATOM      9  C   UNL     1      23.503  -0.299   7.074  0.00  0.00    +0.000 A 
ATOM     10  C   UNL     1      22.285  -0.890   7.424  0.00  0.00    +0.000 A 
ATOM     11  C   UNL     1      24.004  -2.139   5.594  0.00  0.00    +0.000 A 
ATOM     12  C   UNL     1      21.940  -2.114   6.844  0.00  0.00    +0.000 A 
ATOM     13  C   UNL     1      22.794  -2.736   5.934  0.00  0.00    +0.000 A 
BRANCH  10  14
ATOM     14  O   UNL     1      21.393  -0.338   8.310  0.00  0.00    +0.000 OA
ATOM     15  C   UNL     1      21.697  -0.496   9.668  0.00  0.00    +0.000 C 
ENDBRANCH  10  14
BRANCH  12  16
ATOM     16  O   UNL     1      20.771  -2.767   7.124  0.00  0.00    +0.000 OA
ATOM     17  H   UNL     1      20.583  -3.439   6.447  0.00  0.00    +0.000 HD
ENDBRANCH  12  16
ENDBRANCH   6   8
ENDBRANCH   3   7
BRANCH   5  19
ATOM     18  C   UNL     1      31.969   0.483   2.760  0.00  0.00    +0.000 C 
ATOM     19  C   UNL     1      31.060  -0.065   3.322  0.00  0.00    +0.000 C 
BRANCH  18  20
ATOM     20  C   UNL     1      33.048   1.130   2.088  0.00  0.00    +0.000 A 
ATOM     21  C   UNL     1      33.598   2.296   2.620  0.00  0.00    +0.000 A 
ATOM     22  C   UNL     1      34.656   2.941   1.974  0.00  0.00    +0.000 A 
ATOM     23  C   UNL     1      33.551   0.597   0.903  0.00  0.00    +0.000 A 
ATOM     24  C   UNL     1      35.150   2.395   0.786  0.00  0.00    +0.000 A 
ATOM     25  C   UNL     1      34.604   1.230   0.250  0.00  0.00    +0.000 A 
BRANCH  22  26
ATOM     26  O   UNL     1      35.254   4.091   2.428  0.00  0.00    +0.000 OA
ATOM     27  C   UNL     1      34.487   5.261   2.306  0.00  0.00    +0.000 C 
ENDBRANCH  22  26
BRANCH  24  28
ATOM     28  O   UNL     1      36.185   3.012   0.139  0.00  0.00    +0.000 OA
ATOM     29  H   UNL     1      36.348   3.876   0.562  0.00  0.00    +0.000 HD
ENDBRANCH  24  28
ENDBRANCH  18  20
ENDBRANCH   5  19
TORSDOF 8
ENDMDL
MODEL 6
REMARK VINA RESULT:      -6.1      5.393      9.913
REMARK  Name = 969516_Curcumin.pdbqt.pdb
REMARK  8 active torsions:
REMARK  status: ('A' for Active; 'I' for Inactive)
REMARK    1  A    between atoms: C_3  and  C_5
REMARK    2  A    between atoms: C_4  and  C_6
REMARK    3  A    between atoms: C_8  and  O_12
REMARK    4  A    between atoms: C_10  and  O_14
REMARK    5  A    between atoms: C_17  and  C_19
REMARK    6  A    between atoms: C_18  and  C_20
REMARK    7  A    between atoms: C_22  and  O_26
REMARK    8  A    between atoms: C_24  and  O_28
REMARK                            x       y       z     vdW  Elec       q    Type
REMARK                         _______ _______ _______ _____ _____    ______ ____
ROOT
ATOM      1  C   UNL     1      44.059  -0.685  11.769  0.00  0.00    +0.000 C 
ATOM      2  O   UNL     1      45.015   1.345  11.303  0.00  0.00    +0.000 OA
ATOM      3  C   UNL     1      45.062   0.312  11.953  0.00  0.00    +0.000 C 
ATOM      4  O   UNL     1      43.249  -2.818  11.986  0.00  0.00    +0.000 OA
ATOM      5  C   UNL     1      43.058  -1.681  11.580  0.00  0.00    +0.000 C 
ENDROOT
BRANCH   3   7
ATOM      6  C   UNL     1      47.003  -0.086  13.701  0.00  0.00    +0.000 C 
ATOM      7  C   UNL     1      46.121   0.094  12.906  0.00  0.00    +0.000 C 
BRANCH   6   8
ATOM      8  C   UNL     1      48.051  -0.299  14.646  0.00  0.00    +0.000 A 
ATOM      9  C   UNL     1      48.494  -1.594  14.911  0.00  0.00    +0.000 A 
ATOM     10  C   UNL     1      49.520  -1.821  15.834  0.00  0.00    +0.000 A 
ATOM     11  C   UNL     1      48.627   0.785  15.302  0.00  0.00    +0.000 A 
ATOM     12  C   UNL     1      50.092  -0.724  16.486  0.00  0.00    +0.000 A 
ATOM     13  C   UNL     1      49.649   0.571  16.222  0.00  0.00    +0.000 A 
BRANCH  10  14
ATOM     14  O   UNL     1      50.009  -3.065  16.145  0.00  0.00    +0.000 OA
ATOM     15  C   UNL     1      50.464  -3.835  15.067  0.00  0.00    +0.000 C 
ENDBRANCH  10  14
BRANCH  12  16
ATOM     16  O   UNL     1      51.099  -0.847  17.404  0.00  0.00    +0.000 OA
ATOM     17  H   UNL     1      51.045  -1.704  17.859  0.00  0.00    +0.000 HD
ENDBRANCH  12  16
ENDBRANCH   6   8
ENDBRANCH   3   7
BRANCH   5  19
ATOM     18  C   UNL     1      40.797  -1.061  10.362  0.00  0.00    +0.000 C 
ATOM     19  C   UNL     1      41.826  -1.341  10.916  0.00  0.00    +0.000 C 
BRANCH  18  20
ATOM     20  C   UNL     1      39.576  -0.734   9.702  0.00  0.00    +0.000 A 
ATOM     21  C   UNL     1      39.536   0.334   8.806  0.00  0.00    +0.000 A 
ATOM     22  C   UNL     1      38.348   0.667   8.150  0.00  0.00    +0.000 A 
ATOM     23  C   UNL     1      38.427  -1.480   9.952  0.00  0.00    +0.000 A 
ATOM     24  C   UNL     1      37.203  -0.090   8.411  0.00  0.00    +0.000 A 
ATOM     25  C   UNL     1      37.237  -1.158   9.305  0.00  0.00    +0.000 A 
BRANCH  22  26
ATOM     26  O   UNL     1      38.221   1.701   7.255  0.00  0.00    +0.000 OA
ATOM     27  C   UNL     1      39.413   2.368   6.929  0.00  0.00    +0.000 C 
ENDBRANCH  22  26
BRANCH  24  28
ATOM     28  O   UNL     1      36.030   0.220   7.779  0.00  0.00    +0.000 OA
ATOM     29  H   UNL     1      35.317  -0.332   8.153  0.00  0.00    +0.000 HD
ENDBRANCH  24  28
ENDBRANCH  18  20
ENDBRANCH   5  19
TORSDOF 8
ENDMDL
MODEL 7
REMARK VINA RESULT:      -6.1     12.426     17.446
REMARK  Name = 969516_Curcumin.pdbqt.pdb
REMARK  8 active torsions:
REMARK  status: ('A' for Active; 'I' for Inactive)
REMARK    1  A    between atoms: C_3  and  C_5
REMARK    2  A    between atoms: C_4  and  C_6
REMARK    3  A    between atoms: C_8  and  O_12
REMARK    4  A    between atoms: C_10  and  O_14
REMARK    5  A    between atoms: C_17  and  C_19
REMARK    6  A    between atoms: C_18  and  C_20
REMARK    7  A    between atoms: C_22  and  O_26
REMARK    8  A    between atoms: C_24  and  O_28
REMARK                            x       y       z     vdW  Elec       q    Type
REMARK                         _______ _______ _______ _____ _____    ______ ____
ROOT
ATOM      1  C   UNL     1      30.857  -0.107   3.035  0.00  0.00    +0.000 C 
ATOM      2  O   UNL     1      31.827  -2.162   2.739  0.00  0.00    +0.000 OA
ATOM      3  C   UNL     1      31.842  -0.970   2.473  0.00  0.00    +0.000 C 
ATOM      4  O   UNL     1      30.048   1.964   3.593  0.00  0.00    +0.000 OA
ATOM      5  C   UNL     1      29.873   0.754   3.602  0.00  0.00    +0.000 C 
ENDROOT
BRANCH   3   7
ATOM      6  C   UNL     1      33.683   0.020   0.856  0.00  0.00    +0.000 C 
ATOM      7  C   UNL     1      32.847  -0.430   1.591  0.00  0.00    +0.000 C 
BRANCH   6   8
ATOM      8  C   UNL     1      34.676   0.556  -0.018  0.00  0.00    +0.000 A 
ATOM      9  C   UNL     1      35.293   1.767   0.291  0.00  0.00    +0.000 A 
ATOM     10  C   UNL     1      36.267   2.306  -0.554  0.00  0.00    +0.000 A 
ATOM     11  C   UNL     1      35.026  -0.131  -1.177  0.00  0.00    +0.000 A 
ATOM     12  C   UNL     1      36.611   1.608  -1.716  0.00  0.00    +0.000 A 
ATOM     13  C   UNL     1      35.995   0.396  -2.026  0.00  0.00    +0.000 A 
BRANCH  10  14
ATOM     14  O   UNL     1      36.917   3.492  -0.316  0.00  0.00    +0.000 OA
ATOM     15  C   UNL     1      37.834   3.488   0.742  0.00  0.00    +0.000 C 
ENDBRANCH  10  14
BRANCH  12  16
ATOM     16  O   UNL     1      37.552   2.055  -2.602  0.00  0.00    +0.000 OA
ATOM     17  H   UNL     1      38.409   2.179  -2.159  0.00  0.00    +0.000 HD
ENDBRANCH  12  16
ENDBRANCH   6   8
ENDBRANCH   3   7
BRANCH   5  19
ATOM     18  C   UNL     1      27.681  -0.271   4.662  0.00  0.00    +0.000 C 
ATOM     19  C   UNL     1      28.679   0.193   4.181  0.00  0.00    +0.000 C 
BRANCH  18  20
ATOM     20  C   UNL     1      26.495  -0.817   5.237  0.00  0.00    +0.000 A 
ATOM     21  C   UNL     1      25.610  -1.545   4.442  0.00  0.00    +0.000 A 
ATOM     22  C   UNL     1      24.445  -2.087   4.991  0.00  0.00    +0.000 A 
ATOM     23  C   UNL     1      26.225  -0.625   6.590  0.00  0.00    +0.000 A 
ATOM     24  C   UNL     1      24.186  -1.887   6.349  0.00  0.00    +0.000 A 
ATOM     25  C   UNL     1      25.068  -1.160   7.148  0.00  0.00    +0.000 A 
BRANCH  22  26
ATOM     26  O   UNL     1      23.521  -2.815   4.280  0.00  0.00    +0.000 OA
ATOM     27  C   UNL     1      22.704  -2.072   3.413  0.00  0.00    +0.000 C 
ENDBRANCH  22  26
BRANCH  24  28
ATOM     28  O   UNL     1      23.051  -2.410   6.904  0.00  0.00    +0.000 OA
ATOM     29  H   UNL     1      23.271  -3.266   7.318  0.00  0.00    +0.000 HD
ENDBRANCH  24  28
ENDBRANCH  18  20
ENDBRANCH   5  19
TORSDOF 8
ENDMDL
MODEL 8
REMARK VINA RESULT:      -6.1     32.844     40.311
REMARK  Name = 969516_Curcumin.pdbqt.pdb
REMARK  8 active torsions:
REMARK  status: ('A' for Active; 'I' for Inactive)
REMARK    1  A    between atoms: C_3  and  C_5
REMARK    2  A    between atoms: C_4  and  C_6
REMARK    3  A    between atoms: C_8  and  O_12
REMARK    4  A    between atoms: C_10  and  O_14
REMARK    5  A    between atoms: C_17  and  C_19
REMARK    6  A    between atoms: C_18  and  C_20
REMARK    7  A    between atoms: C_22  and  O_26
REMARK    8  A    between atoms: C_24  and  O_28
REMARK                            x       y       z     vdW  Elec       q    Type
REMARK                         _______ _______ _______ _____ _____    ______ ____
ROOT
ATOM      1  C   UNL     1      17.508   4.237  41.683  0.00  0.00    +0.000 C 
ATOM      2  O   UNL     1      18.444   6.328  41.629  0.00  0.00    +0.000 OA
ATOM      3  C   UNL     1      18.107   5.336  41.001  0.00  0.00    +0.000 C 
ATOM      4  O   UNL     1      16.300   2.290  41.732  0.00  0.00    +0.000 OA
ATOM      5  C   UNL     1      16.905   3.141  42.366  0.00  0.00    +0.000 C 
ENDROOT
BRANCH   3   7
ATOM      6  C   UNL     1      18.487   5.211  38.389  0.00  0.00    +0.000 C 
ATOM      7  C   UNL     1      18.315   5.267  39.577  0.00  0.00    +0.000 C 
BRANCH   6   8
ATOM      8  C   UNL     1      18.691   5.145  36.978  0.00  0.00    +0.000 A 
ATOM      9  C   UNL     1      19.213   6.245  36.300  0.00  0.00    +0.000 A 
ATOM     10  C   UNL     1      19.419   6.198  34.918  0.00  0.00    +0.000 A 
ATOM     11  C   UNL     1      18.367   3.984  36.282  0.00  0.00    +0.000 A 
ATOM     12  C   UNL     1      19.091   5.026  34.229  0.00  0.00    +0.000 A 
ATOM     13  C   UNL     1      18.569   3.924  34.906  0.00  0.00    +0.000 A 
BRANCH  10  14
ATOM     14  O   UNL     1      19.930   7.239  34.183  0.00  0.00    +0.000 OA
ATOM     15  C   UNL     1      19.425   8.510  34.483  0.00  0.00    +0.000 C 
ENDBRANCH  10  14
BRANCH  12  16
ATOM     16  O   UNL     1      19.258   4.886  32.878  0.00  0.00    +0.000 OA
ATOM     17  H   UNL     1      18.412   4.675  32.449  0.00  0.00    +0.000 HD
ENDBRANCH  12  16
ENDBRANCH   6   8
ENDBRANCH   3   7
BRANCH   5  19
ATOM     18  C   UNL     1      17.106   2.967  44.995  0.00  0.00    +0.000 C 
ATOM     19  C   UNL     1      17.014   3.044  43.799  0.00  0.00    +0.000 C 
BRANCH  18  20
ATOM     20  C   UNL     1      17.219   2.878  46.413  0.00  0.00    +0.000 A 
ATOM     21  C   UNL     1      16.338   2.071  47.131  0.00  0.00    +0.000 A 
ATOM     22  C   UNL     1      16.437   1.972  48.522  0.00  0.00    +0.000 A 
ATOM     23  C   UNL     1      18.211   3.596  47.079  0.00  0.00    +0.000 A 
ATOM     24  C   UNL     1      17.435   2.698  49.176  0.00  0.00    +0.000 A 
ATOM     25  C   UNL     1      18.319   3.506  48.464  0.00  0.00    +0.000 A 
BRANCH  22  26
ATOM     26  O   UNL     1      15.610   1.203  49.304  0.00  0.00    +0.000 OA
ATOM     27  C   UNL     1      15.391  -0.106  48.847  0.00  0.00    +0.000 C 
ENDBRANCH  22  26
BRANCH  24  28
ATOM     28  O   UNL     1      17.549   2.614  50.537  0.00  0.00    +0.000 OA
ATOM     29  H   UNL     1      18.495   2.579  50.771  0.00  0.00    +0.000 HD
ENDBRANCH  24  28
ENDBRANCH  18  20
ENDBRANCH   5  19
TORSDOF 8
ENDMDL
MODEL 9
REMARK VINA RESULT:      -6.0     23.967     27.802
REMARK  Name = 969516_Curcumin.pdbqt.pdb
REMARK  8 active torsions:
REMARK  status: ('A' for Active; 'I' for Inactive)
REMARK    1  A    between atoms: C_3  and  C_5
REMARK    2  A    between atoms: C_4  and  C_6
REMARK    3  A    between atoms: C_8  and  O_12
REMARK    4  A    between atoms: C_10  and  O_14
REMARK    5  A    between atoms: C_17  and  C_19
REMARK    6  A    between atoms: C_18  and  C_20
REMARK    7  A    between atoms: C_22  and  O_26
REMARK    8  A    between atoms: C_24  and  O_28
REMARK                            x       y       z     vdW  Elec       q    Type
REMARK                         _______ _______ _______ _____ _____    ______ ____
ROOT
ATOM      1  C   UNL     1      49.119  -0.220  35.770  0.00  0.00    +0.000 C 
ATOM      2  O   UNL     1      49.283   1.844  36.752  0.00  0.00    +0.000 OA
ATOM      3  C   UNL     1      49.192   1.203  35.716  0.00  0.00    +0.000 C 
ATOM      4  O   UNL     1      48.655  -2.268  34.850  0.00  0.00    +0.000 OA
ATOM      5  C   UNL     1      49.042  -1.642  35.826  0.00  0.00    +0.000 C 
ENDROOT
BRANCH   3   7
ATOM      6  C   UNL     1      49.136   2.434  33.379  0.00  0.00    +0.000 C 
ATOM      7  C   UNL     1      49.161   1.874  34.441  0.00  0.00    +0.000 C 
BRANCH   6   8
ATOM      8  C   UNL     1      49.108   3.099  32.117  0.00  0.00    +0.000 A 
ATOM      9  C   UNL     1      49.680   2.493  30.999  0.00  0.00    +0.000 A 
ATOM     10  C   UNL     1      49.661   3.130  29.755  0.00  0.00    +0.000 A 
ATOM     11  C   UNL     1      48.511   4.351  32.003  0.00  0.00    +0.000 A 
ATOM     12  C   UNL     1      49.058   4.388  29.653  0.00  0.00    +0.000 A 
ATOM     13  C   UNL     1      48.486   4.996  30.770  0.00  0.00    +0.000 A 
BRANCH  10  14
ATOM     14  O   UNL     1      50.202   2.596  28.612  0.00  0.00    +0.000 OA
ATOM     15  C   UNL     1      51.598   2.490  28.583  0.00  0.00    +0.000 C 
ENDBRANCH  10  14
BRANCH  12  16
ATOM     16  O   UNL     1      48.992   5.088  28.480  0.00  0.00    +0.000 OA
ATOM     17  H   UNL     1      48.355   5.819  28.552  0.00  0.00    +0.000 HD
ENDBRANCH  12  16
ENDBRANCH   6   8
ENDBRANCH   3   7
BRANCH   5  19
ATOM     18  C   UNL     1      49.739  -2.910  38.037  0.00  0.00    +0.000 C 
ATOM     19  C   UNL     1      49.424  -2.332  37.031  0.00  0.00    +0.000 C 
BRANCH  18  20
ATOM     20  C   UNL     1      50.108  -3.595  39.232  0.00  0.00    +0.000 A 
ATOM     21  C   UNL     1      50.626  -4.887  39.160  0.00  0.00    +0.000 A 
ATOM     22  C   UNL     1      50.992  -5.571  40.322  0.00  0.00    +0.000 A 
ATOM     23  C   UNL     1      49.951  -2.972  40.468  0.00  0.00    +0.000 A 
ATOM     24  C   UNL     1      50.830  -4.934  41.555  0.00  0.00    +0.000 A 
ATOM     25  C   UNL     1      50.312  -3.642  41.633  0.00  0.00    +0.000 A 
BRANCH  22  26
ATOM     26  O   UNL     1      51.509  -6.844  40.341  0.00  0.00    +0.000 OA
ATOM     27  C   UNL     1      51.471  -7.531  39.117  0.00  0.00    +0.000 C 
ENDBRANCH  22  26
BRANCH  24  28
ATOM     28  O   UNL     1      51.183  -5.587  42.704  0.00  0.00    +0.000 OA
ATOM     29  H   UNL     1      52.104  -5.899  42.616  0.00  0.00    +0.000 HD
ENDBRANCH  24  28
ENDBRANCH  18  20
ENDBRANCH   5  19
TORSDOF 8
ENDMDL
