MODEL 1
REMARK VINA RESULT:      -4.7      0.000      0.000
REMARK  Name = 971_OxalicAcid.pdbqt.pdb
REMARK  3 active torsions:
REMARK  status: ('A' for Active; 'I' for Inactive)
REMARK    1  A    between atoms: C_2  and  O_3
REMARK    2  A    between atoms: C_2  and  C_6
REMARK    3  A    between atoms: C_6  and  O_7
REMARK                            x       y       z     vdW  Elec       q    Type
REMARK                         _______ _______ _______ _____ _____    ______ ____
ROOT
ATOM      1  O   UNL     1      40.219   1.578  35.474  0.00  0.00    +0.000 OA
ATOM      2  C   UNL     1      40.870   0.748  34.871  0.00  0.00    +0.000 C 
ENDROOT
BRANCH   2   3
ATOM      3  O   UNL     1      41.256  -0.402  35.442  0.00  0.00    +0.000 OA
ATOM      4  H   UNL     1      40.584  -1.053  35.160  0.00  0.00    +0.000 HD
ENDBRANCH   2   3
BRANCH   2   6
ATOM      5  O   UNL     1      42.341   0.350  32.925  0.00  0.00    +0.000 OA
ATOM      6  C   UNL     1      41.348   0.875  33.392  0.00  0.00    +0.000 C 
BRANCH   6   7
ATOM      7  O   UNL     1      40.538   1.643  32.651  0.00  0.00    +0.000 OA
ATOM      8  H   UNL     1      41.144   2.185  32.107  0.00  0.00    +0.000 HD
ENDBRANCH   6   7
ENDBRANCH   2   6
TORSDOF 3
ENDMDL
MODEL 2
REMARK VINA RESULT:      -4.4      3.831      4.635
REMARK  Name = 971_OxalicAcid.pdbqt.pdb
REMARK  3 active torsions:
REMARK  status: ('A' for Active; 'I' for Inactive)
REMARK    1  A    between atoms: C_2  and  O_3
REMARK    2  A    between atoms: C_2  and  C_6
REMARK    3  A    between atoms: C_6  and  O_7
REMARK                            x       y       z     vdW  Elec       q    Type
REMARK                         _______ _______ _______ _____ _____    ______ ____
ROOT
ATOM      1  O   UNL     1      39.635   3.318  36.999  0.00  0.00    +0.000 OA
ATOM      2  C   UNL     1      39.048   2.254  36.971  0.00  0.00    +0.000 C 
ENDROOT
BRANCH   2   3
ATOM      3  O   UNL     1      38.036   2.025  36.123  0.00  0.00    +0.000 OA
ATOM      4  H   UNL     1      38.069   1.061  35.958  0.00  0.00    +0.000 HD
ENDBRANCH   2   3
BRANCH   2   6
ATOM      5  O   UNL     1      39.769  -0.051  37.493  0.00  0.00    +0.000 OA
ATOM      6  C   UNL     1      39.361   1.026  37.881  0.00  0.00    +0.000 C 
BRANCH   6   7
ATOM      7  O   UNL     1      39.132   1.272  39.178  0.00  0.00    +0.000 OA
ATOM      8  H   UNL     1      39.968   1.661  39.505  0.00  0.00    +0.000 HD
ENDBRANCH   6   7
ENDBRANCH   2   6
TORSDOF 3
ENDMDL
MODEL 3
REMARK VINA RESULT:      -4.3      3.788      4.002
REMARK  Name = 971_OxalicAcid.pdbqt.pdb
REMARK  3 active torsions:
REMARK  status: ('A' for Active; 'I' for Inactive)
REMARK    1  A    between atoms: C_2  and  O_3
REMARK    2  A    between atoms: C_2  and  C_6
REMARK    3  A    between atoms: C_6  and  O_7
REMARK                            x       y       z     vdW  Elec       q    Type
REMARK                         _______ _______ _______ _____ _____    ______ ____
ROOT
ATOM      1  O   UNL     1      39.621   0.268  38.155  0.00  0.00    +0.000 OA
ATOM      2  C   UNL     1      38.867   0.664  37.288  0.00  0.00    +0.000 C 
ENDROOT
BRANCH   2   3
ATOM      3  O   UNL     1      37.884  -0.104  36.798  0.00  0.00    +0.000 OA
ATOM      4  H   UNL     1      37.706   0.263  35.909  0.00  0.00    +0.000 HD
ENDBRANCH   2   3
BRANCH   2   6
ATOM      5  O   UNL     1      39.650   2.985  36.958  0.00  0.00    +0.000 OA
ATOM      6  C   UNL     1      38.914   2.076  36.626  0.00  0.00    +0.000 C 
BRANCH   6   7
ATOM      7  O   UNL     1      38.038   2.204  35.620  0.00  0.00    +0.000 OA
ATOM      8  H   UNL     1      37.518   3.001  35.848  0.00  0.00    +0.000 HD
ENDBRANCH   6   7
ENDBRANCH   2   6
TORSDOF 3
ENDMDL
MODEL 4
REMARK VINA RESULT:      -4.1     18.176     19.405
REMARK  Name = 971_OxalicAcid.pdbqt.pdb
REMARK  3 active torsions:
REMARK  status: ('A' for Active; 'I' for Inactive)
REMARK    1  A    between atoms: C_2  and  O_3
REMARK    2  A    between atoms: C_2  and  C_6
REMARK    3  A    between atoms: C_6  and  O_7
REMARK                            x       y       z     vdW  Elec       q    Type
REMARK                         _______ _______ _______ _____ _____    ______ ____
ROOT
ATOM      1  O   UNL     1      35.563   0.134  16.174  0.00  0.00    +0.000 OA
ATOM      2  C   UNL     1      34.448  -0.040  16.626  0.00  0.00    +0.000 C 
ENDROOT
BRANCH   2   3
ATOM      3  O   UNL     1      34.149   0.245  17.901  0.00  0.00    +0.000 OA
ATOM      4  H   UNL     1      33.216  -0.030  18.001  0.00  0.00    +0.000 HD
ENDBRANCH   2   3
BRANCH   2   6
ATOM      5  O   UNL     1      33.115  -0.600  14.623  0.00  0.00    +0.000 OA
ATOM      6  C   UNL     1      33.228  -0.601  15.833  0.00  0.00    +0.000 C 
BRANCH   6   7
ATOM      7  O   UNL     1      32.278  -1.104  16.633  0.00  0.00    +0.000 OA
ATOM      8  H   UNL     1      32.132  -0.409  17.306  0.00  0.00    +0.000 HD
ENDBRANCH   6   7
ENDBRANCH   2   6
TORSDOF 3
ENDMDL
MODEL 5
REMARK VINA RESULT:      -4.0     18.006     19.152
REMARK  Name = 971_OxalicAcid.pdbqt.pdb
REMARK  3 active torsions:
REMARK  status: ('A' for Active; 'I' for Inactive)
REMARK    1  A    between atoms: C_2  and  O_3
REMARK    2  A    between atoms: C_2  and  C_6
REMARK    3  A    between atoms: C_6  and  O_7
REMARK                            x       y       z     vdW  Elec       q    Type
REMARK                         _______ _______ _______ _____ _____    ______ ____
ROOT
ATOM      1  O   UNL     1      33.311  -0.521  14.891  0.00  0.00    +0.000 OA
ATOM      2  C   UNL     1      33.251  -0.765  16.080  0.00  0.00    +0.000 C 
ENDROOT
BRANCH   2   3
ATOM      3  O   UNL     1      32.118  -1.183  16.662  0.00  0.00    +0.000 OA
ATOM      4  H   UNL     1      32.223  -0.941  17.604  0.00  0.00    +0.000 HD
ENDBRANCH   2   3
BRANCH   2   6
ATOM      5  O   UNL     1      35.238  -1.514  17.345  0.00  0.00    +0.000 OA
ATOM      6  C   UNL     1      34.434  -0.639  17.088  0.00  0.00    +0.000 C 
BRANCH   6   7
ATOM      7  O   UNL     1      34.490   0.567  17.671  0.00  0.00    +0.000 OA
ATOM      8  H   UNL     1      33.790   0.542  18.353  0.00  0.00    +0.000 HD
ENDBRANCH   6   7
ENDBRANCH   2   6
TORSDOF 3
ENDMDL
MODEL 6
REMARK VINA RESULT:      -4.0     17.758     18.872
REMARK  Name = 971_OxalicAcid.pdbqt.pdb
REMARK  3 active torsions:
REMARK  status: ('A' for Active; 'I' for Inactive)
REMARK    1  A    between atoms: C_2  and  O_3
REMARK    2  A    between atoms: C_2  and  C_6
REMARK    3  A    between atoms: C_6  and  O_7
REMARK                            x       y       z     vdW  Elec       q    Type
REMARK                         _______ _______ _______ _____ _____    ______ ____
ROOT
ATOM      1  O   UNL     1      37.456  -1.109  14.533  0.00  0.00    +0.000 OA
ATOM      2  C   UNL     1      37.434  -1.892  15.462  0.00  0.00    +0.000 C 
ENDROOT
BRANCH   2   3
ATOM      3  O   UNL     1      38.233  -2.968  15.501  0.00  0.00    +0.000 OA
ATOM      4  H   UNL     1      39.052  -2.681  15.050  0.00  0.00    +0.000 HD
ENDBRANCH   2   3
BRANCH   2   6
ATOM      5  O   UNL     1      36.385  -0.793  17.411  0.00  0.00    +0.000 OA
ATOM      6  C   UNL     1      36.512  -1.781  16.715  0.00  0.00    +0.000 C 
BRANCH   6   7
ATOM      7  O   UNL     1      35.845  -2.916  16.968  0.00  0.00    +0.000 OA
ATOM      8  H   UNL     1      36.129  -3.172  17.869  0.00  0.00    +0.000 HD
ENDBRANCH   6   7
ENDBRANCH   2   6
TORSDOF 3
ENDMDL
MODEL 7
REMARK VINA RESULT:      -3.9     18.274     18.954
REMARK  Name = 971_OxalicAcid.pdbqt.pdb
REMARK  3 active torsions:
REMARK  status: ('A' for Active; 'I' for Inactive)
REMARK    1  A    between atoms: C_2  and  O_3
REMARK    2  A    between atoms: C_2  and  C_6
REMARK    3  A    between atoms: C_6  and  O_7
REMARK                            x       y       z     vdW  Elec       q    Type
REMARK                         _______ _______ _______ _____ _____    ______ ____
ROOT
ATOM      1  O   UNL     1      35.823  -1.301  15.432  0.00  0.00    +0.000 OA
ATOM      2  C   UNL     1      35.164  -1.701  16.372  0.00  0.00    +0.000 C 
ENDROOT
BRANCH   2   3
ATOM      3  O   UNL     1      35.567  -2.727  17.134  0.00  0.00    +0.000 OA
ATOM      4  H   UNL     1      34.854  -2.835  17.795  0.00  0.00    +0.000 HD
ENDBRANCH   2   3
BRANCH   2   6
ATOM      5  O   UNL     1      32.707  -1.440  16.401  0.00  0.00    +0.000 OA
ATOM      6  C   UNL     1      33.795  -1.111  16.831  0.00  0.00    +0.000 C 
BRANCH   6   7
ATOM      7  O   UNL     1      33.928  -0.173  17.779  0.00  0.00    +0.000 OA
ATOM      8  H   UNL     1      33.017  -0.020  18.101  0.00  0.00    +0.000 HD
ENDBRANCH   6   7
ENDBRANCH   2   6
TORSDOF 3
ENDMDL
MODEL 8
REMARK VINA RESULT:      -3.9     22.860     23.325
REMARK  Name = 971_OxalicAcid.pdbqt.pdb
REMARK  3 active torsions:
REMARK  status: ('A' for Active; 'I' for Inactive)
REMARK    1  A    between atoms: C_2  and  O_3
REMARK    2  A    between atoms: C_2  and  C_6
REMARK    3  A    between atoms: C_6  and  O_7
REMARK                            x       y       z     vdW  Elec       q    Type
REMARK                         _______ _______ _______ _____ _____    ______ ____
ROOT
ATOM      1  O   UNL     1      23.913 -10.709  23.750  0.00  0.00    +0.000 OA
ATOM      2  C   UNL     1      23.501 -10.154  24.749  0.00  0.00    +0.000 C 
ENDROOT
BRANCH   2   3
ATOM      3  O   UNL     1      24.309  -9.445  25.550  0.00  0.00    +0.000 OA
ATOM      4  H   UNL     1      24.023  -8.518  25.428  0.00  0.00    +0.000 HD
ENDBRANCH   2   3
BRANCH   2   6
ATOM      5  O   UNL     1      21.551 -10.987  26.018  0.00  0.00    +0.000 OA
ATOM      6  C   UNL     1      22.023 -10.173  25.249  0.00  0.00    +0.000 C 
BRANCH   6   7
ATOM      7  O   UNL     1      21.292  -9.174  24.736  0.00  0.00    +0.000 OA
ATOM      8  H   UNL     1      20.442  -9.219  25.219  0.00  0.00    +0.000 HD
ENDBRANCH   6   7
ENDBRANCH   2   6
TORSDOF 3
ENDMDL
MODEL 9
REMARK VINA RESULT:      -3.7     23.598     24.446
REMARK  Name = 971_OxalicAcid.pdbqt.pdb
REMARK  3 active torsions:
REMARK  status: ('A' for Active; 'I' for Inactive)
REMARK    1  A    between atoms: C_2  and  O_3
REMARK    2  A    between atoms: C_2  and  C_6
REMARK    3  A    between atoms: C_6  and  O_7
REMARK                            x       y       z     vdW  Elec       q    Type
REMARK                         _______ _______ _______ _____ _____    ______ ____
ROOT
ATOM      1  O   UNL     1      29.144  21.998  29.379  0.00  0.00    +0.000 OA
ATOM      2  C   UNL     1      30.216  21.999  29.952  0.00  0.00    +0.000 C 
ENDROOT
BRANCH   2   3
ATOM      3  O   UNL     1      30.556  21.036  30.820  0.00  0.00    +0.000 OA
ATOM      4  H   UNL     1      31.513  21.169  30.971  0.00  0.00    +0.000 HD
ENDBRANCH   2   3
BRANCH   2   6
ATOM      5  O   UNL     1      31.195  24.148  29.224  0.00  0.00    +0.000 OA
ATOM      6  C   UNL     1      31.331  23.076  29.780  0.00  0.00    +0.000 C 
BRANCH   6   7
ATOM      7  O   UNL     1      32.499  22.702  30.322  0.00  0.00    +0.000 OA
ATOM      8  H   UNL     1      32.254  22.306  31.182  0.00  0.00    +0.000 HD
ENDBRANCH   6   7
ENDBRANCH   2   6
TORSDOF 3
ENDMDL
