MODEL 1
REMARK VINA RESULT:      -6.8      0.000      0.000
REMARK  Name = 9852185_GambogicAcid.pdbqt.pdb
REMARK  10 active torsions:
REMARK  status: ('A' for Active; 'I' for Inactive)
REMARK    1  A    between atoms: C_8  and  C_30
REMARK    2  A    between atoms: C_20  and  C_38
REMARK    3  A    between atoms: C_21  and  O_28
REMARK    4  A    between atoms: C_25  and  C_43
REMARK    5  A    between atoms: C_31  and  C_32
REMARK    6  A    between atoms: C_32  and  C_35
REMARK    7  A    between atoms: C_35  and  O_36
REMARK    8  A    between atoms: C_39  and  C_40
REMARK    9  A    between atoms: C_43  and  C_44
REMARK   10  A    between atoms: C_45  and  C_46
REMARK                            x       y       z     vdW  Elec       q    Type
REMARK                         _______ _______ _______ _____ _____    ______ ____
ROOT
ATOM      1  O   UNL     1      36.221 -10.839  45.154  0.00  0.00    +0.000 OA
ATOM      2  O   UNL     1      35.827 -11.228  42.327  0.00  0.00    +0.000 OA
ATOM      3  O   UNL     1      35.482  -7.851  45.930  0.00  0.00    +0.000 OA
ATOM      4  O   UNL     1      35.880  -7.952  39.833  0.00  0.00    +0.000 OA
ATOM      5  O   UNL     1      35.785 -14.250  38.660  0.00  0.00    +0.000 OA
ATOM      6  C   UNL     1      36.190  -9.987  42.918  0.00  0.00    +0.000 C 
ATOM      7  C   UNL     1      37.659  -9.988  43.474  0.00  0.00    +0.000 C 
ATOM      8  C   UNL     1      35.570  -9.832  44.364  0.00  0.00    +0.000 C 
ATOM      9  C   UNL     1      37.561 -10.968  44.648  0.00  0.00    +0.000 C 
ATOM     10  C   UNL     1      37.999  -8.597  43.779  0.00  0.00    +0.000 C 
ATOM     11  C   UNL     1      36.923  -7.640  43.970  0.00  0.00    +0.000 C 
ATOM     12  C   UNL     1      35.877  -8.760  42.045  0.00  0.00    +0.000 C 
ATOM     13  C   UNL     1      35.911  -8.359  44.907  0.00  0.00    +0.000 C 
ATOM     14  C   UNL     1      36.247  -7.547  42.702  0.00  0.00    +0.000 C 
ATOM     15  C   UNL     1      38.536 -10.614  45.780  0.00  0.00    +0.000 C 
ATOM     16  C   UNL     1      37.801 -12.405  44.159  0.00  0.00    +0.000 C 
ATOM     17  C   UNL     1      35.867  -8.912  40.591  0.00  0.00    +0.000 C 
ATOM     18  C   UNL     1      35.852 -11.365  40.966  0.00  0.00    +0.000 A 
ATOM     19  C   UNL     1      35.872 -10.286  40.071  0.00  0.00    +0.000 A 
ATOM     20  C   UNL     1      35.812 -12.688  40.474  0.00  0.00    +0.000 A 
ATOM     21  C   UNL     1      35.881 -10.510  38.684  0.00  0.00    +0.000 A 
ATOM     22  C   UNL     1      35.815 -12.922  39.095  0.00  0.00    +0.000 A 
ATOM     23  C   UNL     1      35.855 -11.817  38.207  0.00  0.00    +0.000 A 
ATOM     24  C   UNL     1      35.848 -12.184  36.838  0.00  0.00    +0.000 C 
ATOM     25  C   UNL     1      35.711 -14.564  37.213  0.00  0.00    +0.000 C 
ATOM     26  C   UNL     1      35.784 -13.312  36.458  0.00  0.00    +0.000 C 
ATOM     27  C   UNL     1      34.369 -15.304  36.985  0.00  0.00    +0.000 C 
ENDROOT
BRANCH  21  28
ATOM     28  O   UNL     1      35.912  -9.492  37.769  0.00  0.00    +0.000 OA
ATOM     29  H   UNL     1      35.137  -9.559  37.167  0.00  0.00    +0.000 HD
ENDBRANCH  21  28
BRANCH   8  30
ATOM     30  C   UNL     1      34.118 -10.063  44.378  0.00  0.00    +0.000 C 
ATOM     31  C   UNL     1      32.603 -10.307  44.448  0.00  0.00    +0.000 C 
BRANCH  31  32
ATOM     32  C   UNL     1      31.326 -10.541  44.558  0.00  0.00    +0.000 C 
ATOM     33  C   UNL     1      30.679  -9.973  45.807  0.00  0.00    +0.000 C 
BRANCH  32  35
ATOM     34  O   UNL     1      29.456 -11.103  43.137  0.00  0.00    +0.000 OA
ATOM     35  C   UNL     1      30.607 -11.298  43.497  0.00  0.00    +0.000 C 
BRANCH  35  36
ATOM     36  O   UNL     1      31.340 -12.272  42.917  0.00  0.00    +0.000 OA
ATOM     37  H   UNL     1      32.198 -11.852  42.699  0.00  0.00    +0.000 HD
ENDBRANCH  35  36
ENDBRANCH  32  35
ENDBRANCH  31  32
ENDBRANCH   8  30
BRANCH  20  38
ATOM     38  C   UNL     1      35.772 -13.791  41.389  0.00  0.00    +0.000 C 
ATOM     39  C   UNL     1      35.723 -14.953  42.393  0.00  0.00    +0.000 C 
BRANCH  39  40
ATOM     40  C   UNL     1      35.673 -15.921  43.254  0.00  0.00    +0.000 C 
ATOM     41  C   UNL     1      35.602 -17.336  42.766  0.00  0.00    +0.000 C 
ATOM     42  C   UNL     1      35.931 -15.640  44.703  0.00  0.00    +0.000 C 
ENDBRANCH  39  40
ENDBRANCH  20  38
BRANCH  25  43
ATOM     43  C   UNL     1      36.850 -15.451  36.907  0.00  0.00    +0.000 C 
BRANCH  43  44
ATOM     44  C   UNL     1      38.036 -16.368  36.583  0.00  0.00    +0.000 C 
ATOM     45  C   UNL     1      39.223 -17.286  36.257  0.00  0.00    +0.000 C 
BRANCH  45  46
ATOM     46  C   UNL     1      40.220 -18.067  35.981  0.00  0.00    +0.000 C 
ATOM     47  C   UNL     1      41.194 -18.432  37.059  0.00  0.00    +0.000 C 
ATOM     48  C   UNL     1      40.498 -18.454  34.562  0.00  0.00    +0.000 C 
ENDBRANCH  45  46
ENDBRANCH  43  44
ENDBRANCH  25  43
TORSDOF 10
ENDMDL
MODEL 2
REMARK VINA RESULT:      -6.5     42.717     46.381
REMARK  Name = 9852185_GambogicAcid.pdbqt.pdb
REMARK  10 active torsions:
REMARK  status: ('A' for Active; 'I' for Inactive)
REMARK    1  A    between atoms: C_8  and  C_30
REMARK    2  A    between atoms: C_20  and  C_38
REMARK    3  A    between atoms: C_21  and  O_28
REMARK    4  A    between atoms: C_25  and  C_43
REMARK    5  A    between atoms: C_31  and  C_32
REMARK    6  A    between atoms: C_32  and  C_35
REMARK    7  A    between atoms: C_35  and  O_36
REMARK    8  A    between atoms: C_39  and  C_40
REMARK    9  A    between atoms: C_43  and  C_44
REMARK   10  A    between atoms: C_45  and  C_46
REMARK                            x       y       z     vdW  Elec       q    Type
REMARK                         _______ _______ _______ _____ _____    ______ ____
ROOT
ATOM      1  O   UNL     1      42.453 -16.816  -4.747  0.00  0.00    +0.000 OA
ATOM      2  O   UNL     1      40.415 -14.936  -3.966  0.00  0.00    +0.000 OA
ATOM      3  O   UNL     1      42.614 -19.159  -2.611  0.00  0.00    +0.000 OA
ATOM      4  O   UNL     1      39.284 -14.743  -0.012  0.00  0.00    +0.000 OA
ATOM      5  O   UNL     1      37.903 -11.054  -5.065  0.00  0.00    +0.000 OA
ATOM      6  C   UNL     1      41.176 -15.712  -3.051  0.00  0.00    +0.000 C 
ATOM      7  C   UNL     1      42.678 -15.260  -2.974  0.00  0.00    +0.000 C 
ATOM      8  C   UNL     1      41.559 -17.118  -3.664  0.00  0.00    +0.000 C 
ATOM      9  C   UNL     1      43.206 -15.655  -4.358  0.00  0.00    +0.000 C 
ATOM     10  C   UNL     1      43.264 -15.925  -1.810  0.00  0.00    +0.000 C 
ATOM     11  C   UNL     1      42.613 -17.111  -1.280  0.00  0.00    +0.000 C 
ATOM     12  C   UNL     1      40.523 -15.870  -1.667  0.00  0.00    +0.000 C 
ATOM     13  C   UNL     1      42.296 -17.983  -2.528  0.00  0.00    +0.000 C 
ATOM     14  C   UNL     1      41.327 -16.674  -0.802  0.00  0.00    +0.000 C 
ATOM     15  C   UNL     1      44.692 -16.038  -4.321  0.00  0.00    +0.000 C 
ATOM     16  C   UNL     1      42.968 -14.515  -5.361  0.00  0.00    +0.000 C 
ATOM     17  C   UNL     1      39.634 -14.816  -1.182  0.00  0.00    +0.000 C 
ATOM     18  C   UNL     1      39.610 -13.932  -3.500  0.00  0.00    +0.000 A 
ATOM     19  C   UNL     1      39.195 -13.817  -2.166  0.00  0.00    +0.000 A 
ATOM     20  C   UNL     1      39.157 -13.002  -4.462  0.00  0.00    +0.000 A 
ATOM     21  C   UNL     1      38.353 -12.765  -1.769  0.00  0.00    +0.000 A 
ATOM     22  C   UNL     1      38.314 -11.953  -4.078  0.00  0.00    +0.000 A 
ATOM     23  C   UNL     1      37.922 -11.844  -2.720  0.00  0.00    +0.000 A 
ATOM     24  C   UNL     1      37.065 -10.746  -2.460  0.00  0.00    +0.000 C 
ATOM     25  C   UNL     1      36.951  -9.965  -4.740  0.00  0.00    +0.000 C 
ATOM     26  C   UNL     1      36.680  -9.997  -3.302  0.00  0.00    +0.000 C 
ATOM     27  C   UNL     1      35.675 -10.224  -5.580  0.00  0.00    +0.000 C 
ENDROOT
BRANCH  21  28
ATOM     28  O   UNL     1      37.930 -12.601  -0.477  0.00  0.00    +0.000 OA
ATOM     29  H   UNL     1      38.704 -12.602   0.130  0.00  0.00    +0.000 HD
ENDBRANCH  21  28
BRANCH   8  30
ATOM     30  C   UNL     1      40.389 -17.840  -4.183  0.00  0.00    +0.000 C 
ATOM     31  C   UNL     1      39.137 -18.574  -4.686  0.00  0.00    +0.000 C 
BRANCH  31  32
ATOM     32  C   UNL     1      38.053 -19.194  -5.060  0.00  0.00    +0.000 C 
ATOM     33  C   UNL     1      38.111 -19.795  -6.452  0.00  0.00    +0.000 C 
BRANCH  32  35
ATOM     34  O   UNL     1      35.796 -19.764  -4.419  0.00  0.00    +0.000 OA
ATOM     35  C   UNL     1      36.886 -19.287  -4.141  0.00  0.00    +0.000 C 
BRANCH  35  36
ATOM     36  O   UNL     1      37.109 -18.787  -2.907  0.00  0.00    +0.000 OA
ATOM     37  H   UNL     1      36.222 -18.702  -2.501  0.00  0.00    +0.000 HD
ENDBRANCH  35  36
ENDBRANCH  32  35
ENDBRANCH  31  32
ENDBRANCH   8  30
BRANCH  20  38
ATOM     38  C   UNL     1      39.566 -13.131  -5.830  0.00  0.00    +0.000 C 
ATOM     39  C   UNL     1      39.991 -13.241  -7.302  0.00  0.00    +0.000 C 
BRANCH  39  40
ATOM     40  C   UNL     1      40.345 -13.313  -8.547  0.00  0.00    +0.000 C 
ATOM     41  C   UNL     1      39.499 -14.093  -9.508  0.00  0.00    +0.000 C 
ATOM     42  C   UNL     1      41.441 -12.430  -9.060  0.00  0.00    +0.000 C 
ENDBRANCH  39  40
ENDBRANCH  20  38
BRANCH  25  43
ATOM     43  C   UNL     1      37.591  -8.699  -5.146  0.00  0.00    +0.000 C 
BRANCH  43  44
ATOM     44  C   UNL     1      38.251  -7.382  -5.573  0.00  0.00    +0.000 C 
ATOM     45  C   UNL     1      38.909  -6.063  -6.001  0.00  0.00    +0.000 C 
BRANCH  45  46
ATOM     46  C   UNL     1      39.461  -4.949  -6.368  0.00  0.00    +0.000 C 
ATOM     47  C   UNL     1      40.620  -4.406  -5.590  0.00  0.00    +0.000 C 
ATOM     48  C   UNL     1      38.835  -4.123  -7.448  0.00  0.00    +0.000 C 
ENDBRANCH  45  46
ENDBRANCH  43  44
ENDBRANCH  25  43
TORSDOF 10
ENDMDL
MODEL 3
REMARK VINA RESULT:      -6.4     22.826     29.168
REMARK  Name = 9852185_GambogicAcid.pdbqt.pdb
REMARK  10 active torsions:
REMARK  status: ('A' for Active; 'I' for Inactive)
REMARK    1  A    between atoms: C_8  and  C_30
REMARK    2  A    between atoms: C_20  and  C_38
REMARK    3  A    between atoms: C_21  and  O_28
REMARK    4  A    between atoms: C_25  and  C_43
REMARK    5  A    between atoms: C_31  and  C_32
REMARK    6  A    between atoms: C_32  and  C_35
REMARK    7  A    between atoms: C_35  and  O_36
REMARK    8  A    between atoms: C_39  and  C_40
REMARK    9  A    between atoms: C_43  and  C_44
REMARK   10  A    between atoms: C_45  and  C_46
REMARK                            x       y       z     vdW  Elec       q    Type
REMARK                         _______ _______ _______ _____ _____    ______ ____
ROOT
ATOM      1  O   UNL     1      50.954 -22.886  19.729  0.00  0.00    +0.000 OA
ATOM      2  O   UNL     1      51.347 -20.098  19.118  0.00  0.00    +0.000 OA
ATOM      3  O   UNL     1      51.975 -23.485  22.674  0.00  0.00    +0.000 OA
ATOM      4  O   UNL     1      54.176 -17.972  21.222  0.00  0.00    +0.000 OA
ATOM      5  O   UNL     1      50.671 -16.527  16.056  0.00  0.00    +0.000 OA
ATOM      6  C   UNL     1      52.171 -20.844  20.004  0.00  0.00    +0.000 C 
ATOM      7  C   UNL     1      53.059 -21.904  19.258  0.00  0.00    +0.000 C 
ATOM      8  C   UNL     1      51.346 -21.963  20.757  0.00  0.00    +0.000 C 
ATOM      9  C   UNL     1      52.014 -22.906  18.756  0.00  0.00    +0.000 C 
ATOM     10  C   UNL     1      54.049 -22.383  20.223  0.00  0.00    +0.000 C 
ATOM     11  C   UNL     1      53.785 -22.211  21.641  0.00  0.00    +0.000 C 
ATOM     12  C   UNL     1      52.969 -19.981  20.996  0.00  0.00    +0.000 C 
ATOM     13  C   UNL     1      52.311 -22.668  21.831  0.00  0.00    +0.000 C 
ATOM     14  C   UNL     1      53.760 -20.789  21.868  0.00  0.00    +0.000 C 
ATOM     15  C   UNL     1      52.571 -24.335  18.686  0.00  0.00    +0.000 C 
ATOM     16  C   UNL     1      51.476 -22.468  17.385  0.00  0.00    +0.000 C 
ATOM     17  C   UNL     1      53.339 -18.621  20.609  0.00  0.00    +0.000 C 
ATOM     18  C   UNL     1      51.722 -18.838  18.740  0.00  0.00    +0.000 A 
ATOM     19  C   UNL     1      52.679 -18.070  19.418  0.00  0.00    +0.000 A 
ATOM     20  C   UNL     1      51.050 -18.300  17.620  0.00  0.00    +0.000 A 
ATOM     21  C   UNL     1      52.998 -16.776  18.975  0.00  0.00    +0.000 A 
ATOM     22  C   UNL     1      51.357 -17.009  17.174  0.00  0.00    +0.000 A 
ATOM     23  C   UNL     1      52.342 -16.257  17.863  0.00  0.00    +0.000 A 
ATOM     24  C   UNL     1      52.557 -14.966  17.319  0.00  0.00    +0.000 C 
ATOM     25  C   UNL     1      50.895 -15.142  15.578  0.00  0.00    +0.000 C 
ATOM     26  C   UNL     1      51.951 -14.533  16.389  0.00  0.00    +0.000 C 
ATOM     27  C   UNL     1      49.545 -14.397  15.725  0.00  0.00    +0.000 C 
ENDROOT
BRANCH  21  28
ATOM     28  O   UNL     1      53.934 -15.990  19.594  0.00  0.00    +0.000 OA
ATOM     29  H   UNL     1      54.785 -16.035  19.103  0.00  0.00    +0.000 HD
ENDBRANCH  21  28
BRANCH   8  30
ATOM     30  C   UNL     1      50.147 -21.428  21.415  0.00  0.00    +0.000 C 
ATOM     31  C   UNL     1      48.871 -20.919  22.104  0.00  0.00    +0.000 C 
BRANCH  31  32
ATOM     32  C   UNL     1      47.761 -20.530  22.665  0.00  0.00    +0.000 C 
ATOM     33  C   UNL     1      46.757 -19.897  21.719  0.00  0.00    +0.000 C 
BRANCH  32  35
ATOM     34  O   UNL     1      47.864 -21.729  24.759  0.00  0.00    +0.000 OA
ATOM     35  C   UNL     1      47.544 -20.735  24.122  0.00  0.00    +0.000 C 
BRANCH  35  36
ATOM     36  O   UNL     1      46.938 -19.701  24.745  0.00  0.00    +0.000 OA
ATOM     37  H   UNL     1      46.655 -19.099  24.025  0.00  0.00    +0.000 HD
ENDBRANCH  35  36
ENDBRANCH  32  35
ENDBRANCH  31  32
ENDBRANCH   8  30
BRANCH  20  38
ATOM     38  C   UNL     1      50.057 -19.078  16.939  0.00  0.00    +0.000 C 
ATOM     39  C   UNL     1      48.998 -19.894  16.183  0.00  0.00    +0.000 C 
BRANCH  39  40
ATOM     40  C   UNL     1      48.110 -20.574  15.527  0.00  0.00    +0.000 C 
ATOM     41  C   UNL     1      47.107 -19.850  14.681  0.00  0.00    +0.000 C 
ATOM     42  C   UNL     1      48.242 -22.062  15.423  0.00  0.00    +0.000 C 
ENDBRANCH  39  40
ENDBRANCH  20  38
BRANCH  25  43
ATOM     43  C   UNL     1      51.285 -15.235  14.158  0.00  0.00    +0.000 C 
BRANCH  43  44
ATOM     44  C   UNL     1      51.686 -15.325  12.681  0.00  0.00    +0.000 C 
ATOM     45  C   UNL     1      52.089 -15.416  11.202  0.00  0.00    +0.000 C 
BRANCH  45  46
ATOM     46  C   UNL     1      52.435 -15.487   9.955  0.00  0.00    +0.000 C 
ATOM     47  C   UNL     1      53.853 -15.810   9.598  0.00  0.00    +0.000 C 
ATOM     48  C   UNL     1      51.472 -15.075   8.885  0.00  0.00    +0.000 C 
ENDBRANCH  45  46
ENDBRANCH  43  44
ENDBRANCH  25  43
TORSDOF 10
ENDMDL
MODEL 4
REMARK VINA RESULT:      -6.3     26.047     29.148
REMARK  Name = 9852185_GambogicAcid.pdbqt.pdb
REMARK  10 active torsions:
REMARK  status: ('A' for Active; 'I' for Inactive)
REMARK    1  A    between atoms: C_8  and  C_30
REMARK    2  A    between atoms: C_20  and  C_38
REMARK    3  A    between atoms: C_21  and  O_28
REMARK    4  A    between atoms: C_25  and  C_43
REMARK    5  A    between atoms: C_31  and  C_32
REMARK    6  A    between atoms: C_32  and  C_35
REMARK    7  A    between atoms: C_35  and  O_36
REMARK    8  A    between atoms: C_39  and  C_40
REMARK    9  A    between atoms: C_43  and  C_44
REMARK   10  A    between atoms: C_45  and  C_46
REMARK                            x       y       z     vdW  Elec       q    Type
REMARK                         _______ _______ _______ _____ _____    ______ ____
ROOT
ATOM      1  O   UNL     1      56.036   9.690  29.164  0.00  0.00    +0.000 OA
ATOM      2  O   UNL     1      53.658   8.085  28.908  0.00  0.00    +0.000 OA
ATOM      3  O   UNL     1      57.078  10.515  26.281  0.00  0.00    +0.000 OA
ATOM      4  O   UNL     1      52.968   6.084  25.376  0.00  0.00    +0.000 OA
ATOM      5  O   UNL     1      50.062   5.864  31.082  0.00  0.00    +0.000 OA
ATOM      6  C   UNL     1      54.701   8.121  27.944  0.00  0.00    +0.000 C 
ATOM      7  C   UNL     1      56.018   7.430  28.449  0.00  0.00    +0.000 C 
ATOM      8  C   UNL     1      55.388   9.545  27.890  0.00  0.00    +0.000 C 
ATOM      9  C   UNL     1      56.476   8.380  29.562  0.00  0.00    +0.000 C 
ATOM     10  C   UNL     1      56.892   7.278  27.285  0.00  0.00    +0.000 C 
ATOM     11  C   UNL     1      56.659   8.114  26.121  0.00  0.00    +0.000 C 
ATOM     12  C   UNL     1      54.277   7.657  26.541  0.00  0.00    +0.000 C 
ATOM     13  C   UNL     1      56.458   9.547  26.692  0.00  0.00    +0.000 C 
ATOM     14  C   UNL     1      55.364   7.736  25.617  0.00  0.00    +0.000 C 
ATOM     15  C   UNL     1      58.005   8.411  29.701  0.00  0.00    +0.000 C 
ATOM     16  C   UNL     1      55.821   7.988  30.895  0.00  0.00    +0.000 C 
ATOM     17  C   UNL     1      53.191   6.687  26.417  0.00  0.00    +0.000 C 
ATOM     18  C   UNL     1      52.663   7.151  28.797  0.00  0.00    +0.000 A 
ATOM     19  C   UNL     1      52.385   6.441  27.620  0.00  0.00    +0.000 A 
ATOM     20  C   UNL     1      51.866   6.952  29.945  0.00  0.00    +0.000 A 
ATOM     21  C   UNL     1      51.335   5.509  27.582  0.00  0.00    +0.000 A 
ATOM     22  C   UNL     1      50.814   6.031  29.916  0.00  0.00    +0.000 A 
ATOM     23  C   UNL     1      50.562   5.309  28.723  0.00  0.00    +0.000 A 
ATOM     24  C   UNL     1      49.469   4.412  28.818  0.00  0.00    +0.000 C 
ATOM     25  C   UNL     1      48.888   4.959  31.096  0.00  0.00    +0.000 C 
ATOM     26  C   UNL     1      48.799   4.291  29.796  0.00  0.00    +0.000 C 
ATOM     27  C   UNL     1      47.648   5.841  31.384  0.00  0.00    +0.000 C 
ENDROOT
BRANCH  21  28
ATOM     28  O   UNL     1      51.030   4.780  26.463  0.00  0.00    +0.000 OA
ATOM     29  H   UNL     1      51.229   3.830  26.619  0.00  0.00    +0.000 HD
ENDBRANCH  21  28
BRANCH   8  30
ATOM     30  C   UNL     1      54.414  10.631  27.712  0.00  0.00    +0.000 C 
ATOM     31  C   UNL     1      53.392  11.753  27.473  0.00  0.00    +0.000 C 
BRANCH  31  32
ATOM     32  C   UNL     1      52.543  12.708  27.216  0.00  0.00    +0.000 C 
ATOM     33  C   UNL     1      53.165  13.993  26.702  0.00  0.00    +0.000 C 
BRANCH  32  35
ATOM     34  O   UNL     1      50.219  12.638  26.565  0.00  0.00    +0.000 OA
ATOM     35  C   UNL     1      51.085  12.489  27.414  0.00  0.00    +0.000 C 
BRANCH  35  36
ATOM     36  O   UNL     1      50.747  12.091  28.660  0.00  0.00    +0.000 OA
ATOM     37  H   UNL     1      51.538  11.625  29.003  0.00  0.00    +0.000 HD
ENDBRANCH  35  36
ENDBRANCH  32  35
ENDBRANCH  31  32
ENDBRANCH   8  30
BRANCH  20  38
ATOM     38  C   UNL     1      52.138   7.694  31.143  0.00  0.00    +0.000 C 
ATOM     39  C   UNL     1      52.431   8.460  32.441  0.00  0.00    +0.000 C 
BRANCH  39  40
ATOM     40  C   UNL     1      52.684   9.090  33.546  0.00  0.00    +0.000 C 
ATOM     41  C   UNL     1      52.149   8.550  34.838  0.00  0.00    +0.000 C 
ATOM     42  C   UNL     1      53.696  10.194  33.558  0.00  0.00    +0.000 C 
ENDBRANCH  39  40
ENDBRANCH  20  38
BRANCH  25  43
ATOM     43  C   UNL     1      49.103   3.993  32.190  0.00  0.00    +0.000 C 
BRANCH  43  44
ATOM     44  C   UNL     1      49.320   2.992  33.332  0.00  0.00    +0.000 C 
ATOM     45  C   UNL     1      49.538   1.992  34.477  0.00  0.00    +0.000 C 
BRANCH  45  46
ATOM     46  C   UNL     1      49.729   1.145  35.439  0.00  0.00    +0.000 C 
ATOM     47  C   UNL     1      49.094   1.388  36.774  0.00  0.00    +0.000 C 
ATOM     48  C   UNL     1      50.717   0.033  35.274  0.00  0.00    +0.000 C 
ENDBRANCH  45  46
ENDBRANCH  43  44
ENDBRANCH  25  43
TORSDOF 10
ENDMDL
MODEL 5
REMARK VINA RESULT:      -6.3     29.426     32.940
REMARK  Name = 9852185_GambogicAcid.pdbqt.pdb
REMARK  10 active torsions:
REMARK  status: ('A' for Active; 'I' for Inactive)
REMARK    1  A    between atoms: C_8  and  C_30
REMARK    2  A    between atoms: C_20  and  C_38
REMARK    3  A    between atoms: C_21  and  O_28
REMARK    4  A    between atoms: C_25  and  C_43
REMARK    5  A    between atoms: C_31  and  C_32
REMARK    6  A    between atoms: C_32  and  C_35
REMARK    7  A    between atoms: C_35  and  O_36
REMARK    8  A    between atoms: C_39  and  C_40
REMARK    9  A    between atoms: C_43  and  C_44
REMARK   10  A    between atoms: C_45  and  C_46
REMARK                            x       y       z     vdW  Elec       q    Type
REMARK                         _______ _______ _______ _____ _____    ______ ____
ROOT
ATOM      1  O   UNL     1      50.299   7.038  20.441  0.00  0.00    +0.000 OA
ATOM      2  O   UNL     1      47.568   7.376  19.592  0.00  0.00    +0.000 OA
ATOM      3  O   UNL     1      50.365   5.605  23.272  0.00  0.00    +0.000 OA
ATOM      4  O   UNL     1      44.582   7.390  22.427  0.00  0.00    +0.000 OA
ATOM      5  O   UNL     1      44.570   8.726  16.161  0.00  0.00    +0.000 OA
ATOM      6  C   UNL     1      47.984   7.360  20.951  0.00  0.00    +0.000 C 
ATOM      7  C   UNL     1      48.806   8.638  21.348  0.00  0.00    +0.000 C 
ATOM      8  C   UNL     1      49.229   6.410  21.164  0.00  0.00    +0.000 C 
ATOM      9  C   UNL     1      50.096   8.458  20.540  0.00  0.00    +0.000 C 
ATOM     10  C   UNL     1      48.915   8.638  22.808  0.00  0.00    +0.000 C 
ATOM     11  C   UNL     1      48.717   7.389  23.523  0.00  0.00    +0.000 C 
ATOM     12  C   UNL     1      46.860   7.033  21.949  0.00  0.00    +0.000 C 
ATOM     13  C   UNL     1      49.553   6.341  22.736  0.00  0.00    +0.000 C 
ATOM     14  C   UNL     1      47.346   7.015  23.292  0.00  0.00    +0.000 C 
ATOM     15  C   UNL     1      51.313   9.068  21.251  0.00  0.00    +0.000 C 
ATOM     16  C   UNL     1      49.931   9.063  19.137  0.00  0.00    +0.000 C 
ATOM     17  C   UNL     1      45.484   7.382  21.600  0.00  0.00    +0.000 C 
ATOM     18  C   UNL     1      46.285   7.735  19.279  0.00  0.00    +0.000 A 
ATOM     19  C   UNL     1      45.231   7.758  20.203  0.00  0.00    +0.000 A 
ATOM     20  C   UNL     1      46.042   8.052  17.924  0.00  0.00    +0.000 A 
ATOM     21  C   UNL     1      43.936   8.123  19.798  0.00  0.00    +0.000 A 
ATOM     22  C   UNL     1      44.755   8.412  17.510  0.00  0.00    +0.000 A 
ATOM     23  C   UNL     1      43.708   8.448  18.464  0.00  0.00    +0.000 A 
ATOM     24  C   UNL     1      42.453   8.820  17.921  0.00  0.00    +0.000 C 
ATOM     25  C   UNL     1      43.218   9.042  15.643  0.00  0.00    +0.000 C 
ATOM     26  C   UNL     1      42.278   9.053  16.765  0.00  0.00    +0.000 C 
ATOM     27  C   UNL     1      42.871   7.947  14.604  0.00  0.00    +0.000 C 
ENDROOT
BRANCH  21  28
ATOM     28  O   UNL     1      42.876   8.174  20.664  0.00  0.00    +0.000 OA
ATOM     29  H   UNL     1      42.244   7.448  20.461  0.00  0.00    +0.000 HD
ENDBRANCH  21  28
BRANCH   8  30
ATOM     30  C   UNL     1      49.003   5.061  20.625  0.00  0.00    +0.000 C 
ATOM     31  C   UNL     1      48.731   3.672  20.027  0.00  0.00    +0.000 C 
BRANCH  31  32
ATOM     32  C   UNL     1      48.449   2.513  19.502  0.00  0.00    +0.000 C 
ATOM     33  C   UNL     1      47.320   1.763  20.184  0.00  0.00    +0.000 C 
BRANCH  32  35
ATOM     34  O   UNL     1      49.874   2.712  17.563  0.00  0.00    +0.000 OA
ATOM     35  C   UNL     1      49.200   2.023  18.315  0.00  0.00    +0.000 C 
BRANCH  35  36
ATOM     36  O   UNL     1      49.094   0.695  18.100  0.00  0.00    +0.000 OA
ATOM     37  H   UNL     1      48.140   0.536  17.940  0.00  0.00    +0.000 HD
ENDBRANCH  35  36
ENDBRANCH  32  35
ENDBRANCH  31  32
ENDBRANCH   8  30
BRANCH  20  38
ATOM     38  C   UNL     1      47.116   8.008  16.975  0.00  0.00    +0.000 C 
ATOM     39  C   UNL     1      48.284   7.946  15.980  0.00  0.00    +0.000 C 
BRANCH  39  40
ATOM     40  C   UNL     1      49.280   7.880  15.151  0.00  0.00    +0.000 C 
ATOM     41  C   UNL     1      50.646   7.544  15.669  0.00  0.00    +0.000 C 
ATOM     42  C   UNL     1      49.021   7.895  13.676  0.00  0.00    +0.000 C 
ENDBRANCH  39  40
ENDBRANCH  20  38
BRANCH  25  43
ATOM     43  C   UNL     1      43.305  10.364  14.993  0.00  0.00    +0.000 C 
BRANCH  43  44
ATOM     44  C   UNL     1      43.387  11.737  14.315  0.00  0.00    +0.000 C 
ATOM     45  C   UNL     1      43.470  13.114  13.639  0.00  0.00    +0.000 C 
BRANCH  45  46
ATOM     46  C   UNL     1      43.532  14.276  13.068  0.00  0.00    +0.000 C 
ATOM     47  C   UNL     1      44.717  15.158  13.313  0.00  0.00    +0.000 C 
ATOM     48  C   UNL     1      42.350  14.805  12.316  0.00  0.00    +0.000 C 
ENDBRANCH  45  46
ENDBRANCH  43  44
ENDBRANCH  25  43
TORSDOF 10
ENDMDL
MODEL 6
REMARK VINA RESULT:      -6.3     20.162     22.642
REMARK  Name = 9852185_GambogicAcid.pdbqt.pdb
REMARK  10 active torsions:
REMARK  status: ('A' for Active; 'I' for Inactive)
REMARK    1  A    between atoms: C_8  and  C_30
REMARK    2  A    between atoms: C_20  and  C_38
REMARK    3  A    between atoms: C_21  and  O_28
REMARK    4  A    between atoms: C_25  and  C_43
REMARK    5  A    between atoms: C_31  and  C_32
REMARK    6  A    between atoms: C_32  and  C_35
REMARK    7  A    between atoms: C_35  and  O_36
REMARK    8  A    between atoms: C_39  and  C_40
REMARK    9  A    between atoms: C_43  and  C_44
REMARK   10  A    between atoms: C_45  and  C_46
REMARK                            x       y       z     vdW  Elec       q    Type
REMARK                         _______ _______ _______ _____ _____    ______ ____
ROOT
ATOM      1  O   UNL     1      49.494   0.922  34.006  0.00  0.00    +0.000 OA
ATOM      2  O   UNL     1      51.379   0.369  31.899  0.00  0.00    +0.000 OA
ATOM      3  O   UNL     1      50.472   3.439  35.674  0.00  0.00    +0.000 OA
ATOM      4  O   UNL     1      55.250   1.718  32.277  0.00  0.00    +0.000 OA
ATOM      5  O   UNL     1      52.456  -2.207  28.053  0.00  0.00    +0.000 OA
ATOM      6  C   UNL     1      51.727   0.955  33.146  0.00  0.00    +0.000 C 
ATOM      7  C   UNL     1      51.625  -0.058  34.342  0.00  0.00    +0.000 C 
ATOM      8  C   UNL     1      50.552   1.848  33.713  0.00  0.00    +0.000 C 
ATOM      9  C   UNL     1      50.114  -0.304  34.431  0.00  0.00    +0.000 C 
ATOM     10  C   UNL     1      52.278   0.572  35.490  0.00  0.00    +0.000 C 
ATOM     11  C   UNL     1      52.447   2.015  35.494  0.00  0.00    +0.000 C 
ATOM     12  C   UNL     1      53.054   1.732  33.126  0.00  0.00    +0.000 C 
ATOM     13  C   UNL     1      51.068   2.579  35.047  0.00  0.00    +0.000 C 
ATOM     14  C   UNL     1      53.337   2.311  34.401  0.00  0.00    +0.000 C 
ATOM     15  C   UNL     1      49.661  -0.596  35.868  0.00  0.00    +0.000 C 
ATOM     16  C   UNL     1      49.708  -1.451  33.492  0.00  0.00    +0.000 C 
ATOM     17  C   UNL     1      54.095   1.326  32.183  0.00  0.00    +0.000 C 
ATOM     18  C   UNL     1      52.364  -0.035  31.039  0.00  0.00    +0.000 A 
ATOM     19  C   UNL     1      53.697   0.392  31.122  0.00  0.00    +0.000 A 
ATOM     20  C   UNL     1      51.964  -0.898  29.996  0.00  0.00    +0.000 A 
ATOM     21  C   UNL     1      54.648  -0.056  30.189  0.00  0.00    +0.000 A 
ATOM     22  C   UNL     1      52.901  -1.346  29.059  0.00  0.00    +0.000 A 
ATOM     23  C   UNL     1      54.248  -0.918  29.172  0.00  0.00    +0.000 A 
ATOM     24  C   UNL     1      55.097  -1.434  28.162  0.00  0.00    +0.000 C 
ATOM     25  C   UNL     1      53.382  -2.658  26.986  0.00  0.00    +0.000 C 
ATOM     26  C   UNL     1      54.719  -2.139  27.278  0.00  0.00    +0.000 C 
ATOM     27  C   UNL     1      52.823  -2.109  25.650  0.00  0.00    +0.000 C 
ENDROOT
BRANCH  21  28
ATOM     28  O   UNL     1      55.964   0.321  30.233  0.00  0.00    +0.000 OA
ATOM     29  H   UNL     1      56.275   0.337  31.166  0.00  0.00    +0.000 HD
ENDBRANCH  21  28
BRANCH   8  30
ATOM     30  C   UNL     1      50.078   2.837  32.734  0.00  0.00    +0.000 C 
ATOM     31  C   UNL     1      49.557   3.831  31.684  0.00  0.00    +0.000 C 
BRANCH  31  32
ATOM     32  C   UNL     1      49.114   4.631  30.756  0.00  0.00    +0.000 C 
ATOM     33  C   UNL     1      48.266   5.783  31.261  0.00  0.00    +0.000 C 
BRANCH  32  35
ATOM     34  O   UNL     1      50.266   3.569  28.919  0.00  0.00    +0.000 OA
ATOM     35  C   UNL     1      49.460   4.391  29.330  0.00  0.00    +0.000 C 
BRANCH  35  36
ATOM     36  O   UNL     1      48.794   5.177  28.457  0.00  0.00    +0.000 OA
ATOM     37  H   UNL     1      47.849   4.945  28.571  0.00  0.00    +0.000 HD
ENDBRANCH  35  36
ENDBRANCH  32  35
ENDBRANCH  31  32
ENDBRANCH   8  30
BRANCH  20  38
ATOM     38  C   UNL     1      50.596  -1.318  29.900  0.00  0.00    +0.000 C 
ATOM     39  C   UNL     1      49.140  -1.790  29.776  0.00  0.00    +0.000 C 
BRANCH  39  40
ATOM     40  C   UNL     1      47.916  -2.205  29.661  0.00  0.00    +0.000 C 
ATOM     41  C   UNL     1      47.512  -3.491  30.316  0.00  0.00    +0.000 C 
ATOM     42  C   UNL     1      46.872  -1.293  29.094  0.00  0.00    +0.000 C 
ENDBRANCH  39  40
ENDBRANCH  20  38
BRANCH  25  43
ATOM     43  C   UNL     1      53.357  -4.133  26.991  0.00  0.00    +0.000 C 
BRANCH  43  44
ATOM     44  C   UNL     1      53.327  -5.666  26.990  0.00  0.00    +0.000 C 
ATOM     45  C   UNL     1      53.294  -7.201  26.989  0.00  0.00    +0.000 C 
BRANCH  45  46
ATOM     46  C   UNL     1      53.264  -8.497  26.995  0.00  0.00    +0.000 C 
ATOM     47  C   UNL     1      52.837  -9.233  25.762  0.00  0.00    +0.000 C 
ATOM     48  C   UNL     1      53.478  -9.246  28.274  0.00  0.00    +0.000 C 
ENDBRANCH  45  46
ENDBRANCH  43  44
ENDBRANCH  25  43
TORSDOF 10
ENDMDL
MODEL 7
REMARK VINA RESULT:      -6.2     20.254     23.680
REMARK  Name = 9852185_GambogicAcid.pdbqt.pdb
REMARK  10 active torsions:
REMARK  status: ('A' for Active; 'I' for Inactive)
REMARK    1  A    between atoms: C_8  and  C_30
REMARK    2  A    between atoms: C_20  and  C_38
REMARK    3  A    between atoms: C_21  and  O_28
REMARK    4  A    between atoms: C_25  and  C_43
REMARK    5  A    between atoms: C_31  and  C_32
REMARK    6  A    between atoms: C_32  and  C_35
REMARK    7  A    between atoms: C_35  and  O_36
REMARK    8  A    between atoms: C_39  and  C_40
REMARK    9  A    between atoms: C_43  and  C_44
REMARK   10  A    between atoms: C_45  and  C_46
REMARK                            x       y       z     vdW  Elec       q    Type
REMARK                         _______ _______ _______ _____ _____    ______ ____
ROOT
ATOM      1  O   UNL     1      52.226  -4.001  32.958  0.00  0.00    +0.000 OA
ATOM      2  O   UNL     1      51.402  -1.706  31.426  0.00  0.00    +0.000 OA
ATOM      3  O   UNL     1      50.435  -6.502  32.177  0.00  0.00    +0.000 OA
ATOM      4  O   UNL     1      47.596  -1.613  29.858  0.00  0.00    +0.000 OA
ATOM      5  O   UNL     1      52.197   2.829  30.248  0.00  0.00    +0.000 OA
ATOM      6  C   UNL     1      50.531  -2.761  31.812  0.00  0.00    +0.000 C 
ATOM      7  C   UNL     1      50.240  -2.772  33.355  0.00  0.00    +0.000 C 
ATOM      8  C   UNL     1      51.293  -4.145  31.876  0.00  0.00    +0.000 C 
ATOM      9  C   UNL     1      51.604  -3.154  33.940  0.00  0.00    +0.000 C 
ATOM     10  C   UNL     1      49.126  -3.697  33.571  0.00  0.00    +0.000 C 
ATOM     11  C   UNL     1      48.838  -4.694  32.554  0.00  0.00    +0.000 C 
ATOM     12  C   UNL     1      49.257  -2.869  30.957  0.00  0.00    +0.000 C 
ATOM     13  C   UNL     1      50.221  -5.300  32.185  0.00  0.00    +0.000 C 
ATOM     14  C   UNL     1      48.436  -3.957  31.383  0.00  0.00    +0.000 C 
ATOM     15  C   UNL     1      51.470  -3.953  35.245  0.00  0.00    +0.000 C 
ATOM     16  C   UNL     1      52.456  -1.895  34.163  0.00  0.00    +0.000 C 
ATOM     17  C   UNL     1      48.723  -1.660  30.332  0.00  0.00    +0.000 C 
ATOM     18  C   UNL     1      50.885  -0.567  30.870  0.00  0.00    +0.000 A 
ATOM     19  C   UNL     1      49.597  -0.480  30.323  0.00  0.00    +0.000 A 
ATOM     20  C   UNL     1      51.747   0.550  30.826  0.00  0.00    +0.000 A 
ATOM     21  C   UNL     1      49.145   0.723  29.755  0.00  0.00    +0.000 A 
ATOM     22  C   UNL     1      51.309   1.750  30.257  0.00  0.00    +0.000 A 
ATOM     23  C   UNL     1      49.996   1.824  29.727  0.00  0.00    +0.000 A 
ATOM     24  C   UNL     1      49.673   3.089  29.176  0.00  0.00    +0.000 C 
ATOM     25  C   UNL     1      51.821   4.105  29.595  0.00  0.00    +0.000 C 
ATOM     26  C   UNL     1      50.437   4.002  29.130  0.00  0.00    +0.000 C 
ATOM     27  C   UNL     1      52.815   4.317  28.425  0.00  0.00    +0.000 C 
ENDROOT
BRANCH  21  28
ATOM     28  O   UNL     1      47.892   0.865  29.219  0.00  0.00    +0.000 OA
ATOM     29  H   UNL     1      47.601   0.014  28.820  0.00  0.00    +0.000 HD
ENDBRANCH  21  28
BRANCH   8  30
ATOM     30  C   UNL     1      52.025  -4.440  30.637  0.00  0.00    +0.000 C 
ATOM     31  C   UNL     1      52.784  -4.696  29.325  0.00  0.00    +0.000 C 
BRANCH  31  32
ATOM     32  C   UNL     1      53.398  -4.871  28.189  0.00  0.00    +0.000 C 
ATOM     33  C   UNL     1      54.895  -5.089  28.301  0.00  0.00    +0.000 C 
BRANCH  32  35
ATOM     34  O   UNL     1      52.662  -5.737  26.059  0.00  0.00    +0.000 OA
ATOM     35  C   UNL     1      52.633  -4.864  26.913  0.00  0.00    +0.000 C 
BRANCH  35  36
ATOM     36  O   UNL     1      51.855  -3.774  26.737  0.00  0.00    +0.000 OA
ATOM     37  H   UNL     1      51.775  -3.670  25.766  0.00  0.00    +0.000 HD
ENDBRANCH  35  36
ENDBRANCH  32  35
ENDBRANCH  31  32
ENDBRANCH   8  30
BRANCH  20  38
ATOM     38  C   UNL     1      53.072   0.453  31.367  0.00  0.00    +0.000 C 
ATOM     39  C   UNL     1      54.484   0.321  31.956  0.00  0.00    +0.000 C 
BRANCH  39  40
ATOM     40  C   UNL     1      55.674   0.188  32.454  0.00  0.00    +0.000 C 
ATOM     41  C   UNL     1      55.841   0.091  33.941  0.00  0.00    +0.000 C 
ATOM     42  C   UNL     1      56.829  -0.113  31.550  0.00  0.00    +0.000 C 
ENDBRANCH  39  40
ENDBRANCH  20  38
BRANCH  25  43
ATOM     43  C   UNL     1      51.978   5.168  30.606  0.00  0.00    +0.000 C 
BRANCH  43  44
ATOM     44  C   UNL     1      52.138   6.278  31.652  0.00  0.00    +0.000 C 
ATOM     45  C   UNL     1      52.298   7.391  32.697  0.00  0.00    +0.000 C 
BRANCH  45  46
ATOM     46  C   UNL     1      52.441   8.332  33.578  0.00  0.00    +0.000 C 
ATOM     47  C   UNL     1      53.170   9.587  33.209  0.00  0.00    +0.000 C 
ATOM     48  C   UNL     1      52.041   8.093  35.001  0.00  0.00    +0.000 C 
ENDBRANCH  45  46
ENDBRANCH  43  44
ENDBRANCH  25  43
TORSDOF 10
ENDMDL
MODEL 8
REMARK VINA RESULT:      -6.1     20.814     23.247
REMARK  Name = 9852185_GambogicAcid.pdbqt.pdb
REMARK  10 active torsions:
REMARK  status: ('A' for Active; 'I' for Inactive)
REMARK    1  A    between atoms: C_8  and  C_30
REMARK    2  A    between atoms: C_20  and  C_38
REMARK    3  A    between atoms: C_21  and  O_28
REMARK    4  A    between atoms: C_25  and  C_43
REMARK    5  A    between atoms: C_31  and  C_32
REMARK    6  A    between atoms: C_32  and  C_35
REMARK    7  A    between atoms: C_35  and  O_36
REMARK    8  A    between atoms: C_39  and  C_40
REMARK    9  A    between atoms: C_43  and  C_44
REMARK   10  A    between atoms: C_45  and  C_46
REMARK                            x       y       z     vdW  Elec       q    Type
REMARK                         _______ _______ _______ _____ _____    ______ ____
ROOT
ATOM      1  O   UNL     1      52.692   4.978  32.540  0.00  0.00    +0.000 OA
ATOM      2  O   UNL     1      51.476   2.510  31.688  0.00  0.00    +0.000 OA
ATOM      3  O   UNL     1      50.431   7.063  33.325  0.00  0.00    +0.000 OA
ATOM      4  O   UNL     1      47.594   2.565  30.315  0.00  0.00    +0.000 OA
ATOM      5  O   UNL     1      52.082  -2.008  30.344  0.00  0.00    +0.000 OA
ATOM      6  C   UNL     1      50.877   3.789  31.530  0.00  0.00    +0.000 C 
ATOM      7  C   UNL     1      51.607   4.672  30.456  0.00  0.00    +0.000 C 
ATOM      8  C   UNL     1      51.281   4.766  32.706  0.00  0.00    +0.000 C 
ATOM      9  C   UNL     1      52.957   4.950  31.127  0.00  0.00    +0.000 C 
ATOM     10  C   UNL     1      50.737   5.817  30.183  0.00  0.00    +0.000 C 
ATOM     11  C   UNL     1      49.726   6.176  31.162  0.00  0.00    +0.000 C 
ATOM     12  C   UNL     1      49.351   3.750  31.342  0.00  0.00    +0.000 C 
ATOM     13  C   UNL     1      50.464   6.137  32.531  0.00  0.00    +0.000 C 
ATOM     14  C   UNL     1      48.810   5.065  31.208  0.00  0.00    +0.000 C 
ATOM     15  C   UNL     1      53.534   6.313  30.720  0.00  0.00    +0.000 C 
ATOM     16  C   UNL     1      53.951   3.824  30.802  0.00  0.00    +0.000 C 
ATOM     17  C   UNL     1      48.746   2.569  30.727  0.00  0.00    +0.000 C 
ATOM     18  C   UNL     1      50.916   1.419  31.081  0.00  0.00    +0.000 A 
ATOM     19  C   UNL     1      49.601   1.382  30.595  0.00  0.00    +0.000 A 
ATOM     20  C   UNL     1      51.730   0.268  30.999  0.00  0.00    +0.000 A 
ATOM     21  C   UNL     1      49.094   0.216  29.998  0.00  0.00    +0.000 A 
ATOM     22  C   UNL     1      51.233  -0.900  30.411  0.00  0.00    +0.000 A 
ATOM     23  C   UNL     1      49.907  -0.910  29.908  0.00  0.00    +0.000 A 
ATOM     24  C   UNL     1      49.520  -2.150  29.344  0.00  0.00    +0.000 C 
ATOM     25  C   UNL     1      51.593  -3.298  29.802  0.00  0.00    +0.000 C 
ATOM     26  C   UNL     1      50.225  -3.111  29.317  0.00  0.00    +0.000 C 
ATOM     27  C   UNL     1      51.666  -4.324  30.960  0.00  0.00    +0.000 C 
ENDROOT
BRANCH  21  28
ATOM     28  O   UNL     1      47.822   0.133  29.497  0.00  0.00    +0.000 OA
ATOM     29  H   UNL     1      47.661   0.875  28.872  0.00  0.00    +0.000 HD
ENDBRANCH  21  28
BRANCH   8  30
ATOM     30  C   UNL     1      51.029   4.182  34.031  0.00  0.00    +0.000 C 
ATOM     31  C   UNL     1      50.788   3.525  35.399  0.00  0.00    +0.000 C 
BRANCH  31  32
ATOM     32  C   UNL     1      50.584   2.917  36.533  0.00  0.00    +0.000 C 
ATOM     33  C   UNL     1      51.400   3.449  37.697  0.00  0.00    +0.000 C 
BRANCH  32  35
ATOM     34  O   UNL     1      49.747   0.771  37.260  0.00  0.00    +0.000 OA
ATOM     35  C   UNL     1      49.600   1.804  36.623  0.00  0.00    +0.000 C 
BRANCH  35  36
ATOM     36  O   UNL     1      48.465   2.008  35.921  0.00  0.00    +0.000 OA
ATOM     37  H   UNL     1      48.623   2.830  35.411  0.00  0.00    +0.000 HD
ENDBRANCH  35  36
ENDBRANCH  32  35
ENDBRANCH  31  32
ENDBRANCH   8  30
BRANCH  20  38
ATOM     38  C   UNL     1      53.068   0.299  31.514  0.00  0.00    +0.000 C 
ATOM     39  C   UNL     1      54.505   0.361  32.053  0.00  0.00    +0.000 C 
BRANCH  39  40
ATOM     40  C   UNL     1      55.718   0.434  32.504  0.00  0.00    +0.000 C 
ATOM     41  C   UNL     1      56.238   1.747  33.006  0.00  0.00    +0.000 C 
ATOM     42  C   UNL     1      56.497  -0.822  32.748  0.00  0.00    +0.000 C 
ENDBRANCH  39  40
ENDBRANCH  20  38
BRANCH  25  43
ATOM     43  C   UNL     1      52.510  -3.681  28.712  0.00  0.00    +0.000 C 
BRANCH  43  44
ATOM     44  C   UNL     1      53.457  -4.082  27.573  0.00  0.00    +0.000 C 
ATOM     45  C   UNL     1      54.403  -4.483  26.432  0.00  0.00    +0.000 C 
BRANCH  45  46
ATOM     46  C   UNL     1      55.199  -4.828  25.469  0.00  0.00    +0.000 C 
ATOM     47  C   UNL     1      54.646  -5.041  24.093  0.00  0.00    +0.000 C 
ATOM     48  C   UNL     1      56.622  -5.186  25.766  0.00  0.00    +0.000 C 
ENDBRANCH  45  46
ENDBRANCH  43  44
ENDBRANCH  25  43
TORSDOF 10
ENDMDL
MODEL 9
REMARK VINA RESULT:      -6.1     33.815     37.949
REMARK  Name = 9852185_GambogicAcid.pdbqt.pdb
REMARK  10 active torsions:
REMARK  status: ('A' for Active; 'I' for Inactive)
REMARK    1  A    between atoms: C_8  and  C_30
REMARK    2  A    between atoms: C_20  and  C_38
REMARK    3  A    between atoms: C_21  and  O_28
REMARK    4  A    between atoms: C_25  and  C_43
REMARK    5  A    between atoms: C_31  and  C_32
REMARK    6  A    between atoms: C_32  and  C_35
REMARK    7  A    between atoms: C_35  and  O_36
REMARK    8  A    between atoms: C_39  and  C_40
REMARK    9  A    between atoms: C_43  and  C_44
REMARK   10  A    between atoms: C_45  and  C_46
REMARK                            x       y       z     vdW  Elec       q    Type
REMARK                         _______ _______ _______ _____ _____    ______ ____
ROOT
ATOM      1  O   UNL     1      29.418  23.853  31.238  0.00  0.00    +0.000 OA
ATOM      2  O   UNL     1      26.684  23.328  31.975  0.00  0.00    +0.000 OA
ATOM      3  O   UNL     1      29.491  25.531  28.545  0.00  0.00    +0.000 OA
ATOM      4  O   UNL     1      23.774  23.439  29.064  0.00  0.00    +0.000 OA
ATOM      5  O   UNL     1      23.663  21.557  35.188  0.00  0.00    +0.000 OA
ATOM      6  C   UNL     1      27.132  23.480  30.636  0.00  0.00    +0.000 C 
ATOM      7  C   UNL     1      28.020  22.277  30.153  0.00  0.00    +0.000 C 
ATOM      8  C   UNL     1      28.339  24.497  30.542  0.00  0.00    +0.000 C 
ATOM      9  C   UNL     1      29.280  22.439  31.011  0.00  0.00    +0.000 C 
ATOM     10  C   UNL     1      28.165  22.411  28.703  0.00  0.00    +0.000 C 
ATOM     11  C   UNL     1      27.931  23.709  28.093  0.00  0.00    +0.000 C 
ATOM     12  C   UNL     1      26.020  23.847  29.638  0.00  0.00    +0.000 C 
ATOM     13  C   UNL     1      28.699  24.717  28.992  0.00  0.00    +0.000 C 
ATOM     14  C   UNL     1      26.539  24.004  28.316  0.00  0.00    +0.000 C 
ATOM     15  C   UNL     1      30.540  21.946  30.285  0.00  0.00    +0.000 C 
ATOM     16  C   UNL     1      29.106  21.706  32.350  0.00  0.00    +0.000 C 
ATOM     17  C   UNL     1      24.653  23.411  29.915  0.00  0.00    +0.000 C 
ATOM     18  C   UNL     1      25.410  22.889  32.219  0.00  0.00    +0.000 A 
ATOM     19  C   UNL     1      24.382  22.904  31.266  0.00  0.00    +0.000 A 
ATOM     20  C   UNL     1      25.147  22.445  33.533  0.00  0.00    +0.000 A 
ATOM     21  C   UNL     1      23.095  22.451  31.600  0.00  0.00    +0.000 A 
ATOM     22  C   UNL     1      23.868  21.997  33.878  0.00  0.00    +0.000 A 
ATOM     23  C   UNL     1      22.847  22.001  32.894  0.00  0.00    +0.000 A 
ATOM     24  C   UNL     1      21.597  21.531  33.366  0.00  0.00    +0.000 C 
ATOM     25  C   UNL     1      22.313  21.140  35.638  0.00  0.00    +0.000 C 
ATOM     26  C   UNL     1      21.403  21.189  34.492  0.00  0.00    +0.000 C 
ATOM     27  C   UNL     1      21.892  22.125  36.757  0.00  0.00    +0.000 C 
ENDROOT
BRANCH  21  28
ATOM     28  O   UNL     1      22.060  22.432  30.703  0.00  0.00    +0.000 OA
ATOM     29  H   UNL     1      21.203  22.379  31.183  0.00  0.00    +0.000 HD
ENDBRANCH  21  28
BRANCH   8  30
ATOM     30  C   UNL     1      28.041  25.782  31.189  0.00  0.00    +0.000 C 
ATOM     31  C   UNL     1      27.781  27.140  31.859  0.00  0.00    +0.000 C 
BRANCH  31  32
ATOM     32  C   UNL     1      27.615  28.294  32.442  0.00  0.00    +0.000 C 
ATOM     33  C   UNL     1      28.020  29.494  31.607  0.00  0.00    +0.000 C 
BRANCH  32  35
ATOM     34  O   UNL     1      26.714  27.412  34.501  0.00  0.00    +0.000 OA
ATOM     35  C   UNL     1      27.051  28.367  33.817  0.00  0.00    +0.000 C 
BRANCH  35  36
ATOM     36  O   UNL     1      26.925  29.621  34.300  0.00  0.00    +0.000 OA
ATOM     37  H   UNL     1      26.959  30.204  33.513  0.00  0.00    +0.000 HD
ENDBRANCH  35  36
ENDBRANCH  32  35
ENDBRANCH  31  32
ENDBRANCH   8  30
BRANCH  20  38
ATOM     38  C   UNL     1      26.194  22.449  34.514  0.00  0.00    +0.000 C 
ATOM     39  C   UNL     1      27.337  22.452  35.540  0.00  0.00    +0.000 C 
BRANCH  39  40
ATOM     40  C   UNL     1      28.315  22.457  36.391  0.00  0.00    +0.000 C 
ATOM     41  C   UNL     1      28.374  21.397  37.449  0.00  0.00    +0.000 C 
ATOM     42  C   UNL     1      29.492  23.356  36.165  0.00  0.00    +0.000 C 
ENDBRANCH  39  40
ENDBRANCH  20  38
BRANCH  25  43
ATOM     43  C   UNL     1      22.442  19.771  36.172  0.00  0.00    +0.000 C 
BRANCH  43  44
ATOM     44  C   UNL     1      22.568  18.348  36.730  0.00  0.00    +0.000 C 
ATOM     45  C   UNL     1      22.693  16.923  37.287  0.00  0.00    +0.000 C 
BRANCH  45  46
ATOM     46  C   UNL     1      22.791  15.719  37.759  0.00  0.00    +0.000 C 
ATOM     47  C   UNL     1      24.085  14.976  37.626  0.00  0.00    +0.000 C 
ATOM     48  C   UNL     1      21.574  15.013  38.270  0.00  0.00    +0.000 C 
ENDBRANCH  45  46
ENDBRANCH  43  44
ENDBRANCH  25  43
TORSDOF 10
ENDMDL
