MODEL 1
REMARK VINA RESULT:      -8.0      0.000      0.000
REMARK  Name = AFLATOXIN.pdbqt.pdb
REMARK  1 active torsions:
REMARK  status: ('A' for Active; 'I' for Inactive)
REMARK    1  A    between atoms: C_15  and  O_23
REMARK                            x       y       z     vdW  Elec       q    Type
REMARK                         _______ _______ _______ _____ _____    ______ ____
ROOT
ATOM      1  O   UNL     1      39.426   1.708  10.569  0.00  0.00    +0.000 OA
ATOM      2  O   UNL     1      38.487   0.173   8.875  0.00  0.00    +0.000 OA
ATOM      3  O   UNL     1      36.483  -0.112  13.762  0.00  0.00    +0.000 OA
ATOM      4  O   UNL     1      34.844   2.193  17.869  0.00  0.00    +0.000 OA
ATOM      5  O   UNL     1      35.209  -1.196  15.271  0.00  0.00    +0.000 OA
ATOM      6  O   UNL     1      34.155   0.120  17.332  0.00  0.00    +0.000 OA
ATOM      7  C   UNL     1      38.105  -0.124  11.169  0.00  0.00    +0.000 C 
ATOM      8  C   UNL     1      38.004   0.874  12.216  0.00  0.00    +0.000 A 
ATOM      9  C   UNL     1      39.026   0.436  10.149  0.00  0.00    +0.000 C 
ATOM     10  C   UNL     1      38.840   1.918  11.807  0.00  0.00    +0.000 A 
ATOM     11  C   UNL     1      37.291   0.967  13.396  0.00  0.00    +0.000 A 
ATOM     12  C   UNL     1      37.397   2.100  14.201  0.00  0.00    +0.000 A 
ATOM     13  C   UNL     1      37.064  -0.761  10.446  0.00  0.00    +0.000 C 
ATOM     14  C   UNL     1      36.558   2.126  15.412  0.00  0.00    +0.000 A 
ATOM     15  C   UNL     1      38.287   3.129  13.782  0.00  0.00    +0.000 A 
ATOM     16  C   UNL     1      38.991   3.057  12.564  0.00  0.00    +0.000 A 
ATOM     17  C   UNL     1      36.493   3.263  16.248  0.00  0.00    +0.000 A 
ATOM     18  C   UNL     1      35.778   1.072  15.792  0.00  0.00    +0.000 A 
ATOM     19  C   UNL     1      37.444  -0.515   9.340  0.00  0.00    +0.000 C 
ATOM     20  C   UNL     1      35.615   3.160  17.432  0.00  0.00    +0.000 A 
ATOM     21  C   UNL     1      35.783  -0.162  14.961  0.00  0.00    +0.000 A 
ATOM     22  C   UNL     1      34.870   1.074  17.046  0.00  0.00    +0.000 A 
ENDROOT
BRANCH  15  23
ATOM     23  O   UNL     1      38.428   4.286  14.517  0.00  0.00    +0.000 OA
ATOM     24  C   UNL     1      39.774   4.501  14.856  0.00  0.00    +0.000 C 
ENDBRANCH  15  23
TORSDOF 1
ENDMDL
MODEL 2
REMARK VINA RESULT:      -7.5      1.561      4.349
REMARK  Name = AFLATOXIN.pdbqt.pdb
REMARK  1 active torsions:
REMARK  status: ('A' for Active; 'I' for Inactive)
REMARK    1  A    between atoms: C_15  and  O_23
REMARK                            x       y       z     vdW  Elec       q    Type
REMARK                         _______ _______ _______ _____ _____    ______ ____
ROOT
ATOM      1  O   UNL     1      39.698   4.119  11.527  0.00  0.00    +0.000 OA
ATOM      2  O   UNL     1      41.595   5.275  12.610  0.00  0.00    +0.000 OA
ATOM      3  O   UNL     1      37.593   3.770  15.724  0.00  0.00    +0.000 OA
ATOM      4  O   UNL     1      34.226   0.329  17.024  0.00  0.00    +0.000 OA
ATOM      5  O   UNL     1      36.559   3.855  17.725  0.00  0.00    +0.000 OA
ATOM      6  O   UNL     1      34.944   1.880  18.486  0.00  0.00    +0.000 OA
ATOM      7  C   UNL     1      39.538   4.975  13.695  0.00  0.00    +0.000 C 
ATOM      8  C   UNL     1      38.582   3.895  13.560  0.00  0.00    +0.000 A 
ATOM      9  C   UNL     1      40.217   5.096  12.381  0.00  0.00    +0.000 C 
ATOM     10  C   UNL     1      38.710   3.456  12.238  0.00  0.00    +0.000 A 
ATOM     11  C   UNL     1      37.689   3.282  14.419  0.00  0.00    +0.000 A 
ATOM     12  C   UNL     1      36.897   2.222  13.981  0.00  0.00    +0.000 A 
ATOM     13  C   UNL     1      40.551   5.148  14.674  0.00  0.00    +0.000 C 
ATOM     14  C   UNL     1      36.014   1.603  14.985  0.00  0.00    +0.000 A 
ATOM     15  C   UNL     1      37.018   1.825  12.619  0.00  0.00    +0.000 A 
ATOM     16  C   UNL     1      37.949   2.421  11.747  0.00  0.00    +0.000 A 
ATOM     17  C   UNL     1      35.246   0.453  14.693  0.00  0.00    +0.000 A 
ATOM     18  C   UNL     1      35.895   2.081  16.258  0.00  0.00    +0.000 A 
ATOM     19  C   UNL     1      41.481   5.296  13.938  0.00  0.00    +0.000 C 
ATOM     20  C   UNL     1      34.401  -0.069  15.786  0.00  0.00    +0.000 A 
ATOM     21  C   UNL     1      36.676   3.285  16.649  0.00  0.00    +0.000 A 
ATOM     22  C   UNL     1      34.993   1.442  17.343  0.00  0.00    +0.000 A 
ENDROOT
BRANCH  15  23
ATOM     23  O   UNL     1      36.281   0.772  12.121  0.00  0.00    +0.000 OA
ATOM     24  C   UNL     1      36.972   0.128  11.081  0.00  0.00    +0.000 C 
ENDBRANCH  15  23
TORSDOF 1
ENDMDL
MODEL 3
REMARK VINA RESULT:      -7.5     17.738     20.662
REMARK  Name = AFLATOXIN.pdbqt.pdb
REMARK  1 active torsions:
REMARK  status: ('A' for Active; 'I' for Inactive)
REMARK    1  A    between atoms: C_15  and  O_23
REMARK                            x       y       z     vdW  Elec       q    Type
REMARK                         _______ _______ _______ _____ _____    ______ ____
ROOT
ATOM      1  O   UNL     1      20.218   6.460  18.019  0.00  0.00    +0.000 OA
ATOM      2  O   UNL     1      18.333   5.076  18.819  0.00  0.00    +0.000 OA
ATOM      3  O   UNL     1      18.977   9.813  21.082  0.00  0.00    +0.000 OA
ATOM      4  O   UNL     1      19.970  14.680  20.643  0.00  0.00    +0.000 OA
ATOM      5  O   UNL     1      18.455  11.258  22.731  0.00  0.00    +0.000 OA
ATOM      6  O   UNL     1      18.781  13.876  22.375  0.00  0.00    +0.000 OA
ATOM      7  C   UNL     1      19.087   6.953  20.003  0.00  0.00    +0.000 C 
ATOM      8  C   UNL     1      19.677   8.177  19.498  0.00  0.00    +0.000 A 
ATOM      9  C   UNL     1      19.463   5.884  19.046  0.00  0.00    +0.000 C 
ATOM     10  C   UNL     1      20.360   7.801  18.337  0.00  0.00    +0.000 A 
ATOM     11  C   UNL     1      19.663   9.497  19.907  0.00  0.00    +0.000 A 
ATOM     12  C   UNL     1      20.333  10.474  19.173  0.00  0.00    +0.000 A 
ATOM     13  C   UNL     1      17.737   6.699  20.360  0.00  0.00    +0.000 C 
ATOM     14  C   UNL     1      20.215  11.859  19.663  0.00  0.00    +0.000 A 
ATOM     15  C   UNL     1      21.055  10.056  18.019  0.00  0.00    +0.000 A 
ATOM     16  C   UNL     1      21.046   8.720  17.576  0.00  0.00    +0.000 A 
ATOM     17  C   UNL     1      20.755  12.951  18.945  0.00  0.00    +0.000 A 
ATOM     18  C   UNL     1      19.565  12.181  20.819  0.00  0.00    +0.000 A 
ATOM     19  C   UNL     1      17.558   5.730  19.684  0.00  0.00    +0.000 C 
ATOM     20  C   UNL     1      20.570  14.288  19.544  0.00  0.00    +0.000 A 
ATOM     21  C   UNL     1      18.961  11.090  21.630  0.00  0.00    +0.000 A 
ATOM     22  C   UNL     1      19.406  13.626  21.351  0.00  0.00    +0.000 A 
ENDROOT
BRANCH  15  23
ATOM     23  O   UNL     1      21.724  10.970  17.235  0.00  0.00    +0.000 OA
ATOM     24  C   UNL     1      22.874  10.394  16.669  0.00  0.00    +0.000 C 
ENDBRANCH  15  23
TORSDOF 1
ENDMDL
MODEL 4
REMARK VINA RESULT:      -7.1     11.945     12.625
REMARK  Name = AFLATOXIN.pdbqt.pdb
REMARK  1 active torsions:
REMARK  status: ('A' for Active; 'I' for Inactive)
REMARK    1  A    between atoms: C_15  and  O_23
REMARK                            x       y       z     vdW  Elec       q    Type
REMARK                         _______ _______ _______ _____ _____    ______ ____
ROOT
ATOM      1  O   UNL     1      33.347  -0.034   2.932  0.00  0.00    +0.000 OA
ATOM      2  O   UNL     1      33.417  -2.358   2.096  0.00  0.00    +0.000 OA
ATOM      3  O   UNL     1      28.923  -0.751   4.377  0.00  0.00    +0.000 OA
ATOM      4  O   UNL     1      25.451   2.772   5.005  0.00  0.00    +0.000 OA
ATOM      5  O   UNL     1      26.903  -1.253   5.240  0.00  0.00    +0.000 OA
ATOM      6  O   UNL     1      24.991   0.597   5.346  0.00  0.00    +0.000 OA
ATOM      7  C   UNL     1      31.741  -1.613   3.555  0.00  0.00    +0.000 C 
ATOM      8  C   UNL     1      31.154  -0.293   3.676  0.00  0.00    +0.000 A 
ATOM      9  C   UNL     1      33.136  -1.407   3.094  0.00  0.00    +0.000 C 
ATOM     10  C   UNL     1      32.175   0.595   3.322  0.00  0.00    +0.000 A 
ATOM     11  C   UNL     1      29.901   0.179   4.018  0.00  0.00    +0.000 A 
ATOM     12  C   UNL     1      29.636   1.548   4.022  0.00  0.00    +0.000 A 
ATOM     13  C   UNL     1      31.256  -2.738   2.840  0.00  0.00    +0.000 C 
ATOM     14  C   UNL     1      28.257   1.949   4.351  0.00  0.00    +0.000 A 
ATOM     15  C   UNL     1      30.706   2.430   3.699  0.00  0.00    +0.000 A 
ATOM     16  C   UNL     1      31.975   1.956   3.316  0.00  0.00    +0.000 A 
ATOM     17  C   UNL     1      27.836   3.296   4.280  0.00  0.00    +0.000 A 
ATOM     18  C   UNL     1      27.296   1.053   4.722  0.00  0.00    +0.000 A 
ATOM     19  C   UNL     1      32.233  -2.964   2.189  0.00  0.00    +0.000 C 
ATOM     20  C   UNL     1      26.428   3.566   4.636  0.00  0.00    +0.000 A 
ATOM     21  C   UNL     1      27.655  -0.388   4.814  0.00  0.00    +0.000 A 
ATOM     22  C   UNL     1      25.834   1.438   5.054  0.00  0.00    +0.000 A 
ENDROOT
BRANCH  15  23
ATOM     23  O   UNL     1      30.511   3.794   3.663  0.00  0.00    +0.000 OA
ATOM     24  C   UNL     1      31.460   4.411   2.829  0.00  0.00    +0.000 C 
ENDBRANCH  15  23
TORSDOF 1
ENDMDL
MODEL 5
REMARK VINA RESULT:      -6.9      9.096     12.356
REMARK  Name = AFLATOXIN.pdbqt.pdb
REMARK  1 active torsions:
REMARK  status: ('A' for Active; 'I' for Inactive)
REMARK    1  A    between atoms: C_15  and  O_23
REMARK                            x       y       z     vdW  Elec       q    Type
REMARK                         _______ _______ _______ _____ _____    ______ ____
ROOT
ATOM      1  O   UNL     1      42.187  10.422  16.582  0.00  0.00    +0.000 OA
ATOM      2  O   UNL     1      40.071   9.145  16.602  0.00  0.00    +0.000 OA
ATOM      3  O   UNL     1      44.083   7.205  19.451  0.00  0.00    +0.000 OA
ATOM      4  O   UNL     1      47.884   7.970  22.587  0.00  0.00    +0.000 OA
ATOM      5  O   UNL     1      44.976   5.505  20.629  0.00  0.00    +0.000 OA
ATOM      6  O   UNL     1      46.844   5.979  22.466  0.00  0.00    +0.000 OA
ATOM      7  C   UNL     1      42.084   8.225  17.372  0.00  0.00    +0.000 C 
ATOM      8  C   UNL     1      43.209   8.885  18.005  0.00  0.00    +0.000 A 
ATOM      9  C   UNL     1      41.469   9.227  16.467  0.00  0.00    +0.000 C 
ATOM     10  C   UNL     1      43.227  10.174  17.464  0.00  0.00    +0.000 A 
ATOM     11  C   UNL     1      44.140   8.509  18.955  0.00  0.00    +0.000 A 
ATOM     12  C   UNL     1      45.116   9.407  19.384  0.00  0.00    +0.000 A 
ATOM     13  C   UNL     1      41.004   7.533  17.979  0.00  0.00    +0.000 C 
ATOM     14  C   UNL     1      46.030   8.929  20.437  0.00  0.00    +0.000 A 
ATOM     15  C   UNL     1      45.137  10.698  18.785  0.00  0.00    +0.000 A 
ATOM     16  C   UNL     1      44.172  11.101  17.842  0.00  0.00    +0.000 A 
ATOM     17  C   UNL     1      46.988   9.779  21.033  0.00  0.00    +0.000 A 
ATOM     18  C   UNL     1      45.999   7.652  20.918  0.00  0.00    +0.000 A 
ATOM     19  C   UNL     1      40.105   8.124  17.459  0.00  0.00    +0.000 C 
ATOM     20  C   UNL     1      47.844   9.177  22.075  0.00  0.00    +0.000 A 
ATOM     21  C   UNL     1      45.013   6.694  20.348  0.00  0.00    +0.000 A 
ATOM     22  C   UNL     1      46.930   7.123  22.036  0.00  0.00    +0.000 A 
ENDROOT
BRANCH  15  23
ATOM     23  O   UNL     1      46.061  11.644  19.175  0.00  0.00    +0.000 OA
ATOM     24  C   UNL     1      46.400  12.483  18.100  0.00  0.00    +0.000 C 
ENDBRANCH  15  23
TORSDOF 1
ENDMDL
MODEL 6
REMARK VINA RESULT:      -6.9     18.924     21.856
REMARK  Name = AFLATOXIN.pdbqt.pdb
REMARK  1 active torsions:
REMARK  status: ('A' for Active; 'I' for Inactive)
REMARK    1  A    between atoms: C_15  and  O_23
REMARK                            x       y       z     vdW  Elec       q    Type
REMARK                         _______ _______ _______ _____ _____    ______ ____
ROOT
ATOM      1  O   UNL     1      17.806   9.364  19.635  0.00  0.00    +0.000 OA
ATOM      2  O   UNL     1      20.006   9.701  18.561  0.00  0.00    +0.000 OA
ATOM      3  O   UNL     1      18.465   4.708  19.381  0.00  0.00    +0.000 OA
ATOM      4  O   UNL     1      14.870   1.254  19.272  0.00  0.00    +0.000 OA
ATOM      5  O   UNL     1      18.964   2.512  19.430  0.00  0.00    +0.000 OA
ATOM      6  O   UNL     1      17.043   0.691  19.135  0.00  0.00    +0.000 OA
ATOM      7  C   UNL     1      19.364   7.631  19.453  0.00  0.00    +0.000 C 
ATOM      8  C   UNL     1      18.041   7.047  19.548  0.00  0.00    +0.000 A 
ATOM      9  C   UNL     1      19.175   9.101  19.526  0.00  0.00    +0.000 C 
ATOM     10  C   UNL     1      17.171   8.133  19.686  0.00  0.00    +0.000 A 
ATOM     11  C   UNL     1      17.549   5.756  19.506  0.00  0.00    +0.000 A 
ATOM     12  C   UNL     1      16.180   5.514  19.608  0.00  0.00    +0.000 A 
ATOM     13  C   UNL     1      20.362   7.414  18.468  0.00  0.00    +0.000 C 
ATOM     14  C   UNL     1      15.752   4.109  19.501  0.00  0.00    +0.000 A 
ATOM     15  C   UNL     1      15.322   6.636  19.791  0.00  0.00    +0.000 A 
ATOM     16  C   UNL     1      15.811   7.957  19.800  0.00  0.00    +0.000 A 
ATOM     17  C   UNL     1      14.386   3.747  19.478  0.00  0.00    +0.000 A 
ATOM     18  C   UNL     1      16.635   3.073  19.398  0.00  0.00    +0.000 A 
ATOM     19  C   UNL     1      20.555   8.553  18.163  0.00  0.00    +0.000 C 
ATOM     20  C   UNL     1      14.089   2.304  19.369  0.00  0.00    +0.000 A 
ATOM     21  C   UNL     1      18.093   3.370  19.407  0.00  0.00    +0.000 A 
ATOM     22  C   UNL     1      16.218   1.588  19.264  0.00  0.00    +0.000 A 
ENDROOT
BRANCH  15  23
ATOM     23  O   UNL     1      13.956   6.474  19.879  0.00  0.00    +0.000 OA
ATOM     24  C   UNL     1      13.368   7.561  20.548  0.00  0.00    +0.000 C 
ENDBRANCH  15  23
TORSDOF 1
ENDMDL
MODEL 7
REMARK VINA RESULT:      -6.8     18.322     21.963
REMARK  Name = AFLATOXIN.pdbqt.pdb
REMARK  1 active torsions:
REMARK  status: ('A' for Active; 'I' for Inactive)
REMARK    1  A    between atoms: C_15  and  O_23
REMARK                            x       y       z     vdW  Elec       q    Type
REMARK                         _______ _______ _______ _____ _____    ______ ____
ROOT
ATOM      1  O   UNL     1      18.211  13.684  22.552  0.00  0.00    +0.000 OA
ATOM      2  O   UNL     1      17.991  15.944  21.576  0.00  0.00    +0.000 OA
ATOM      3  O   UNL     1      20.754  12.383  18.808  0.00  0.00    +0.000 OA
ATOM      4  O   UNL     1      21.250   7.727  17.091  0.00  0.00    +0.000 OA
ATOM      5  O   UNL     1      22.149  11.918  17.102  0.00  0.00    +0.000 OA
ATOM      6  O   UNL     1      22.220   9.471  16.053  0.00  0.00    +0.000 OA
ATOM      7  C   UNL     1      19.557  14.394  20.778  0.00  0.00    +0.000 C 
ATOM      8  C   UNL     1      19.473  12.948  20.736  0.00  0.00    +0.000 A 
ATOM      9  C   UNL     1      18.756  14.823  21.950  0.00  0.00    +0.000 C 
ATOM     10  C   UNL     1      18.686  12.596  21.837  0.00  0.00    +0.000 A 
ATOM     11  C   UNL     1      19.961  11.976  19.883  0.00  0.00    +0.000 A 
ATOM     12  C   UNL     1      19.682  10.629  20.109  0.00  0.00    +0.000 A 
ATOM     13  C   UNL     1      19.276  15.330  19.749  0.00  0.00    +0.000 C 
ATOM     14  C   UNL     1      20.204   9.674  19.116  0.00  0.00    +0.000 A 
ATOM     15  C   UNL     1      18.914  10.296  21.261  0.00  0.00    +0.000 A 
ATOM     16  C   UNL     1      18.384  11.282  22.116  0.00  0.00    +0.000 A 
ATOM     17  C   UNL     1      19.895   8.296  19.173  0.00  0.00    +0.000 A 
ATOM     18  C   UNL     1      20.995  10.055  18.070  0.00  0.00    +0.000 A 
ATOM     19  C   UNL     1      18.499  16.015  20.346  0.00  0.00    +0.000 C 
ATOM     20  C   UNL     1      20.482   7.446  18.118  0.00  0.00    +0.000 A 
ATOM     21  C   UNL     1      21.361  11.491  17.933  0.00  0.00    +0.000 A 
ATOM     22  C   UNL     1      21.543   9.082  16.998  0.00  0.00    +0.000 A 
ENDROOT
BRANCH  15  23
ATOM     23  O   UNL     1      18.583   8.987  21.537  0.00  0.00    +0.000 OA
ATOM     24  C   UNL     1      17.188   8.831  21.609  0.00  0.00    +0.000 C 
ENDBRANCH  15  23
TORSDOF 1
ENDMDL
MODEL 8
REMARK VINA RESULT:      -6.5     11.742     12.925
REMARK  Name = AFLATOXIN.pdbqt.pdb
REMARK  1 active torsions:
REMARK  status: ('A' for Active; 'I' for Inactive)
REMARK    1  A    between atoms: C_15  and  O_23
REMARK                            x       y       z     vdW  Elec       q    Type
REMARK                         _______ _______ _______ _____ _____    ______ ____
ROOT
ATOM      1  O   UNL     1      34.197   3.029   2.343  0.00  0.00    +0.000 OA
ATOM      2  O   UNL     1      34.043   5.485   2.573  0.00  0.00    +0.000 OA
ATOM      3  O   UNL     1      29.551   2.731   3.050  0.00  0.00    +0.000 OA
ATOM      4  O   UNL     1      27.120  -1.237   4.841  0.00  0.00    +0.000 OA
ATOM      5  O   UNL     1      27.302   2.703   3.164  0.00  0.00    +0.000 OA
ATOM      6  O   UNL     1      26.042   0.672   4.338  0.00  0.00    +0.000 OA
ATOM      7  C   UNL     1      32.145   4.145   2.257  0.00  0.00    +0.000 C 
ATOM      8  C   UNL     1      31.906   2.782   2.689  0.00  0.00    +0.000 A 
ATOM      9  C   UNL     1      33.608   4.259   2.034  0.00  0.00    +0.000 C 
ATOM     10  C   UNL     1      33.164   2.171   2.685  0.00  0.00    +0.000 A 
ATOM     11  C   UNL     1      30.784   2.076   3.079  0.00  0.00    +0.000 A 
ATOM     12  C   UNL     1      30.887   0.741   3.469  0.00  0.00    +0.000 A 
ATOM     13  C   UNL     1      31.750   5.357   2.880  0.00  0.00    +0.000 C 
ATOM     14  C   UNL     1      29.643   0.090   3.916  0.00  0.00    +0.000 A 
ATOM     15  C   UNL     1      32.173   0.133   3.415  0.00  0.00    +0.000 A 
ATOM     16  C   UNL     1      33.326   0.855   3.052  0.00  0.00    +0.000 A 
ATOM     17  C   UNL     1      29.636  -1.222   4.441  0.00  0.00    +0.000 A 
ATOM     18  C   UNL     1      28.428   0.712   3.876  0.00  0.00    +0.000 A 
ATOM     19  C   UNL     1      32.822   5.883   2.933  0.00  0.00    +0.000 C 
ATOM     20  C   UNL     1      28.324  -1.760   4.852  0.00  0.00    +0.000 A 
ATOM     21  C   UNL     1      28.350   2.100   3.345  0.00  0.00    +0.000 A 
ATOM     22  C   UNL     1      27.107   0.065   4.356  0.00  0.00    +0.000 A 
ENDROOT
BRANCH  15  23
ATOM     23  O   UNL     1      32.353  -1.177   3.805  0.00  0.00    +0.000 OA
ATOM     24  C   UNL     1      33.237  -1.838   2.936  0.00  0.00    +0.000 C 
ENDBRANCH  15  23
TORSDOF 1
ENDMDL
MODEL 9
REMARK VINA RESULT:      -6.5     12.106     13.656
REMARK  Name = AFLATOXIN.pdbqt.pdb
REMARK  1 active torsions:
REMARK  status: ('A' for Active; 'I' for Inactive)
REMARK    1  A    between atoms: C_15  and  O_23
REMARK                            x       y       z     vdW  Elec       q    Type
REMARK                         _______ _______ _______ _____ _____    ______ ____
ROOT
ATOM      1  O   UNL     1      30.585   2.966   3.393  0.00  0.00    +0.000 OA
ATOM      2  O   UNL     1      31.854   0.913   2.863  0.00  0.00    +0.000 OA
ATOM      3  O   UNL     1      27.322   0.325   5.527  0.00  0.00    +0.000 OA
ATOM      4  O   UNL     1      22.535   1.561   6.177  0.00  0.00    +0.000 OA
ATOM      5  O   UNL     1      25.936  -0.988   6.723  0.00  0.00    +0.000 OA
ATOM      6  O   UNL     1      23.337  -0.427   6.857  0.00  0.00    +0.000 OA
ATOM      7  C   UNL     1      30.115   0.928   4.435  0.00  0.00    +0.000 C 
ATOM      8  C   UNL     1      28.917   1.742   4.465  0.00  0.00    +0.000 A 
ATOM      9  C   UNL     1      31.154   1.743   3.759  0.00  0.00    +0.000 C 
ATOM     10  C   UNL     1      29.280   2.949   3.859  0.00  0.00    +0.000 A 
ATOM     11  C   UNL     1      27.625   1.545   4.916  0.00  0.00    +0.000 A 
ATOM     12  C   UNL     1      26.666   2.546   4.781  0.00  0.00    +0.000 A 
ATOM     13  C   UNL     1      30.278  -0.394   3.946  0.00  0.00    +0.000 C 
ATOM     14  C   UNL     1      25.306   2.220   5.246  0.00  0.00    +0.000 A 
ATOM     15  C   UNL     1      27.074   3.780   4.199  0.00  0.00    +0.000 A 
ATOM     16  C   UNL     1      28.378   3.978   3.705  0.00  0.00    +0.000 A 
ATOM     17  C   UNL     1      24.223   3.109   5.061  0.00  0.00    +0.000 A 
ATOM     18  C   UNL     1      24.999   1.041   5.861  0.00  0.00    +0.000 A 
ATOM     19  C   UNL     1      31.189  -0.192   3.199  0.00  0.00    +0.000 C 
ATOM     20  C   UNL     1      22.911   2.664   5.574  0.00  0.00    +0.000 A 
ATOM     21  C   UNL     1      26.082   0.046   6.087  0.00  0.00    +0.000 A 
ATOM     22  C   UNL     1      23.578   0.659   6.343  0.00  0.00    +0.000 A 
ENDROOT
BRANCH  15  23
ATOM     23  O   UNL     1      26.174   4.807   4.015  0.00  0.00    +0.000 OA
ATOM     24  C   UNL     1      26.609   5.974   4.666  0.00  0.00    +0.000 C 
ENDBRANCH  15  23
TORSDOF 1
ENDMDL
