MODEL 1
REMARK VINA RESULT:      -8.4      0.000      0.000
REMARK  Name = AZD4547.pdbqt.pdb
REMARK  6 active torsions:
REMARK  status: ('A' for Active; 'I' for Inactive)
REMARK    1  A    between atoms: C_3  and  C_23
REMARK    2  A    between atoms: C_8  and  C_11
REMARK    3  A    between atoms: C_12  and  C_13
REMARK    4  A    between atoms: C_15  and  O_19
REMARK    5  A    between atoms: C_17  and  O_21
REMARK    6  A    between atoms: C_26  and  N_29
REMARK                            x       y       z     vdW  Elec       q    Type
REMARK                         _______ _______ _______ _____ _____    ______ ____
ROOT
ATOM      1  O   UNL     1      26.653  -0.484   6.637  0.00  0.00    +0.000 OA
ATOM      2  N   UNL     1      25.903  -1.705   4.818  0.00  0.00    +0.000 N 
ATOM      3  C   UNL     1      26.815  -0.941   5.511  0.00  0.00    +0.000 C 
ATOM      4  H   UNL     1      26.079  -2.057   3.890  0.00  0.00    +0.000 HD
ATOM      5  C   UNL     1      24.670  -2.071   5.302  0.00  0.00    +0.000 A 
ATOM      6  N   UNL     1      23.870  -2.816   4.532  0.00  0.00    +0.000 NA
ATOM      7  N   UNL     1      22.771  -2.990   5.289  0.00  0.00    +0.000 N 
ATOM      8  C   UNL     1      22.844  -2.388   6.509  0.00  0.00    +0.000 A 
ATOM      9  H   UNL     1      22.003  -3.536   4.911  0.00  0.00    +0.000 HD
ATOM     10  C   UNL     1      24.072  -1.776   6.552  0.00  0.00    +0.000 A 
ENDROOT
BRANCH   3  11
ATOM     11  C   UNL     1      28.092  -0.660   4.808  0.00  0.00    +0.000 A 
ATOM     12  C   UNL     1      29.049  -1.671   4.738  0.00  0.00    +0.000 A 
ATOM     13  C   UNL     1      30.260  -1.444   4.087  0.00  0.00    +0.000 A 
ATOM     14  C   UNL     1      30.549  -0.202   3.507  0.00  0.00    +0.000 A 
ATOM     15  C   UNL     1      29.568   0.797   3.571  0.00  0.00    +0.000 A 
ATOM     16  C   UNL     1      28.354   0.576   4.221  0.00  0.00    +0.000 A 
BRANCH  14  17
ATOM     17  N   UNL     1      31.760   0.013   2.808  0.00  0.00    +0.000 N 
ATOM     18  C   UNL     1      31.690   0.470   1.409  0.00  0.00    +0.000 C 
ATOM     19  C   UNL     1      32.257   0.045   0.171  0.00  0.00    +0.000 C 
ATOM     20  N   UNL     1      33.112  -1.098   0.218  0.00  0.00    +0.000 N 
ATOM     21  C   UNL     1      31.962   0.718  -1.122  0.00  0.00    +0.000 C 
ATOM     22  C   UNL     1      33.328  -1.717   1.486  0.00  0.00    +0.000 C 
ATOM     23  H   UNL     1      33.529  -1.469  -0.621  0.00  0.00    +0.000 HD
ATOM     24  C   UNL     1      32.664  -1.132   2.604  0.00  0.00    +0.000 C 
ATOM     25  C   UNL     1      34.169  -2.937   1.601  0.00  0.00    +0.000 C 
ENDBRANCH  14  17
ENDBRANCH   3  11
BRANCH   8  26
ATOM     26  C   UNL     1      21.832  -2.417   7.498  0.00  0.00    +0.000 C 
ATOM     27  C   UNL     1      20.733  -2.450   8.566  0.00  0.00    +0.000 C 
BRANCH  27  28
ATOM     28  C   UNL     1      19.707  -2.486   9.553  0.00  0.00    +0.000 A 
ATOM     29  C   UNL     1      19.376  -3.691  10.167  0.00  0.00    +0.000 A 
ATOM     30  C   UNL     1      18.374  -3.731  11.139  0.00  0.00    +0.000 A 
ATOM     31  C   UNL     1      17.713  -2.552  11.490  0.00  0.00    +0.000 A 
ATOM     32  C   UNL     1      18.037  -1.343  10.873  0.00  0.00    +0.000 A 
ATOM     33  C   UNL     1      19.041  -1.316   9.903  0.00  0.00    +0.000 A 
BRANCH  30  34
ATOM     34  O   UNL     1      17.974  -4.859  11.812  0.00  0.00    +0.000 OA
ATOM     35  C   UNL     1      18.864  -5.324  12.788  0.00  0.00    +0.000 C 
ENDBRANCH  30  34
BRANCH  32  36
ATOM     36  O   UNL     1      17.323  -0.250  11.297  0.00  0.00    +0.000 OA
ATOM     37  C   UNL     1      17.969   0.985  11.153  0.00  0.00    +0.000 C 
ENDBRANCH  32  36
ENDBRANCH  27  28
ENDBRANCH   8  26
TORSDOF 6
ENDMDL
MODEL 2
REMARK VINA RESULT:      -8.2      2.054      2.549
REMARK  Name = AZD4547.pdbqt.pdb
REMARK  6 active torsions:
REMARK  status: ('A' for Active; 'I' for Inactive)
REMARK    1  A    between atoms: C_3  and  C_23
REMARK    2  A    between atoms: C_8  and  C_11
REMARK    3  A    between atoms: C_12  and  C_13
REMARK    4  A    between atoms: C_15  and  O_19
REMARK    5  A    between atoms: C_17  and  O_21
REMARK    6  A    between atoms: C_26  and  N_29
REMARK                            x       y       z     vdW  Elec       q    Type
REMARK                         _______ _______ _______ _____ _____    ______ ____
ROOT
ATOM      1  O   UNL     1      25.934   0.832   6.165  0.00  0.00    +0.000 OA
ATOM      2  N   UNL     1      25.771  -1.453   5.825  0.00  0.00    +0.000 N 
ATOM      3  C   UNL     1      26.395  -0.228   5.755  0.00  0.00    +0.000 C 
ATOM      4  H   UNL     1      26.189  -2.299   5.470  0.00  0.00    +0.000 HD
ATOM      5  C   UNL     1      24.530  -1.662   6.378  0.00  0.00    +0.000 A 
ATOM      6  N   UNL     1      24.028  -2.902   6.385  0.00  0.00    +0.000 NA
ATOM      7  N   UNL     1      22.831  -2.757   6.983  0.00  0.00    +0.000 N 
ATOM      8  C   UNL     1      22.556  -1.475   7.356  0.00  0.00    +0.000 A 
ATOM      9  H   UNL     1      22.248  -3.578   7.107  0.00  0.00    +0.000 HD
ATOM     10  C   UNL     1      23.644  -0.731   6.975  0.00  0.00    +0.000 A 
ENDROOT
BRANCH   3  11
ATOM     11  C   UNL     1      27.737  -0.219   5.121  0.00  0.00    +0.000 A 
ATOM     12  C   UNL     1      28.352  -1.440   4.846  0.00  0.00    +0.000 A 
ATOM     13  C   UNL     1      29.612  -1.470   4.252  0.00  0.00    +0.000 A 
ATOM     14  C   UNL     1      30.292  -0.288   3.934  0.00  0.00    +0.000 A 
ATOM     15  C   UNL     1      29.651   0.930   4.201  0.00  0.00    +0.000 A 
ATOM     16  C   UNL     1      28.390   0.968   4.795  0.00  0.00    +0.000 A 
BRANCH  14  17
ATOM     17  N   UNL     1      31.552  -0.320   3.291  0.00  0.00    +0.000 N 
ATOM     18  C   UNL     1      31.651   0.204   1.918  0.00  0.00    +0.000 C 
ATOM     19  C   UNL     1      32.164  -0.280   0.679  0.00  0.00    +0.000 C 
ATOM     20  N   UNL     1      32.738  -1.588   0.692  0.00  0.00    +0.000 N 
ATOM     21  C   UNL     1      32.089   0.501  -0.584  0.00  0.00    +0.000 C 
ATOM     22  C   UNL     1      32.750  -2.298   1.930  0.00  0.00    +0.000 C 
ATOM     23  H   UNL     1      33.100  -2.005  -0.151  0.00  0.00    +0.000 HD
ATOM     24  C   UNL     1      32.184  -1.630   3.056  0.00  0.00    +0.000 C 
ATOM     25  C   UNL     1      33.291  -3.681   2.008  0.00  0.00    +0.000 C 
ENDBRANCH  14  17
ENDBRANCH   3  11
BRANCH   8  26
ATOM     26  C   UNL     1      21.372  -1.048   8.005  0.00  0.00    +0.000 C 
ATOM     27  C   UNL     1      20.093  -0.582   8.709  0.00  0.00    +0.000 C 
BRANCH  27  28
ATOM     28  C   UNL     1      18.909  -0.143   9.368  0.00  0.00    +0.000 A 
ATOM     29  C   UNL     1      17.726  -0.003   8.648  0.00  0.00    +0.000 A 
ATOM     30  C   UNL     1      16.561   0.423   9.290  0.00  0.00    +0.000 A 
ATOM     31  C   UNL     1      16.596   0.701  10.659  0.00  0.00    +0.000 A 
ATOM     32  C   UNL     1      17.781   0.567  11.383  0.00  0.00    +0.000 A 
ATOM     33  C   UNL     1      18.939   0.141  10.730  0.00  0.00    +0.000 A 
BRANCH  30  34
ATOM     34  O   UNL     1      15.341   0.587   8.682  0.00  0.00    +0.000 OA
ATOM     35  C   UNL     1      14.242   0.656   9.546  0.00  0.00    +0.000 C 
ENDBRANCH  30  34
BRANCH  32  36
ATOM     36  O   UNL     1      17.697   0.867  12.720  0.00  0.00    +0.000 OA
ATOM     37  C   UNL     1      16.459   1.365  13.148  0.00  0.00    +0.000 C 
ENDBRANCH  32  36
ENDBRANCH  27  28
ENDBRANCH   8  26
TORSDOF 6
ENDMDL
MODEL 3
REMARK VINA RESULT:      -7.9      2.109      2.651
REMARK  Name = AZD4547.pdbqt.pdb
REMARK  6 active torsions:
REMARK  status: ('A' for Active; 'I' for Inactive)
REMARK    1  A    between atoms: C_3  and  C_23
REMARK    2  A    between atoms: C_8  and  C_11
REMARK    3  A    between atoms: C_12  and  C_13
REMARK    4  A    between atoms: C_15  and  O_19
REMARK    5  A    between atoms: C_17  and  O_21
REMARK    6  A    between atoms: C_26  and  N_29
REMARK                            x       y       z     vdW  Elec       q    Type
REMARK                         _______ _______ _______ _____ _____    ______ ____
ROOT
ATOM      1  O   UNL     1      26.017   0.722   5.543  0.00  0.00    +0.000 OA
ATOM      2  N   UNL     1      25.952  -1.592   5.612  0.00  0.00    +0.000 N 
ATOM      3  C   UNL     1      26.543  -0.372   5.368  0.00  0.00    +0.000 C 
ATOM      4  H   UNL     1      26.424  -2.468   5.450  0.00  0.00    +0.000 HD
ATOM      5  C   UNL     1      24.677  -1.754   6.097  0.00  0.00    +0.000 A 
ATOM      6  N   UNL     1      24.213  -2.993   6.291  0.00  0.00    +0.000 NA
ATOM      7  N   UNL     1      22.967  -2.798   6.760  0.00  0.00    +0.000 N 
ATOM      8  C   UNL     1      22.623  -1.484   6.872  0.00  0.00    +0.000 A 
ATOM      9  H   UNL     1      22.401  -3.609   6.986  0.00  0.00    +0.000 HD
ATOM     10  C   UNL     1      23.717  -0.772   6.446  0.00  0.00    +0.000 A 
ENDROOT
BRANCH   3  11
ATOM     11  C   UNL     1      27.932  -0.416   4.848  0.00  0.00    +0.000 A 
ATOM     12  C   UNL     1      28.580  -1.649   4.783  0.00  0.00    +0.000 A 
ATOM     13  C   UNL     1      29.884  -1.729   4.301  0.00  0.00    +0.000 A 
ATOM     14  C   UNL     1      30.576  -0.583   3.888  0.00  0.00    +0.000 A 
ATOM     15  C   UNL     1      29.903   0.645   3.942  0.00  0.00    +0.000 A 
ATOM     16  C   UNL     1      28.597   0.732   4.424  0.00  0.00    +0.000 A 
BRANCH  14  17
ATOM     17  N   UNL     1      31.884  -0.672   3.356  0.00  0.00    +0.000 N 
ATOM     18  C   UNL     1      32.155  -0.044   2.052  0.00  0.00    +0.000 C 
ATOM     19  C   UNL     1      32.744  -0.464   0.823  0.00  0.00    +0.000 C 
ATOM     20  N   UNL     1      33.207  -1.814   0.765  0.00  0.00    +0.000 N 
ATOM     21  C   UNL     1      32.851   0.425  -0.364  0.00  0.00    +0.000 C 
ATOM     22  C   UNL     1      33.045  -2.625   1.928  0.00  0.00    +0.000 C 
ATOM     23  H   UNL     1      33.613  -2.187  -0.079  0.00  0.00    +0.000 HD
ATOM     24  C   UNL     1      32.429  -2.007   3.057  0.00  0.00    +0.000 C 
ATOM     25  C   UNL     1      33.464  -4.051   1.924  0.00  0.00    +0.000 C 
ENDBRANCH  14  17
ENDBRANCH   3  11
BRANCH   8  26
ATOM     26  C   UNL     1      21.378  -1.001   7.339  0.00  0.00    +0.000 C 
ATOM     27  C   UNL     1      20.029  -0.475   7.842  0.00  0.00    +0.000 C 
BRANCH  27  28
ATOM     28  C   UNL     1      18.776   0.022   8.304  0.00  0.00    +0.000 A 
ATOM     29  C   UNL     1      18.507   0.064   9.669  0.00  0.00    +0.000 A 
ATOM     30  C   UNL     1      17.282   0.554  10.128  0.00  0.00    +0.000 A 
ATOM     31  C   UNL     1      16.336   1.004   9.205  0.00  0.00    +0.000 A 
ATOM     32  C   UNL     1      16.599   0.958   7.835  0.00  0.00    +0.000 A 
ATOM     33  C   UNL     1      17.827   0.466   7.389  0.00  0.00    +0.000 A 
BRANCH  30  34
ATOM     34  O   UNL     1      16.916   0.648  11.448  0.00  0.00    +0.000 OA
ATOM     35  C   UNL     1      17.955   0.490  12.372  0.00  0.00    +0.000 C 
ENDBRANCH  30  34
BRANCH  32  36
ATOM     36  O   UNL     1      15.597   1.427   7.022  0.00  0.00    +0.000 OA
ATOM     37  C   UNL     1      14.292   1.199   7.482  0.00  0.00    +0.000 C 
ENDBRANCH  32  36
ENDBRANCH  27  28
ENDBRANCH   8  26
TORSDOF 6
ENDMDL
MODEL 4
REMARK VINA RESULT:      -7.3      3.184      4.350
REMARK  Name = AZD4547.pdbqt.pdb
REMARK  6 active torsions:
REMARK  status: ('A' for Active; 'I' for Inactive)
REMARK    1  A    between atoms: C_3  and  C_23
REMARK    2  A    between atoms: C_8  and  C_11
REMARK    3  A    between atoms: C_12  and  C_13
REMARK    4  A    between atoms: C_15  and  O_19
REMARK    5  A    between atoms: C_17  and  O_21
REMARK    6  A    between atoms: C_26  and  N_29
REMARK                            x       y       z     vdW  Elec       q    Type
REMARK                         _______ _______ _______ _____ _____    ______ ____
ROOT
ATOM      1  O   UNL     1      26.206   0.797   4.091  0.00  0.00    +0.000 OA
ATOM      2  N   UNL     1      26.340  -0.816   5.748  0.00  0.00    +0.000 N 
ATOM      3  C   UNL     1      26.842  -0.034   4.731  0.00  0.00    +0.000 C 
ATOM      4  H   UNL     1      26.902  -1.490   6.245  0.00  0.00    +0.000 HD
ATOM      5  C   UNL     1      25.042  -0.769   6.195  0.00  0.00    +0.000 A 
ATOM      6  N   UNL     1      24.673  -1.583   7.191  0.00  0.00    +0.000 NA
ATOM      7  N   UNL     1      23.374  -1.288   7.378  0.00  0.00    +0.000 N 
ATOM      8  C   UNL     1      22.905  -0.319   6.543  0.00  0.00    +0.000 A 
ATOM      9  H   UNL     1      22.862  -1.787   8.098  0.00  0.00    +0.000 HD
ATOM     10  C   UNL     1      23.968   0.043   5.754  0.00  0.00    +0.000 A 
ENDROOT
BRANCH   3  11
ATOM     11  C   UNL     1      28.275  -0.237   4.403  0.00  0.00    +0.000 A 
ATOM     12  C   UNL     1      28.800  -1.526   4.485  0.00  0.00    +0.000 A 
ATOM     13  C   UNL     1      30.141  -1.754   4.184  0.00  0.00    +0.000 A 
ATOM     14  C   UNL     1      30.990  -0.704   3.811  0.00  0.00    +0.000 A 
ATOM     15  C   UNL     1      30.440   0.582   3.717  0.00  0.00    +0.000 A 
ATOM     16  C   UNL     1      29.098   0.817   4.016  0.00  0.00    +0.000 A 
BRANCH  14  17
ATOM     17  N   UNL     1      32.340  -0.945   3.463  0.00  0.00    +0.000 N 
ATOM     18  C   UNL     1      32.901  -0.236   2.300  0.00  0.00    +0.000 C 
ATOM     19  C   UNL     1      33.611  -0.616   1.123  0.00  0.00    +0.000 C 
ATOM     20  N   UNL     1      33.882  -2.009   0.962  0.00  0.00    +0.000 N 
ATOM     21  C   UNL     1      34.031   0.363   0.085  0.00  0.00    +0.000 C 
ATOM     22  C   UNL     1      33.424  -2.900   1.979  0.00  0.00    +0.000 C 
ATOM     23  H   UNL     1      34.360  -2.353   0.144  0.00  0.00    +0.000 HD
ATOM     24  C   UNL     1      32.731  -2.312   3.078  0.00  0.00    +0.000 C 
ATOM     25  C   UNL     1      33.631  -4.366   1.854  0.00  0.00    +0.000 C 
ENDBRANCH  14  17
ENDBRANCH   3  11
BRANCH   8  26
ATOM     26  C   UNL     1      21.581   0.181   6.530  0.00  0.00    +0.000 C 
ATOM     27  C   UNL     1      20.146   0.718   6.518  0.00  0.00    +0.000 C 
BRANCH  27  28
ATOM     28  C   UNL     1      18.809   1.210   6.512  0.00  0.00    +0.000 A 
ATOM     29  C   UNL     1      18.527   2.448   5.942  0.00  0.00    +0.000 A 
ATOM     30  C   UNL     1      17.217   2.933   5.929  0.00  0.00    +0.000 A 
ATOM     31  C   UNL     1      16.196   2.161   6.488  0.00  0.00    +0.000 A 
ATOM     32  C   UNL     1      16.474   0.922   7.065  0.00  0.00    +0.000 A 
ATOM     33  C   UNL     1      17.787   0.448   7.072  0.00  0.00    +0.000 A 
BRANCH  30  34
ATOM     34  O   UNL     1      16.827   4.133   5.388  0.00  0.00    +0.000 OA
ATOM     35  C   UNL     1      15.762   4.767   6.037  0.00  0.00    +0.000 C 
ENDBRANCH  30  34
BRANCH  32  36
ATOM     36  O   UNL     1      15.393   0.252   7.582  0.00  0.00    +0.000 OA
ATOM     37  C   UNL     1      15.540  -1.138   7.689  0.00  0.00    +0.000 C 
ENDBRANCH  32  36
ENDBRANCH  27  28
ENDBRANCH   8  26
TORSDOF 6
ENDMDL
MODEL 5
REMARK VINA RESULT:      -7.2     18.163     24.523
REMARK  Name = AZD4547.pdbqt.pdb
REMARK  6 active torsions:
REMARK  status: ('A' for Active; 'I' for Inactive)
REMARK    1  A    between atoms: C_3  and  C_23
REMARK    2  A    between atoms: C_8  and  C_11
REMARK    3  A    between atoms: C_12  and  C_13
REMARK    4  A    between atoms: C_15  and  O_19
REMARK    5  A    between atoms: C_17  and  O_21
REMARK    6  A    between atoms: C_26  and  N_29
REMARK                            x       y       z     vdW  Elec       q    Type
REMARK                         _______ _______ _______ _____ _____    ______ ____
ROOT
ATOM      1  O   UNL     1      45.549  -2.293  11.731  0.00  0.00    +0.000 OA
ATOM      2  N   UNL     1      44.309  -4.123  12.420  0.00  0.00    +0.000 N 
ATOM      3  C   UNL     1      44.494  -2.915  11.787  0.00  0.00    +0.000 C 
ATOM      4  H   UNL     1      43.419  -4.597  12.442  0.00  0.00    +0.000 HD
ATOM      5  C   UNL     1      45.296  -4.812  13.083  0.00  0.00    +0.000 A 
ATOM      6  N   UNL     1      44.992  -5.978  13.662  0.00  0.00    +0.000 NA
ATOM      7  N   UNL     1      46.156  -6.376  14.208  0.00  0.00    +0.000 N 
ATOM      8  C   UNL     1      47.186  -5.510  13.995  0.00  0.00    +0.000 A 
ATOM      9  H   UNL     1      46.179  -7.255  14.714  0.00  0.00    +0.000 HD
ATOM     10  C   UNL     1      46.660  -4.474  13.264  0.00  0.00    +0.000 A 
ENDROOT
BRANCH   3  11
ATOM     11  C   UNL     1      43.296  -2.339  11.126  0.00  0.00    +0.000 A 
ATOM     12  C   UNL     1      42.689  -1.223  11.702  0.00  0.00    +0.000 A 
ATOM     13  C   UNL     1      41.563  -0.656  11.109  0.00  0.00    +0.000 A 
ATOM     14  C   UNL     1      41.009  -1.195   9.941  0.00  0.00    +0.000 A 
ATOM     15  C   UNL     1      41.643  -2.305   9.366  0.00  0.00    +0.000 A 
ATOM     16  C   UNL     1      42.771  -2.878   9.954  0.00  0.00    +0.000 A 
BRANCH  14  17
ATOM     17  N   UNL     1      39.893  -0.591   9.316  0.00  0.00    +0.000 N 
ATOM     18  C   UNL     1      39.313   0.615   9.931  0.00  0.00    +0.000 C 
ATOM     19  C   UNL     1      38.007   1.028  10.328  0.00  0.00    +0.000 C 
ATOM     20  N   UNL     1      36.948   0.095  10.107  0.00  0.00    +0.000 N 
ATOM     21  C   UNL     1      37.738   2.341  10.971  0.00  0.00    +0.000 C 
ATOM     22  C   UNL     1      37.278  -1.161   9.516  0.00  0.00    +0.000 C 
ATOM     23  H   UNL     1      36.002   0.309  10.384  0.00  0.00    +0.000 HD
ATOM     24  C   UNL     1      38.651  -1.374   9.193  0.00  0.00    +0.000 C 
ATOM     25  C   UNL     1      36.234  -2.197   9.299  0.00  0.00    +0.000 C 
ENDBRANCH  14  17
ENDBRANCH   3  11
BRANCH   8  26
ATOM     26  C   UNL     1      48.512  -5.687  14.456  0.00  0.00    +0.000 C 
ATOM     27  C   UNL     1      49.947  -5.879  14.959  0.00  0.00    +0.000 C 
BRANCH  27  28
ATOM     28  C   UNL     1      51.278  -6.060  15.434  0.00  0.00    +0.000 A 
ATOM     29  C   UNL     1      51.984  -4.977  15.950  0.00  0.00    +0.000 A 
ATOM     30  C   UNL     1      53.287  -5.150  16.422  0.00  0.00    +0.000 A 
ATOM     31  C   UNL     1      53.869  -6.418  16.376  0.00  0.00    +0.000 A 
ATOM     32  C   UNL     1      53.167  -7.506  15.855  0.00  0.00    +0.000 A 
ATOM     33  C   UNL     1      51.865  -7.321  15.386  0.00  0.00    +0.000 A 
BRANCH  30  34
ATOM     34  O   UNL     1      54.069  -4.156  16.956  0.00  0.00    +0.000 OA
ATOM     35  C   UNL     1      53.828  -3.860  18.303  0.00  0.00    +0.000 C 
ENDBRANCH  30  34
BRANCH  32  36
ATOM     36  O   UNL     1      53.839  -8.704  15.861  0.00  0.00    +0.000 OA
ATOM     37  C   UNL     1      53.042  -9.842  15.674  0.00  0.00    +0.000 C 
ENDBRANCH  32  36
ENDBRANCH  27  28
ENDBRANCH   8  26
TORSDOF 6
ENDMDL
MODEL 6
REMARK VINA RESULT:      -7.2     35.106     41.516
REMARK  Name = AZD4547.pdbqt.pdb
REMARK  6 active torsions:
REMARK  status: ('A' for Active; 'I' for Inactive)
REMARK    1  A    between atoms: C_3  and  C_23
REMARK    2  A    between atoms: C_8  and  C_11
REMARK    3  A    between atoms: C_12  and  C_13
REMARK    4  A    between atoms: C_15  and  O_19
REMARK    5  A    between atoms: C_17  and  O_21
REMARK    6  A    between atoms: C_26  and  N_29
REMARK                            x       y       z     vdW  Elec       q    Type
REMARK                         _______ _______ _______ _____ _____    ______ ____
ROOT
ATOM      1  O   UNL     1      19.506  -8.553  44.992  0.00  0.00    +0.000 OA
ATOM      2  N   UNL     1      21.694  -8.556  44.234  0.00  0.00    +0.000 N 
ATOM      3  C   UNL     1      20.330  -8.432  44.092  0.00  0.00    +0.000 C 
ATOM      4  H   UNL     1      22.334  -8.451  43.462  0.00  0.00    +0.000 HD
ATOM      5  C   UNL     1      22.329  -8.829  45.422  0.00  0.00    +0.000 A 
ATOM      6  N   UNL     1      23.663  -8.927  45.431  0.00  0.00    +0.000 NA
ATOM      7  N   UNL     1      23.954  -9.194  46.718  0.00  0.00    +0.000 N 
ATOM      8  C   UNL     1      22.857  -9.268  47.524  0.00  0.00    +0.000 A 
ATOM      9  H   UNL     1      24.926  -9.314  46.981  0.00  0.00    +0.000 HD
ATOM     10  C   UNL     1      21.777  -9.035  46.710  0.00  0.00    +0.000 A 
ENDROOT
BRANCH   3  11
ATOM     11  C   UNL     1      19.845  -8.131  42.722  0.00  0.00    +0.000 A 
ATOM     12  C   UNL     1      18.643  -8.699  42.301  0.00  0.00    +0.000 A 
ATOM     13  C   UNL     1      18.157  -8.439  41.022  0.00  0.00    +0.000 A 
ATOM     14  C   UNL     1      18.863  -7.620  40.131  0.00  0.00    +0.000 A 
ATOM     15  C   UNL     1      20.059  -7.042  40.578  0.00  0.00    +0.000 A 
ATOM     16  C   UNL     1      20.551  -7.299  41.857  0.00  0.00    +0.000 A 
BRANCH  14  17
ATOM     17  N   UNL     1      18.346  -7.321  38.848  0.00  0.00    +0.000 N 
ATOM     18  C   UNL     1      17.552  -6.091  38.682  0.00  0.00    +0.000 C 
ATOM     19  C   UNL     1      16.276  -5.770  38.133  0.00  0.00    +0.000 C 
ATOM     20  N   UNL     1      15.522  -6.856  37.594  0.00  0.00    +0.000 N 
ATOM     21  C   UNL     1      15.721  -4.391  38.140  0.00  0.00    +0.000 C 
ATOM     22  C   UNL     1      16.098  -8.161  37.648  0.00  0.00    +0.000 C 
ATOM     23  H   UNL     1      14.601  -6.708  37.210  0.00  0.00    +0.000 HD
ATOM     24  C   UNL     1      17.391  -8.263  38.241  0.00  0.00    +0.000 C 
ATOM     25  C   UNL     1      15.350  -9.343  37.146  0.00  0.00    +0.000 C 
ENDBRANCH  14  17
ENDBRANCH   3  11
BRANCH   8  26
ATOM     26  C   UNL     1      22.879  -9.532  48.914  0.00  0.00    +0.000 C 
ATOM     27  C   UNL     1      22.902  -9.822  50.418  0.00  0.00    +0.000 C 
BRANCH  27  28
ATOM     28  C   UNL     1      22.918 -10.100  51.816  0.00  0.00    +0.000 A 
ATOM     29  C   UNL     1      24.019 -10.734  52.385  0.00  0.00    +0.000 A 
ATOM     30  C   UNL     1      24.042 -11.004  53.755  0.00  0.00    +0.000 A 
ATOM     31  C   UNL     1      22.954 -10.628  54.546  0.00  0.00    +0.000 A 
ATOM     32  C   UNL     1      21.845  -9.997  53.978  0.00  0.00    +0.000 A 
ATOM     33  C   UNL     1      21.834  -9.733  52.608  0.00  0.00    +0.000 A 
BRANCH  30  34
ATOM     34  O   UNL     1      25.077 -11.615  54.420  0.00  0.00    +0.000 OA
ATOM     35  C   UNL     1      26.356 -11.148  54.098  0.00  0.00    +0.000 C 
ENDBRANCH  30  34
BRANCH  32  36
ATOM     36  O   UNL     1      20.836  -9.674  54.851  0.00  0.00    +0.000 OA
ATOM     37  C   UNL     1      20.229  -8.429  54.634  0.00  0.00    +0.000 C 
ENDBRANCH  32  36
ENDBRANCH  27  28
ENDBRANCH   8  26
TORSDOF 6
ENDMDL
MODEL 7
REMARK VINA RESULT:      -7.2     35.174     41.589
REMARK  Name = AZD4547.pdbqt.pdb
REMARK  6 active torsions:
REMARK  status: ('A' for Active; 'I' for Inactive)
REMARK    1  A    between atoms: C_3  and  C_23
REMARK    2  A    between atoms: C_8  and  C_11
REMARK    3  A    between atoms: C_12  and  C_13
REMARK    4  A    between atoms: C_15  and  O_19
REMARK    5  A    between atoms: C_17  and  O_21
REMARK    6  A    between atoms: C_26  and  N_29
REMARK                            x       y       z     vdW  Elec       q    Type
REMARK                         _______ _______ _______ _____ _____    ______ ____
ROOT
ATOM      1  O   UNL     1      19.558  -8.606  45.036  0.00  0.00    +0.000 OA
ATOM      2  N   UNL     1      21.761  -8.577  44.325  0.00  0.00    +0.000 N 
ATOM      3  C   UNL     1      20.399  -8.471  44.155  0.00  0.00    +0.000 C 
ATOM      4  H   UNL     1      22.417  -8.461  43.567  0.00  0.00    +0.000 HD
ATOM      5  C   UNL     1      22.375  -8.848  45.525  0.00  0.00    +0.000 A 
ATOM      6  N   UNL     1      23.710  -8.929  45.562  0.00  0.00    +0.000 NA
ATOM      7  N   UNL     1      23.976  -9.198  46.854  0.00  0.00    +0.000 N 
ATOM      8  C   UNL     1      22.864  -9.290  47.636  0.00  0.00    +0.000 A 
ATOM      9  H   UNL     1      24.944  -9.308  47.137  0.00  0.00    +0.000 HD
ATOM     10  C   UNL     1      21.798  -9.067  46.800  0.00  0.00    +0.000 A 
ENDROOT
BRANCH   3  11
ATOM     11  C   UNL     1      19.940  -8.169  42.776  0.00  0.00    +0.000 A 
ATOM     12  C   UNL     1      18.756  -8.752  42.326  0.00  0.00    +0.000 A 
ATOM     13  C   UNL     1      18.294  -8.492  41.038  0.00  0.00    +0.000 A 
ATOM     14  C   UNL     1      19.007  -7.659  40.166  0.00  0.00    +0.000 A 
ATOM     15  C   UNL     1      20.186  -7.067  40.642  0.00  0.00    +0.000 A 
ATOM     16  C   UNL     1      20.653  -7.323  41.930  0.00  0.00    +0.000 A 
BRANCH  14  17
ATOM     17  N   UNL     1      18.514  -7.360  38.874  0.00  0.00    +0.000 N 
ATOM     18  C   UNL     1      17.344  -6.471  38.759  0.00  0.00    +0.000 C 
ATOM     19  C   UNL     1      16.083  -6.531  38.097  0.00  0.00    +0.000 C 
ATOM     20  N   UNL     1      15.814  -7.713  37.341  0.00  0.00    +0.000 N 
ATOM     21  C   UNL     1      15.068  -5.450  38.199  0.00  0.00    +0.000 C 
ATOM     22  C   UNL     1      16.817  -8.728  37.310  0.00  0.00    +0.000 C 
ATOM     23  H   UNL     1      14.933  -7.835  36.865  0.00  0.00    +0.000 HD
ATOM     24  C   UNL     1      18.012  -8.468  38.043  0.00  0.00    +0.000 C 
ATOM     25  C   UNL     1      16.586 -10.002  36.580  0.00  0.00    +0.000 C 
ENDBRANCH  14  17
ENDBRANCH   3  11
BRANCH   8  26
ATOM     26  C   UNL     1      22.860  -9.560  49.025  0.00  0.00    +0.000 C 
ATOM     27  C   UNL     1      22.851  -9.854  50.529  0.00  0.00    +0.000 C 
BRANCH  27  28
ATOM     28  C   UNL     1      22.834 -10.128  51.927  0.00  0.00    +0.000 A 
ATOM     29  C   UNL     1      21.824  -9.599  52.725  0.00  0.00    +0.000 A 
ATOM     30  C   UNL     1      21.799  -9.868  54.096  0.00  0.00    +0.000 A 
ATOM     31  C   UNL     1      22.794 -10.675  54.653  0.00  0.00    +0.000 A 
ATOM     32  C   UNL     1      23.812 -11.203  53.857  0.00  0.00    +0.000 A 
ATOM     33  C   UNL     1      23.825 -10.927  52.488  0.00  0.00    +0.000 A 
BRANCH  30  34
ATOM     34  O   UNL     1      20.849  -9.406  54.972  0.00  0.00    +0.000 OA
ATOM     35  C   UNL     1      20.198  -8.229  54.587  0.00  0.00    +0.000 C 
ENDBRANCH  30  34
BRANCH  32  36
ATOM     36  O   UNL     1      24.734 -11.982  54.512  0.00  0.00    +0.000 OA
ATOM     37  C   UNL     1      25.899 -11.319  54.922  0.00  0.00    +0.000 C 
ENDBRANCH  32  36
ENDBRANCH  27  28
ENDBRANCH   8  26
TORSDOF 6
ENDMDL
MODEL 8
REMARK VINA RESULT:      -7.1     43.344     44.514
REMARK  Name = AZD4547.pdbqt.pdb
REMARK  6 active torsions:
REMARK  status: ('A' for Active; 'I' for Inactive)
REMARK    1  A    between atoms: C_3  and  C_23
REMARK    2  A    between atoms: C_8  and  C_11
REMARK    3  A    between atoms: C_12  and  C_13
REMARK    4  A    between atoms: C_15  and  O_19
REMARK    5  A    between atoms: C_17  and  O_21
REMARK    6  A    between atoms: C_26  and  N_29
REMARK                            x       y       z     vdW  Elec       q    Type
REMARK                         _______ _______ _______ _____ _____    ______ ____
ROOT
ATOM      1  O   UNL     1      43.006  17.712  40.500  0.00  0.00    +0.000 OA
ATOM      2  N   UNL     1      43.167  19.412  42.064  0.00  0.00    +0.000 N 
ATOM      3  C   UNL     1      43.269  18.871  40.802  0.00  0.00    +0.000 C 
ATOM      4  H   UNL     1      43.398  20.373  42.265  0.00  0.00    +0.000 HD
ATOM      5  C   UNL     1      42.745  18.721  43.174  0.00  0.00    +0.000 A 
ATOM      6  N   UNL     1      42.690  19.358  44.348  0.00  0.00    +0.000 NA
ATOM      7  N   UNL     1      42.248  18.416  45.202  0.00  0.00    +0.000 N 
ATOM      8  C   UNL     1      42.019  17.208  44.614  0.00  0.00    +0.000 A 
ATOM      9  H   UNL     1      42.123  18.666  46.177  0.00  0.00    +0.000 HD
ATOM     10  C   UNL     1      42.335  17.370  43.288  0.00  0.00    +0.000 A 
ENDROOT
BRANCH   3  11
ATOM     11  C   UNL     1      43.742  19.790  39.737  0.00  0.00    +0.000 A 
ATOM     12  C   UNL     1      44.990  19.556  39.162  0.00  0.00    +0.000 A 
ATOM     13  C   UNL     1      45.467  20.398  38.160  0.00  0.00    +0.000 A 
ATOM     14  C   UNL     1      44.720  21.499  37.722  0.00  0.00    +0.000 A 
ATOM     15  C   UNL     1      43.460  21.709  38.299  0.00  0.00    +0.000 A 
ATOM     16  C   UNL     1      42.977  20.869  39.302  0.00  0.00    +0.000 A 
BRANCH  14  17
ATOM     17  N   UNL     1      45.187  22.327  36.674  0.00  0.00    +0.000 N 
ATOM     18  C   UNL     1      44.367  22.445  35.455  0.00  0.00    +0.000 C 
ATOM     19  C   UNL     1      44.599  22.305  34.055  0.00  0.00    +0.000 C 
ATOM     20  N   UNL     1      45.929  21.969  33.659  0.00  0.00    +0.000 N 
ATOM     21  C   UNL     1      43.523  22.463  33.041  0.00  0.00    +0.000 C 
ATOM     22  C   UNL     1      46.908  21.799  34.684  0.00  0.00    +0.000 C 
ATOM     23  H   UNL     1      46.162  21.831  32.688  0.00  0.00    +0.000 HD
ATOM     24  C   UNL     1      46.465  21.985  36.027  0.00  0.00    +0.000 C 
ATOM     25  C   UNL     1      48.301  21.405  34.346  0.00  0.00    +0.000 C 
ENDBRANCH  14  17
ENDBRANCH   3  11
BRANCH   8  26
ATOM     26  C   UNL     1      41.550  16.051  45.280  0.00  0.00    +0.000 C 
ATOM     27  C   UNL     1      41.045  14.795  45.999  0.00  0.00    +0.000 C 
BRANCH  27  28
ATOM     28  C   UNL     1      40.582  13.622  46.663  0.00  0.00    +0.000 A 
ATOM     29  C   UNL     1      41.406  12.973  47.578  0.00  0.00    +0.000 A 
ATOM     30  C   UNL     1      40.956  11.826  48.236  0.00  0.00    +0.000 A 
ATOM     31  C   UNL     1      39.673  11.343  47.969  0.00  0.00    +0.000 A 
ATOM     32  C   UNL     1      38.846  11.987  47.048  0.00  0.00    +0.000 A 
ATOM     33  C   UNL     1      39.307  13.133  46.397  0.00  0.00    +0.000 A 
BRANCH  30  34
ATOM     34  O   UNL     1      41.679  11.113  49.160  0.00  0.00    +0.000 OA
ATOM     35  C   UNL     1      41.206  11.182  50.476  0.00  0.00    +0.000 C 
ENDBRANCH  30  34
BRANCH  32  36
ATOM     36  O   UNL     1      37.607  11.424  46.866  0.00  0.00    +0.000 OA
ATOM     37  C   UNL     1      36.714  11.576  47.936  0.00  0.00    +0.000 C 
ENDBRANCH  32  36
ENDBRANCH  27  28
ENDBRANCH   8  26
TORSDOF 6
ENDMDL
MODEL 9
REMARK VINA RESULT:      -7.1     19.476     23.281
REMARK  Name = AZD4547.pdbqt.pdb
REMARK  6 active torsions:
REMARK  status: ('A' for Active; 'I' for Inactive)
REMARK    1  A    between atoms: C_3  and  C_23
REMARK    2  A    between atoms: C_8  and  C_11
REMARK    3  A    between atoms: C_12  and  C_13
REMARK    4  A    between atoms: C_15  and  O_19
REMARK    5  A    between atoms: C_17  and  O_21
REMARK    6  A    between atoms: C_26  and  N_29
REMARK                            x       y       z     vdW  Elec       q    Type
REMARK                         _______ _______ _______ _____ _____    ______ ____
ROOT
ATOM      1  O   UNL     1      44.684   1.988  12.944  0.00  0.00    +0.000 OA
ATOM      2  N   UNL     1      42.540   1.121  12.818  0.00  0.00    +0.000 N 
ATOM      3  C   UNL     1      43.484   2.054  13.187  0.00  0.00    +0.000 C 
ATOM      4  H   UNL     1      41.562   1.217  13.044  0.00  0.00    +0.000 HD
ATOM      5  C   UNL     1      42.816  -0.026  12.113  0.00  0.00    +0.000 A 
ATOM      6  N   UNL     1      41.811  -0.857  11.816  0.00  0.00    +0.000 NA
ATOM      7  N   UNL     1      42.412  -1.853  11.139  0.00  0.00    +0.000 N 
ATOM      8  C   UNL     1      43.757  -1.685  10.994  0.00  0.00    +0.000 A 
ATOM      9  H   UNL     1      41.843  -2.622  10.800  0.00  0.00    +0.000 HD
ATOM     10  C   UNL     1      44.056  -0.501  11.620  0.00  0.00    +0.000 A 
ENDROOT
BRANCH   3  11
ATOM     11  C   UNL     1      42.976   3.226  13.943  0.00  0.00    +0.000 A 
ATOM     12  C   UNL     1      43.686   4.424  13.868  0.00  0.00    +0.000 A 
ATOM     13  C   UNL     1      43.239   5.545  14.565  0.00  0.00    +0.000 A 
ATOM     14  C   UNL     1      42.088   5.494  15.361  0.00  0.00    +0.000 A 
ATOM     15  C   UNL     1      41.377   4.286  15.409  0.00  0.00    +0.000 A 
ATOM     16  C   UNL     1      41.818   3.160  14.714  0.00  0.00    +0.000 A 
BRANCH  14  17
ATOM     17  N   UNL     1      41.612   6.645  16.031  0.00  0.00    +0.000 N 
ATOM     18  C   UNL     1      42.354   7.127  17.209  0.00  0.00    +0.000 C 
ATOM     19  C   UNL     1      42.019   7.475  18.550  0.00  0.00    +0.000 C 
ATOM     20  N   UNL     1      40.644   7.349  18.918  0.00  0.00    +0.000 N 
ATOM     21  C   UNL     1      43.032   7.916  19.545  0.00  0.00    +0.000 C 
ATOM     22  C   UNL     1      39.727   6.890  17.926  0.00  0.00    +0.000 C 
ATOM     23  H   UNL     1      40.337   7.555  19.856  0.00  0.00    +0.000 HD
ATOM     24  C   UNL     1      40.272   6.596  16.641  0.00  0.00    +0.000 C 
ATOM     25  C   UNL     1      38.291   6.692  18.252  0.00  0.00    +0.000 C 
ENDBRANCH  14  17
ENDBRANCH   3  11
BRANCH   8  26
ATOM     26  C   UNL     1      44.626  -2.579  10.325  0.00  0.00    +0.000 C 
ATOM     27  C   UNL     1      45.568  -3.548   9.603  0.00  0.00    +0.000 C 
BRANCH  27  28
ATOM     28  C   UNL     1      46.447  -4.453   8.941  0.00  0.00    +0.000 A 
ATOM     29  C   UNL     1      46.599  -4.386   7.559  0.00  0.00    +0.000 A 
ATOM     30  C   UNL     1      47.463  -5.267   6.904  0.00  0.00    +0.000 A 
ATOM     31  C   UNL     1      48.174  -6.210   7.651  0.00  0.00    +0.000 A 
ATOM     32  C   UNL     1      48.020  -6.285   9.036  0.00  0.00    +0.000 A 
ATOM     33  C   UNL     1      47.153  -5.398   9.678  0.00  0.00    +0.000 A 
BRANCH  30  34
ATOM     34  O   UNL     1      47.695  -5.284   5.551  0.00  0.00    +0.000 OA
ATOM     35  C   UNL     1      47.390  -6.487   4.904  0.00  0.00    +0.000 C 
ENDBRANCH  30  34
BRANCH  32  36
ATOM     36  O   UNL     1      48.767  -7.250   9.665  0.00  0.00    +0.000 OA
ATOM     37  C   UNL     1      49.066  -6.997  11.011  0.00  0.00    +0.000 C 
ENDBRANCH  32  36
ENDBRANCH  27  28
ENDBRANCH   8  26
TORSDOF 6
ENDMDL
