MODEL 1
REMARK VINA RESULT:      -7.9      0.000      0.000
REMARK  Name = Belinostat.pdbqt.pdb
REMARK  6 active torsions:
REMARK  status: ('A' for Active; 'I' for Inactive)
REMARK    1  A    between atoms: C_1  and  S_7
REMARK    2  A    between atoms: C_3  and  C_18
REMARK    3  A    between atoms: S_7  and  N_10
REMARK    4  A    between atoms: N_10  and  C_12
REMARK    5  A    between atoms: C_19  and  C_20
REMARK    6  A    between atoms: N_22  and  O_24
REMARK                            x       y       z     vdW  Elec       q    Type
REMARK                         _______ _______ _______ _____ _____    ______ ____
ROOT
ATOM      1  C   UNL     1      36.206   0.994  16.607  0.00  0.00    +0.000 A 
ATOM      2  C   UNL     1      36.645   1.042  15.289  0.00  0.00    +0.000 A 
ATOM      3  C   UNL     1      36.750  -0.143  14.568  0.00  0.00    +0.000 A 
ATOM      4  C   UNL     1      35.842  -0.206  17.208  0.00  0.00    +0.000 A 
ATOM      5  C   UNL     1      36.403  -1.358  15.161  0.00  0.00    +0.000 A 
ATOM      6  C   UNL     1      35.948  -1.388  16.480  0.00  0.00    +0.000 A 
ENDROOT
BRANCH   1   7
ATOM      7  S   UNL     1      36.032   2.488  17.513  0.00  0.00    +0.000 S 
ATOM      8  O   UNL     1      34.613   2.725  17.672  0.00  0.00    +0.000 OA
ATOM      9  O   UNL     1      36.894   3.484  16.913  0.00  0.00    +0.000 OA
BRANCH   7  10
ATOM     10  N   UNL     1      36.619   2.093  19.030  0.00  0.00    +0.000 N 
ATOM     11  H   UNL     1      37.249   1.292  19.044  0.00  0.00    +0.000 HD
BRANCH  10  12
ATOM     12  C   UNL     1      36.606   2.993  20.133  0.00  0.00    +0.000 A 
ATOM     13  C   UNL     1      35.753   2.838  21.224  0.00  0.00    +0.000 A 
ATOM     14  C   UNL     1      35.838   3.700  22.314  0.00  0.00    +0.000 A 
ATOM     15  C   UNL     1      36.797   4.708  22.329  0.00  0.00    +0.000 A 
ATOM     16  C   UNL     1      37.676   4.847  21.259  0.00  0.00    +0.000 A 
ATOM     17  C   UNL     1      37.588   3.983  20.170  0.00  0.00    +0.000 A 
ENDBRANCH  10  12
ENDBRANCH   7  10
ENDBRANCH   1   7
BRANCH   3  18
ATOM     18  C   UNL     1      37.212  -0.115  13.219  0.00  0.00    +0.000 C 
ATOM     19  C   UNL     1      37.605  -0.091  12.084  0.00  0.00    +0.000 C 
BRANCH  19  20
ATOM     20  C   UNL     1      38.076  -0.061  10.722  0.00  0.00    +0.000 C 
ATOM     21  O   UNL     1      38.154   1.000  10.114  0.00  0.00    +0.000 OA
ATOM     22  N   UNL     1      38.426  -1.268  10.184  0.00  0.00    +0.000 N 
ATOM     23  H   UNL     1      38.422  -2.146  10.692  0.00  0.00    +0.000 HD
BRANCH  22  24
ATOM     24  O   UNL     1      38.938  -1.273   8.868  0.00  0.00    +0.000 OA
ATOM     25  H   UNL     1      39.169  -2.218   8.730  0.00  0.00    +0.000 HD
ENDBRANCH  22  24
ENDBRANCH  19  20
ENDBRANCH   3  18
TORSDOF 6
ENDMDL
MODEL 2
REMARK VINA RESULT:      -7.8      4.922      9.389
REMARK  Name = Belinostat.pdbqt.pdb
REMARK  6 active torsions:
REMARK  status: ('A' for Active; 'I' for Inactive)
REMARK    1  A    between atoms: C_1  and  S_7
REMARK    2  A    between atoms: C_3  and  C_18
REMARK    3  A    between atoms: S_7  and  N_10
REMARK    4  A    between atoms: N_10  and  C_12
REMARK    5  A    between atoms: C_19  and  C_20
REMARK    6  A    between atoms: N_22  and  O_24
REMARK                            x       y       z     vdW  Elec       q    Type
REMARK                         _______ _______ _______ _____ _____    ______ ____
ROOT
ATOM      1  C   UNL     1      37.201   1.387   9.965  0.00  0.00    +0.000 A 
ATOM      2  C   UNL     1      36.387   0.988  11.019  0.00  0.00    +0.000 A 
ATOM      3  C   UNL     1      36.483   1.654  12.236  0.00  0.00    +0.000 A 
ATOM      4  C   UNL     1      38.085   2.453  10.092  0.00  0.00    +0.000 A 
ATOM      5  C   UNL     1      37.376   2.716  12.386  0.00  0.00    +0.000 A 
ATOM      6  C   UNL     1      38.174   3.116  11.313  0.00  0.00    +0.000 A 
ENDROOT
BRANCH   1   7
ATOM      7  S   UNL     1      37.058   0.580   8.412  0.00  0.00    +0.000 S 
ATOM      8  O   UNL     1      37.815   1.360   7.457  0.00  0.00    +0.000 OA
ATOM      9  O   UNL     1      35.662   0.273   8.188  0.00  0.00    +0.000 OA
BRANCH   7  10
ATOM     10  N   UNL     1      37.906  -0.847   8.637  0.00  0.00    +0.000 N 
ATOM     11  H   UNL     1      37.541  -1.642   8.115  0.00  0.00    +0.000 HD
BRANCH  10  12
ATOM     12  C   UNL     1      39.233  -0.895   9.150  0.00  0.00    +0.000 A 
ATOM     13  C   UNL     1      39.518  -1.230  10.472  0.00  0.00    +0.000 A 
ATOM     14  C   UNL     1      40.838  -1.343  10.903  0.00  0.00    +0.000 A 
ATOM     15  C   UNL     1      41.881  -1.146  10.002  0.00  0.00    +0.000 A 
ATOM     16  C   UNL     1      41.603  -0.846   8.671  0.00  0.00    +0.000 A 
ATOM     17  C   UNL     1      40.282  -0.734   8.245  0.00  0.00    +0.000 A 
ENDBRANCH  10  12
ENDBRANCH   7  10
ENDBRANCH   1   7
BRANCH   3  18
ATOM     18  C   UNL     1      35.666   1.250  13.333  0.00  0.00    +0.000 C 
ATOM     19  C   UNL     1      34.976   0.909  14.255  0.00  0.00    +0.000 C 
BRANCH  19  20
ATOM     20  C   UNL     1      34.146   0.500  15.361  0.00  0.00    +0.000 C 
ATOM     21  O   UNL     1      34.270   1.029  16.460  0.00  0.00    +0.000 OA
ATOM     22  N   UNL     1      33.237  -0.484  15.094  0.00  0.00    +0.000 N 
ATOM     23  H   UNL     1      33.082  -0.891  14.179  0.00  0.00    +0.000 HD
BRANCH  22  24
ATOM     24  O   UNL     1      32.374  -0.878  16.141  0.00  0.00    +0.000 OA
ATOM     25  H   UNL     1      32.056  -1.757  15.840  0.00  0.00    +0.000 HD
ENDBRANCH  22  24
ENDBRANCH  19  20
ENDBRANCH   3  18
TORSDOF 6
ENDMDL
MODEL 3
REMARK VINA RESULT:      -7.6      2.701      9.090
REMARK  Name = Belinostat.pdbqt.pdb
REMARK  6 active torsions:
REMARK  status: ('A' for Active; 'I' for Inactive)
REMARK    1  A    between atoms: C_1  and  S_7
REMARK    2  A    between atoms: C_3  and  C_18
REMARK    3  A    between atoms: S_7  and  N_10
REMARK    4  A    between atoms: N_10  and  C_12
REMARK    5  A    between atoms: C_19  and  C_20
REMARK    6  A    between atoms: N_22  and  O_24
REMARK                            x       y       z     vdW  Elec       q    Type
REMARK                         _______ _______ _______ _____ _____    ______ ____
ROOT
ATOM      1  C   UNL     1      36.056   1.346  13.998  0.00  0.00    +0.000 A 
ATOM      2  C   UNL     1      36.493   1.753  15.253  0.00  0.00    +0.000 A 
ATOM      3  C   UNL     1      35.647   1.595  16.346  0.00  0.00    +0.000 A 
ATOM      4  C   UNL     1      34.808   0.759  13.818  0.00  0.00    +0.000 A 
ATOM      5  C   UNL     1      34.386   1.022  16.181  0.00  0.00    +0.000 A 
ATOM      6  C   UNL     1      33.968   0.603  14.917  0.00  0.00    +0.000 A 
ENDROOT
BRANCH   1   7
ATOM      7  S   UNL     1      37.131   1.503  12.618  0.00  0.00    +0.000 S 
ATOM      8  O   UNL     1      38.462   1.167  13.076  0.00  0.00    +0.000 OA
ATOM      9  O   UNL     1      36.859   2.770  11.975  0.00  0.00    +0.000 OA
BRANCH   7  10
ATOM     10  N   UNL     1      36.650   0.257  11.607  0.00  0.00    +0.000 N 
ATOM     11  H   UNL     1      35.759  -0.170  11.857  0.00  0.00    +0.000 HD
BRANCH  10  12
ATOM     12  C   UNL     1      37.177   0.064  10.299  0.00  0.00    +0.000 A 
ATOM     13  C   UNL     1      36.791   0.840   9.208  0.00  0.00    +0.000 A 
ATOM     14  C   UNL     1      37.399   0.664   7.967  0.00  0.00    +0.000 A 
ATOM     15  C   UNL     1      38.418  -0.273   7.820  0.00  0.00    +0.000 A 
ATOM     16  C   UNL     1      38.833  -1.026   8.914  0.00  0.00    +0.000 A 
ATOM     17  C   UNL     1      38.223  -0.847  10.153  0.00  0.00    +0.000 A 
ENDBRANCH  10  12
ENDBRANCH   7  10
ENDBRANCH   1   7
BRANCH   3  18
ATOM     18  C   UNL     1      36.073   2.020  17.640  0.00  0.00    +0.000 C 
ATOM     19  C   UNL     1      36.428   2.378  18.730  0.00  0.00    +0.000 C 
BRANCH  19  20
ATOM     20  C   UNL     1      36.854   2.807  20.038  0.00  0.00    +0.000 C 
ATOM     21  O   UNL     1      36.029   3.090  20.899  0.00  0.00    +0.000 OA
ATOM     22  N   UNL     1      38.205   2.864  20.239  0.00  0.00    +0.000 N 
ATOM     23  H   UNL     1      38.899   2.578  19.558  0.00  0.00    +0.000 HD
BRANCH  22  24
ATOM     24  O   UNL     1      38.660   3.234  21.524  0.00  0.00    +0.000 OA
ATOM     25  H   UNL     1      37.825   3.452  21.994  0.00  0.00    +0.000 HD
ENDBRANCH  22  24
ENDBRANCH  19  20
ENDBRANCH   3  18
TORSDOF 6
ENDMDL
MODEL 4
REMARK VINA RESULT:      -7.1     18.160     19.673
REMARK  Name = Belinostat.pdbqt.pdb
REMARK  6 active torsions:
REMARK  status: ('A' for Active; 'I' for Inactive)
REMARK    1  A    between atoms: C_1  and  S_7
REMARK    2  A    between atoms: C_3  and  C_18
REMARK    3  A    between atoms: S_7  and  N_10
REMARK    4  A    between atoms: N_10  and  C_12
REMARK    5  A    between atoms: C_19  and  C_20
REMARK    6  A    between atoms: N_22  and  O_24
REMARK                            x       y       z     vdW  Elec       q    Type
REMARK                         _______ _______ _______ _____ _____    ______ ____
ROOT
ATOM      1  C   UNL     1      19.806   9.799  18.851  0.00  0.00    +0.000 A 
ATOM      2  C   UNL     1      19.371   8.492  19.034  0.00  0.00    +0.000 A 
ATOM      3  C   UNL     1      20.066   7.457  18.417  0.00  0.00    +0.000 A 
ATOM      4  C   UNL     1      20.935  10.091  18.091  0.00  0.00    +0.000 A 
ATOM      5  C   UNL     1      21.191   7.732  17.639  0.00  0.00    +0.000 A 
ATOM      6  C   UNL     1      21.625   9.049  17.478  0.00  0.00    +0.000 A 
ENDROOT
BRANCH   1   7
ATOM      7  S   UNL     1      18.961  11.110  19.658  0.00  0.00    +0.000 S 
ATOM      8  O   UNL     1      18.173  10.518  20.718  0.00  0.00    +0.000 OA
ATOM      9  O   UNL     1      18.348  11.943  18.647  0.00  0.00    +0.000 OA
BRANCH   7  10
ATOM     10  N   UNL     1      20.193  11.965  20.404  0.00  0.00    +0.000 N 
ATOM     11  H   UNL     1      20.916  11.383  20.825  0.00  0.00    +0.000 HD
BRANCH  10  12
ATOM     12  C   UNL     1      20.461  13.338  20.143  0.00  0.00    +0.000 A 
ATOM     13  C   UNL     1      19.726  14.373  20.717  0.00  0.00    +0.000 A 
ATOM     14  C   UNL     1      20.082  15.701  20.492  0.00  0.00    +0.000 A 
ATOM     15  C   UNL     1      21.195  15.999  19.712  0.00  0.00    +0.000 A 
ATOM     16  C   UNL     1      21.956  14.969  19.165  0.00  0.00    +0.000 A 
ATOM     17  C   UNL     1      21.596  13.643  19.391  0.00  0.00    +0.000 A 
ENDBRANCH  10  12
ENDBRANCH   7  10
ENDBRANCH   1   7
BRANCH   3  18
ATOM     18  C   UNL     1      19.626   6.110  18.582  0.00  0.00    +0.000 C 
ATOM     19  C   UNL     1      19.256   4.975  18.717  0.00  0.00    +0.000 C 
BRANCH  19  20
ATOM     20  C   UNL     1      18.812   3.613  18.880  0.00  0.00    +0.000 C 
ATOM     21  O   UNL     1      19.197   2.943  19.831  0.00  0.00    +0.000 OA
ATOM     22  N   UNL     1      17.951   3.147  17.926  0.00  0.00    +0.000 N 
ATOM     23  H   UNL     1      17.579   3.705  17.167  0.00  0.00    +0.000 HD
BRANCH  22  24
ATOM     24  O   UNL     1      17.457   1.833  18.079  0.00  0.00    +0.000 OA
ATOM     25  H   UNL     1      17.227   1.581  17.158  0.00  0.00    +0.000 HD
ENDBRANCH  22  24
ENDBRANCH  19  20
ENDBRANCH   3  18
TORSDOF 6
ENDMDL
MODEL 5
REMARK VINA RESULT:      -7.0      4.240      6.158
REMARK  Name = Belinostat.pdbqt.pdb
REMARK  6 active torsions:
REMARK  status: ('A' for Active; 'I' for Inactive)
REMARK    1  A    between atoms: C_1  and  S_7
REMARK    2  A    between atoms: C_3  and  C_18
REMARK    3  A    between atoms: S_7  and  N_10
REMARK    4  A    between atoms: N_10  and  C_12
REMARK    5  A    between atoms: C_19  and  C_20
REMARK    6  A    between atoms: N_22  and  O_24
REMARK                            x       y       z     vdW  Elec       q    Type
REMARK                         _______ _______ _______ _____ _____    ______ ____
ROOT
ATOM      1  C   UNL     1      37.720   0.343  11.703  0.00  0.00    +0.000 A 
ATOM      2  C   UNL     1      39.024  -0.135  11.756  0.00  0.00    +0.000 A 
ATOM      3  C   UNL     1      39.486  -0.953  10.730  0.00  0.00    +0.000 A 
ATOM      4  C   UNL     1      36.880   0.046  10.634  0.00  0.00    +0.000 A 
ATOM      5  C   UNL     1      38.652  -1.274   9.659  0.00  0.00    +0.000 A 
ATOM      6  C   UNL     1      37.350  -0.772   9.611  0.00  0.00    +0.000 A 
ENDROOT
BRANCH   1   7
ATOM      7  S   UNL     1      37.140   1.410  12.971  0.00  0.00    +0.000 S 
ATOM      8  O   UNL     1      36.549   2.560  12.322  0.00  0.00    +0.000 OA
ATOM      9  O   UNL     1      38.195   1.564  13.950  0.00  0.00    +0.000 OA
BRANCH   7  10
ATOM     10  N   UNL     1      35.876   0.549  13.655  0.00  0.00    +0.000 N 
ATOM     11  H   UNL     1      35.088   0.388  13.029  0.00  0.00    +0.000 HD
BRANCH  10  12
ATOM     12  C   UNL     1      36.016  -0.246  14.827  0.00  0.00    +0.000 A 
ATOM     13  C   UNL     1      36.832  -1.374  14.881  0.00  0.00    +0.000 A 
ATOM     14  C   UNL     1      36.998  -2.069  16.076  0.00  0.00    +0.000 A 
ATOM     15  C   UNL     1      36.366  -1.621  17.233  0.00  0.00    +0.000 A 
ATOM     16  C   UNL     1      35.578  -0.474  17.194  0.00  0.00    +0.000 A 
ATOM     17  C   UNL     1      35.415   0.217  15.997  0.00  0.00    +0.000 A 
ENDBRANCH  10  12
ENDBRANCH   7  10
ENDBRANCH   1   7
BRANCH   3  18
ATOM     18  C   UNL     1      40.817  -1.465  10.775  0.00  0.00    +0.000 C 
ATOM     19  C   UNL     1      41.936  -1.899  10.814  0.00  0.00    +0.000 C 
BRANCH  19  20
ATOM     20  C   UNL     1      43.280  -2.420  10.861  0.00  0.00    +0.000 C 
ATOM     21  O   UNL     1      43.853  -2.755   9.831  0.00  0.00    +0.000 OA
ATOM     22  N   UNL     1      43.847  -2.499  12.102  0.00  0.00    +0.000 N 
ATOM     23  H   UNL     1      43.409  -2.172  12.956  0.00  0.00    +0.000 HD
BRANCH  22  24
ATOM     24  O   UNL     1      45.180  -2.959  12.183  0.00  0.00    +0.000 OA
ATOM     25  H   UNL     1      45.186  -3.454  13.031  0.00  0.00    +0.000 HD
ENDBRANCH  22  24
ENDBRANCH  19  20
ENDBRANCH   3  18
TORSDOF 6
ENDMDL
MODEL 6
REMARK VINA RESULT:      -6.9     18.282     19.818
REMARK  Name = Belinostat.pdbqt.pdb
REMARK  6 active torsions:
REMARK  status: ('A' for Active; 'I' for Inactive)
REMARK    1  A    between atoms: C_1  and  S_7
REMARK    2  A    between atoms: C_3  and  C_18
REMARK    3  A    between atoms: S_7  and  N_10
REMARK    4  A    between atoms: N_10  and  C_12
REMARK    5  A    between atoms: C_19  and  C_20
REMARK    6  A    between atoms: N_22  and  O_24
REMARK                            x       y       z     vdW  Elec       q    Type
REMARK                         _______ _______ _______ _____ _____    ______ ____
ROOT
ATOM      1  C   UNL     1      18.842   9.884  19.789  0.00  0.00    +0.000 A 
ATOM      2  C   UNL     1      18.580   8.584  19.372  0.00  0.00    +0.000 A 
ATOM      3  C   UNL     1      19.217   7.527  20.016  0.00  0.00    +0.000 A 
ATOM      4  C   UNL     1      19.700  10.148  20.851  0.00  0.00    +0.000 A 
ATOM      5  C   UNL     1      20.092   7.775  21.073  0.00  0.00    +0.000 A 
ATOM      6  C   UNL     1      20.332   9.085  21.491  0.00  0.00    +0.000 A 
ENDROOT
BRANCH   1   7
ATOM      7  S   UNL     1      18.013  11.222  19.010  0.00  0.00    +0.000 S 
ATOM      8  O   UNL     1      18.444  12.433  19.676  0.00  0.00    +0.000 OA
ATOM      9  O   UNL     1      16.610  10.885  18.904  0.00  0.00    +0.000 OA
BRANCH   7  10
ATOM     10  N   UNL     1      18.689  11.258  17.478  0.00  0.00    +0.000 N 
ATOM     11  H   UNL     1      18.060  11.588  16.747  0.00  0.00    +0.000 HD
BRANCH  10  12
ATOM     12  C   UNL     1      20.092  11.243  17.242  0.00  0.00    +0.000 A 
ATOM     13  C   UNL     1      20.902  12.360  17.438  0.00  0.00    +0.000 A 
ATOM     14  C   UNL     1      22.282  12.269  17.271  0.00  0.00    +0.000 A 
ATOM     15  C   UNL     1      22.862  11.050  16.934  0.00  0.00    +0.000 A 
ATOM     16  C   UNL     1      22.062   9.921  16.772  0.00  0.00    +0.000 A 
ATOM     17  C   UNL     1      20.683  10.017  16.939  0.00  0.00    +0.000 A 
ENDBRANCH  10  12
ENDBRANCH   7  10
ENDBRANCH   1   7
BRANCH   3  18
ATOM     18  C   UNL     1      18.972   6.187  19.593  0.00  0.00    +0.000 C 
ATOM     19  C   UNL     1      18.762   5.060  19.236  0.00  0.00    +0.000 C 
BRANCH  19  20
ATOM     20  C   UNL     1      18.510   3.707  18.807  0.00  0.00    +0.000 C 
ATOM     21  O   UNL     1      19.050   2.764  19.374  0.00  0.00    +0.000 OA
ATOM     22  N   UNL     1      17.643   3.563  17.760  0.00  0.00    +0.000 N 
ATOM     23  H   UNL     1      17.145   4.327  17.318  0.00  0.00    +0.000 HD
BRANCH  22  24
ATOM     24  O   UNL     1      17.335   2.249  17.343  0.00  0.00    +0.000 OA
ATOM     25  H   UNL     1      16.459   2.360  16.912  0.00  0.00    +0.000 HD
ENDBRANCH  22  24
ENDBRANCH  19  20
ENDBRANCH   3  18
TORSDOF 6
ENDMDL
MODEL 7
REMARK VINA RESULT:      -6.9     14.295     16.321
REMARK  Name = Belinostat.pdbqt.pdb
REMARK  6 active torsions:
REMARK  status: ('A' for Active; 'I' for Inactive)
REMARK    1  A    between atoms: C_1  and  S_7
REMARK    2  A    between atoms: C_3  and  C_18
REMARK    3  A    between atoms: S_7  and  N_10
REMARK    4  A    between atoms: N_10  and  C_12
REMARK    5  A    between atoms: C_19  and  C_20
REMARK    6  A    between atoms: N_22  and  O_24
REMARK                            x       y       z     vdW  Elec       q    Type
REMARK                         _______ _______ _______ _____ _____    ______ ____
ROOT
ATOM      1  C   UNL     1      30.778   0.091   4.090  0.00  0.00    +0.000 A 
ATOM      2  C   UNL     1      30.209   1.359   4.068  0.00  0.00    +0.000 A 
ATOM      3  C   UNL     1      28.840   1.489   4.280  0.00  0.00    +0.000 A 
ATOM      4  C   UNL     1      30.015  -1.043   4.348  0.00  0.00    +0.000 A 
ATOM      5  C   UNL     1      28.058   0.361   4.525  0.00  0.00    +0.000 A 
ATOM      6  C   UNL     1      28.646  -0.904   4.561  0.00  0.00    +0.000 A 
ENDROOT
BRANCH   1   7
ATOM      7  S   UNL     1      32.510  -0.081   3.864  0.00  0.00    +0.000 S 
ATOM      8  O   UNL     1      32.971  -1.052   4.833  0.00  0.00    +0.000 OA
ATOM      9  O   UNL     1      33.091   1.243   3.797  0.00  0.00    +0.000 OA
BRANCH   7  10
ATOM     10  N   UNL     1      32.635  -0.813   2.363  0.00  0.00    +0.000 N 
ATOM     11  H   UNL     1      33.006  -0.212   1.629  0.00  0.00    +0.000 HD
BRANCH  10  12
ATOM     12  C   UNL     1      32.635  -2.225   2.180  0.00  0.00    +0.000 A 
ATOM     13  C   UNL     1      31.464  -2.970   2.055  0.00  0.00    +0.000 A 
ATOM     14  C   UNL     1      31.522  -4.337   1.795  0.00  0.00    +0.000 A 
ATOM     15  C   UNL     1      32.755  -4.961   1.631  0.00  0.00    +0.000 A 
ATOM     16  C   UNL     1      33.928  -4.216   1.718  0.00  0.00    +0.000 A 
ATOM     17  C   UNL     1      33.866  -2.850   1.979  0.00  0.00    +0.000 A 
ENDBRANCH  10  12
ENDBRANCH   7  10
ENDBRANCH   1   7
BRANCH   3  18
ATOM     18  C   UNL     1      28.236   2.782   4.247  0.00  0.00    +0.000 C 
ATOM     19  C   UNL     1      27.728   3.869   4.216  0.00  0.00    +0.000 C 
BRANCH  19  20
ATOM     20  C   UNL     1      27.119   5.175   4.178  0.00  0.00    +0.000 C 
ATOM     21  O   UNL     1      26.540   5.562   3.169  0.00  0.00    +0.000 OA
ATOM     22  N   UNL     1      27.225   5.918   5.320  0.00  0.00    +0.000 N 
ATOM     23  H   UNL     1      27.649   5.591   6.180  0.00  0.00    +0.000 HD
BRANCH  22  24
ATOM     24  O   UNL     1      26.598   7.184   5.337  0.00  0.00    +0.000 OA
ATOM     25  H   UNL     1      25.929   7.083   6.048  0.00  0.00    +0.000 HD
ENDBRANCH  22  24
ENDBRANCH  19  20
ENDBRANCH   3  18
TORSDOF 6
ENDMDL
MODEL 8
REMARK VINA RESULT:      -6.6     19.359     20.643
REMARK  Name = Belinostat.pdbqt.pdb
REMARK  6 active torsions:
REMARK  status: ('A' for Active; 'I' for Inactive)
REMARK    1  A    between atoms: C_1  and  S_7
REMARK    2  A    between atoms: C_3  and  C_18
REMARK    3  A    between atoms: S_7  and  N_10
REMARK    4  A    between atoms: N_10  and  C_12
REMARK    5  A    between atoms: C_19  and  C_20
REMARK    6  A    between atoms: N_22  and  O_24
REMARK                            x       y       z     vdW  Elec       q    Type
REMARK                         _______ _______ _______ _____ _____    ______ ____
ROOT
ATOM      1  C   UNL     1      20.198  11.054  19.367  0.00  0.00    +0.000 A 
ATOM      2  C   UNL     1      20.582  12.380  19.532  0.00  0.00    +0.000 A 
ATOM      3  C   UNL     1      21.303  13.005  18.519  0.00  0.00    +0.000 A 
ATOM      4  C   UNL     1      20.494  10.351  18.204  0.00  0.00    +0.000 A 
ATOM      5  C   UNL     1      21.621  12.310  17.353  0.00  0.00    +0.000 A 
ATOM      6  C   UNL     1      21.215  10.984  17.195  0.00  0.00    +0.000 A 
ENDROOT
BRANCH   1   7
ATOM      7  S   UNL     1      19.253  10.268  20.621  0.00  0.00    +0.000 S 
ATOM      8  O   UNL     1      17.963   9.954  20.045  0.00  0.00    +0.000 OA
ATOM      9  O   UNL     1      19.360  11.056  21.829  0.00  0.00    +0.000 OA
BRANCH   7  10
ATOM     10  N   UNL     1      20.041   8.807  20.843  0.00  0.00    +0.000 N 
ATOM     11  H   UNL     1      20.827   8.846  21.490  0.00  0.00    +0.000 HD
BRANCH  10  12
ATOM     12  C   UNL     1      19.460   7.549  20.519  0.00  0.00    +0.000 A 
ATOM     13  C   UNL     1      19.834   6.811  19.398  0.00  0.00    +0.000 A 
ATOM     14  C   UNL     1      19.294   5.548  19.172  0.00  0.00    +0.000 A 
ATOM     15  C   UNL     1      18.394   5.004  20.084  0.00  0.00    +0.000 A 
ATOM     16  C   UNL     1      18.044   5.720  21.225  0.00  0.00    +0.000 A 
ATOM     17  C   UNL     1      18.586   6.983  21.447  0.00  0.00    +0.000 A 
ENDBRANCH  10  12
ENDBRANCH   7  10
ENDBRANCH   1   7
BRANCH   3  18
ATOM     18  C   UNL     1      21.718  14.361  18.677  0.00  0.00    +0.000 C 
ATOM     19  C   UNL     1      22.064  15.504  18.808  0.00  0.00    +0.000 C 
BRANCH  19  20
ATOM     20  C   UNL     1      22.479  16.875  18.964  0.00  0.00    +0.000 C 
ATOM     21  O   UNL     1      22.805  17.542  17.989  0.00  0.00    +0.000 OA
ATOM     22  N   UNL     1      22.473  17.360  20.242  0.00  0.00    +0.000 N 
ATOM     23  H   UNL     1      22.152  16.841  21.051  0.00  0.00    +0.000 HD
BRANCH  22  24
ATOM     24  O   UNL     1      22.827  18.714  20.429  0.00  0.00    +0.000 OA
ATOM     25  H   UNL     1      22.220  19.183  19.816  0.00  0.00    +0.000 HD
ENDBRANCH  22  24
ENDBRANCH  19  20
ENDBRANCH   3  18
TORSDOF 6
ENDMDL
MODEL 9
REMARK VINA RESULT:      -6.5      5.136      8.759
REMARK  Name = Belinostat.pdbqt.pdb
REMARK  6 active torsions:
REMARK  status: ('A' for Active; 'I' for Inactive)
REMARK    1  A    between atoms: C_1  and  S_7
REMARK    2  A    between atoms: C_3  and  C_18
REMARK    3  A    between atoms: S_7  and  N_10
REMARK    4  A    between atoms: N_10  and  C_12
REMARK    5  A    between atoms: C_19  and  C_20
REMARK    6  A    between atoms: N_22  and  O_24
REMARK                            x       y       z     vdW  Elec       q    Type
REMARK                         _______ _______ _______ _____ _____    ______ ____
ROOT
ATOM      1  C   UNL     1      38.211   3.061  11.905  0.00  0.00    +0.000 A 
ATOM      2  C   UNL     1      37.419   2.634  12.965  0.00  0.00    +0.000 A 
ATOM      3  C   UNL     1      36.505   1.607  12.753  0.00  0.00    +0.000 A 
ATOM      4  C   UNL     1      38.130   2.465  10.650  0.00  0.00    +0.000 A 
ATOM      5  C   UNL     1      36.399   1.009  11.498  0.00  0.00    +0.000 A 
ATOM      6  C   UNL     1      37.213   1.437  10.448  0.00  0.00    +0.000 A 
ENDROOT
BRANCH   1   7
ATOM      7  S   UNL     1      39.397   4.329  12.170  0.00  0.00    +0.000 S 
ATOM      8  O   UNL     1      40.408   3.786  13.051  0.00  0.00    +0.000 OA
ATOM      9  O   UNL     1      38.690   5.547  12.504  0.00  0.00    +0.000 OA
BRANCH   7  10
ATOM     10  N   UNL     1      40.120   4.505  10.670  0.00  0.00    +0.000 N 
ATOM     11  H   UNL     1      40.194   3.641  10.133  0.00  0.00    +0.000 HD
BRANCH  10  12
ATOM     12  C   UNL     1      40.248   5.757  10.006  0.00  0.00    +0.000 A 
ATOM     13  C   UNL     1      41.028   6.799  10.503  0.00  0.00    +0.000 A 
ATOM     14  C   UNL     1      41.185   7.974   9.773  0.00  0.00    +0.000 A 
ATOM     15  C   UNL     1      40.583   8.101   8.525  0.00  0.00    +0.000 A 
ATOM     16  C   UNL     1      39.832   7.050   8.005  0.00  0.00    +0.000 A 
ATOM     17  C   UNL     1      39.677   5.878   8.739  0.00  0.00    +0.000 A 
ENDBRANCH  10  12
ENDBRANCH   7  10
ENDBRANCH   1   7
BRANCH   3  18
ATOM     18  C   UNL     1      35.674   1.166  13.826  0.00  0.00    +0.000 C 
ATOM     19  C   UNL     1      34.973   0.797  14.728  0.00  0.00    +0.000 C 
BRANCH  19  20
ATOM     20  C   UNL     1      34.130   0.355  15.812  0.00  0.00    +0.000 C 
ATOM     21  O   UNL     1      34.313   0.770  16.950  0.00  0.00    +0.000 OA
ATOM     22  N   UNL     1      33.141  -0.527  15.478  0.00  0.00    +0.000 N 
ATOM     23  H   UNL     1      32.940  -0.835  14.533  0.00  0.00    +0.000 HD
BRANCH  22  24
ATOM     24  O   UNL     1      32.265  -0.945  16.505  0.00  0.00    +0.000 OA
ATOM     25  H   UNL     1      32.044  -1.864  16.238  0.00  0.00    +0.000 HD
ENDBRANCH  22  24
ENDBRANCH  19  20
ENDBRANCH   3  18
TORSDOF 6
ENDMDL
