MODEL 1
REMARK VINA RESULT:      -9.6      0.000      0.000
REMARK  Name = Benzo[a]pyrene.pdbqt.pdb
REMARK  0 active torsions:
REMARK  status: ('A' for Active; 'I' for Inactive)
REMARK                            x       y       z     vdW  Elec       q    Type
REMARK                         _______ _______ _______ _____ _____    ______ ____
ROOT
ATOM      1  C   UNL     1      33.945  -0.938  39.732  0.00  0.00    +0.000 A 
ATOM      2  C   UNL     1      32.579  -1.254  39.559  0.00  0.00    +0.000 A 
ATOM      3  C   UNL     1      34.513   0.170  39.064  0.00  0.00    +0.000 A 
ATOM      4  C   UNL     1      34.733  -1.744  40.581  0.00  0.00    +0.000 A 
ATOM      5  C   UNL     1      35.886   0.463  39.256  0.00  0.00    +0.000 A 
ATOM      6  C   UNL     1      31.773  -0.462  38.716  0.00  0.00    +0.000 A 
ATOM      7  C   UNL     1      32.017  -2.361  40.228  0.00  0.00    +0.000 A 
ATOM      8  C   UNL     1      36.658  -0.356  40.110  0.00  0.00    +0.000 A 
ATOM      9  C   UNL     1      36.080  -1.444  40.760  0.00  0.00    +0.000 A 
ATOM     10  C   UNL     1      33.680   0.937  38.231  0.00  0.00    +0.000 A 
ATOM     11  C   UNL     1      34.164  -2.835  41.235  0.00  0.00    +0.000 A 
ATOM     12  C   UNL     1      32.331   0.630  38.057  0.00  0.00    +0.000 A 
ATOM     13  C   UNL     1      32.815  -3.143  41.061  0.00  0.00    +0.000 A 
ATOM     14  C   UNL     1      30.425  -0.781  38.551  0.00  0.00    +0.000 A 
ATOM     15  C   UNL     1      30.667  -2.663  40.050  0.00  0.00    +0.000 A 
ATOM     16  C   UNL     1      36.524   1.546  38.629  0.00  0.00    +0.000 A 
ATOM     17  C   UNL     1      38.011  -0.086  40.314  0.00  0.00    +0.000 A 
ATOM     18  C   UNL     1      29.875  -1.876  39.214  0.00  0.00    +0.000 A 
ATOM     19  C   UNL     1      37.876   1.810  38.836  0.00  0.00    +0.000 A 
ATOM     20  C   UNL     1      38.620   0.994  39.680  0.00  0.00    +0.000 A 
ENDROOT
TORSDOF 0
ENDMDL
MODEL 2
REMARK VINA RESULT:      -9.5      2.169      6.211
REMARK  Name = Benzo[a]pyrene.pdbqt.pdb
REMARK  0 active torsions:
REMARK  status: ('A' for Active; 'I' for Inactive)
REMARK                            x       y       z     vdW  Elec       q    Type
REMARK                         _______ _______ _______ _____ _____    ______ ____
ROOT
ATOM      1  C   UNL     1      35.888  -0.248  38.213  0.00  0.00    +0.000 A 
ATOM      2  C   UNL     1      37.233  -0.131  37.795  0.00  0.00    +0.000 A 
ATOM      3  C   UNL     1      35.104  -1.347  37.797  0.00  0.00    +0.000 A 
ATOM      4  C   UNL     1      35.340   0.746  39.051  0.00  0.00    +0.000 A 
ATOM      5  C   UNL     1      33.758  -1.439  38.232  0.00  0.00    +0.000 A 
ATOM      6  C   UNL     1      37.800  -1.113  36.959  0.00  0.00    +0.000 A 
ATOM      7  C   UNL     1      38.012   0.968  38.214  0.00  0.00    +0.000 A 
ATOM      8  C   UNL     1      33.228  -0.432  39.070  0.00  0.00    +0.000 A 
ATOM      9  C   UNL     1      34.018   0.643  39.469  0.00  0.00    +0.000 A 
ATOM     10  C   UNL     1      35.702  -2.308  36.964  0.00  0.00    +0.000 A 
ATOM     11  C   UNL     1      36.122   1.827  39.456  0.00  0.00    +0.000 A 
ATOM     12  C   UNL     1      37.028  -2.197  36.549  0.00  0.00    +0.000 A 
ATOM     13  C   UNL     1      37.449   1.939  39.041  0.00  0.00    +0.000 A 
ATOM     14  C   UNL     1      39.128  -0.990  36.552  0.00  0.00    +0.000 A 
ATOM     15  C   UNL     1      39.338   1.074  37.795  0.00  0.00    +0.000 A 
ATOM     16  C   UNL     1      32.914  -2.500  37.862  0.00  0.00    +0.000 A 
ATOM     17  C   UNL     1      31.906  -0.503  39.510  0.00  0.00    +0.000 A 
ATOM     18  C   UNL     1      39.894   0.099  36.968  0.00  0.00    +0.000 A 
ATOM     19  C   UNL     1      31.594  -2.565  38.304  0.00  0.00    +0.000 A 
ATOM     20  C   UNL     1      31.091  -1.565  39.129  0.00  0.00    +0.000 A 
ENDROOT
TORSDOF 0
ENDMDL
MODEL 3
REMARK VINA RESULT:      -9.1     25.434     26.987
REMARK  Name = Benzo[a]pyrene.pdbqt.pdb
REMARK  0 active torsions:
REMARK  status: ('A' for Active; 'I' for Inactive)
REMARK                            x       y       z     vdW  Elec       q    Type
REMARK                         _______ _______ _______ _____ _____    ______ ____
ROOT
ATOM      1  C   UNL     1      19.662   8.606  19.399  0.00  0.00    +0.000 A 
ATOM      2  C   UNL     1      20.280   9.731  18.807  0.00  0.00    +0.000 A 
ATOM      3  C   UNL     1      19.918   7.307  18.904  0.00  0.00    +0.000 A 
ATOM      4  C   UNL     1      18.786   8.798  20.488  0.00  0.00    +0.000 A 
ATOM      5  C   UNL     1      19.285   6.198  19.517  0.00  0.00    +0.000 A 
ATOM      6  C   UNL     1      21.158   9.562  17.718  0.00  0.00    +0.000 A 
ATOM      7  C   UNL     1      20.020  11.025  19.304  0.00  0.00    +0.000 A 
ATOM      8  C   UNL     1      18.411   6.411  20.607  0.00  0.00    +0.000 A 
ATOM      9  C   UNL     1      18.171   7.699  21.079  0.00  0.00    +0.000 A 
ATOM     10  C   UNL     1      20.799   7.176  17.817  0.00  0.00    +0.000 A 
ATOM     11  C   UNL     1      18.539  10.083  20.969  0.00  0.00    +0.000 A 
ATOM     12  C   UNL     1      21.411   8.283  17.230  0.00  0.00    +0.000 A 
ATOM     13  C   UNL     1      19.151  11.190  20.382  0.00  0.00    +0.000 A 
ATOM     14  C   UNL     1      21.763  10.678  17.140  0.00  0.00    +0.000 A 
ATOM     15  C   UNL     1      20.636  12.128  18.713  0.00  0.00    +0.000 A 
ATOM     16  C   UNL     1      19.487   4.876  19.085  0.00  0.00    +0.000 A 
ATOM     17  C   UNL     1      17.777   5.334  21.225  0.00  0.00    +0.000 A 
ATOM     18  C   UNL     1      21.504  11.955  17.635  0.00  0.00    +0.000 A 
ATOM     19  C   UNL     1      18.851   3.804  19.706  0.00  0.00    +0.000 A 
ATOM     20  C   UNL     1      17.995   4.033  20.777  0.00  0.00    +0.000 A 
ENDROOT
TORSDOF 0
ENDMDL
MODEL 4
REMARK VINA RESULT:      -8.8     25.923     27.439
REMARK  Name = Benzo[a]pyrene.pdbqt.pdb
REMARK  0 active torsions:
REMARK  status: ('A' for Active; 'I' for Inactive)
REMARK                            x       y       z     vdW  Elec       q    Type
REMARK                         _______ _______ _______ _____ _____    ______ ____
ROOT
ATOM      1  C   UNL     1      20.398   9.438  18.640  0.00  0.00    +0.000 A 
ATOM      2  C   UNL     1      20.744  10.800  18.498  0.00  0.00    +0.000 A 
ATOM      3  C   UNL     1      19.440   9.040  19.599  0.00  0.00    +0.000 A 
ATOM      4  C   UNL     1      21.022   8.480  17.812  0.00  0.00    +0.000 A 
ATOM      5  C   UNL     1      19.112   7.667  19.720  0.00  0.00    +0.000 A 
ATOM      6  C   UNL     1      20.133  11.772  19.314  0.00  0.00    +0.000 A 
ATOM      7  C   UNL     1      21.701  11.192  17.538  0.00  0.00    +0.000 A 
ATOM      8  C   UNL     1      19.749   6.724  18.881  0.00  0.00    +0.000 A 
ATOM      9  C   UNL     1      20.690   7.136  17.942  0.00  0.00    +0.000 A 
ATOM     10  C   UNL     1      18.850  10.036  20.397  0.00  0.00    +0.000 A 
ATOM     11  C   UNL     1      21.966   8.883  16.868  0.00  0.00    +0.000 A 
ATOM     12  C   UNL     1      19.188  11.382  20.260  0.00  0.00    +0.000 A 
ATOM     13  C   UNL     1      22.304  10.228  16.731  0.00  0.00    +0.000 A 
ATOM     14  C   UNL     1      20.480  13.115  19.167  0.00  0.00    +0.000 A 
ATOM     15  C   UNL     1      22.035  12.539  17.406  0.00  0.00    +0.000 A 
ATOM     16  C   UNL     1      18.171   7.191  20.648  0.00  0.00    +0.000 A 
ATOM     17  C   UNL     1      19.442   5.367  18.983  0.00  0.00    +0.000 A 
ATOM     18  C   UNL     1      21.427  13.497  18.217  0.00  0.00    +0.000 A 
ATOM     19  C   UNL     1      17.868   5.835  20.746  0.00  0.00    +0.000 A 
ATOM     20  C   UNL     1      18.504   4.923  19.912  0.00  0.00    +0.000 A 
ENDROOT
TORSDOF 0
ENDMDL
MODEL 5
REMARK VINA RESULT:      -8.6     24.650     25.954
REMARK  Name = Benzo[a]pyrene.pdbqt.pdb
REMARK  0 active torsions:
REMARK  status: ('A' for Active; 'I' for Inactive)
REMARK                            x       y       z     vdW  Elec       q    Type
REMARK                         _______ _______ _______ _____ _____    ______ ____
ROOT
ATOM      1  C   UNL     1      36.433   0.148  14.136  0.00  0.00    +0.000 A 
ATOM      2  C   UNL     1      35.605  -0.293  15.192  0.00  0.00    +0.000 A 
ATOM      3  C   UNL     1      36.084   1.292  13.383  0.00  0.00    +0.000 A 
ATOM      4  C   UNL     1      37.612  -0.570  13.843  0.00  0.00    +0.000 A 
ATOM      5  C   UNL     1      36.933   1.711  12.329  0.00  0.00    +0.000 A 
ATOM      6  C   UNL     1      34.423   0.409  15.502  0.00  0.00    +0.000 A 
ATOM      7  C   UNL     1      35.958  -1.435  15.940  0.00  0.00    +0.000 A 
ATOM      8  C   UNL     1      38.110   0.978  12.052  0.00  0.00    +0.000 A 
ATOM      9  C   UNL     1      38.436  -0.147  12.805  0.00  0.00    +0.000 A 
ATOM     10  C   UNL     1      34.898   1.967  13.720  0.00  0.00    +0.000 A 
ATOM     11  C   UNL     1      37.948  -1.697  14.591  0.00  0.00    +0.000 A 
ATOM     12  C   UNL     1      34.078   1.536  14.761  0.00  0.00    +0.000 A 
ATOM     13  C   UNL     1      37.127  -2.128  15.632  0.00  0.00    +0.000 A 
ATOM     14  C   UNL     1      33.611  -0.033  16.546  0.00  0.00    +0.000 A 
ATOM     15  C   UNL     1      35.133  -1.861  16.981  0.00  0.00    +0.000 A 
ATOM     16  C   UNL     1      36.657   2.837  11.536  0.00  0.00    +0.000 A 
ATOM     17  C   UNL     1      38.960   1.372  11.019  0.00  0.00    +0.000 A 
ATOM     18  C   UNL     1      33.964  -1.163  17.283  0.00  0.00    +0.000 A 
ATOM     19  C   UNL     1      37.510   3.225  10.506  0.00  0.00    +0.000 A 
ATOM     20  C   UNL     1      38.662   2.493  10.248  0.00  0.00    +0.000 A 
ENDROOT
TORSDOF 0
ENDMDL
MODEL 6
REMARK VINA RESULT:      -8.5     25.864     26.933
REMARK  Name = Benzo[a]pyrene.pdbqt.pdb
REMARK  0 active torsions:
REMARK  status: ('A' for Active; 'I' for Inactive)
REMARK                            x       y       z     vdW  Elec       q    Type
REMARK                         _______ _______ _______ _____ _____    ______ ____
ROOT
ATOM      1  C   UNL     1      19.482   8.810  19.463  0.00  0.00    +0.000 A 
ATOM      2  C   UNL     1      19.096   7.469  19.682  0.00  0.00    +0.000 A 
ATOM      3  C   UNL     1      20.426   9.127  18.460  0.00  0.00    +0.000 A 
ATOM      4  C   UNL     1      18.914   9.827  20.258  0.00  0.00    +0.000 A 
ATOM      5  C   UNL     1      20.795  10.480  18.262  0.00  0.00    +0.000 A 
ATOM      6  C   UNL     1      19.652   6.437  18.900  0.00  0.00    +0.000 A 
ATOM      7  C   UNL     1      18.153   7.158  20.685  0.00  0.00    +0.000 A 
ATOM      8  C   UNL     1      20.214  11.485  19.069  0.00  0.00    +0.000 A 
ATOM      9  C   UNL     1      19.286  11.152  20.052  0.00  0.00    +0.000 A 
ATOM     10  C   UNL     1      20.960   8.073  17.698  0.00  0.00    +0.000 A 
ATOM     11  C   UNL     1      17.983   9.505  21.245  0.00  0.00    +0.000 A 
ATOM     12  C   UNL     1      20.582   6.748  17.911  0.00  0.00    +0.000 A 
ATOM     13  C   UNL     1      17.605   8.180  21.458  0.00  0.00    +0.000 A 
ATOM     14  C   UNL     1      19.264   5.116  19.123  0.00  0.00    +0.000 A 
ATOM     15  C   UNL     1      17.779   5.830  20.893  0.00  0.00    +0.000 A 
ATOM     16  C   UNL     1      21.726  10.877  17.287  0.00  0.00    +0.000 A 
ATOM     17  C   UNL     1      20.563  12.823  18.892  0.00  0.00    +0.000 A 
ATOM     18  C   UNL     1      18.332   4.814  20.115  0.00  0.00    +0.000 A 
ATOM     19  C   UNL     1      22.070  12.215  17.114  0.00  0.00    +0.000 A 
ATOM     20  C   UNL     1      21.488  13.189  17.917  0.00  0.00    +0.000 A 
ENDROOT
TORSDOF 0
ENDMDL
MODEL 7
REMARK VINA RESULT:      -8.0     26.022     27.441
REMARK  Name = Benzo[a]pyrene.pdbqt.pdb
REMARK  0 active torsions:
REMARK  status: ('A' for Active; 'I' for Inactive)
REMARK                            x       y       z     vdW  Elec       q    Type
REMARK                         _______ _______ _______ _____ _____    ______ ____
ROOT
ATOM      1  C   UNL     1      20.352  10.671  19.247  0.00  0.00    +0.000 A 
ATOM      2  C   UNL     1      20.315   9.285  18.973  0.00  0.00    +0.000 A 
ATOM      3  C   UNL     1      21.028  11.554  18.375  0.00  0.00    +0.000 A 
ATOM      4  C   UNL     1      19.707  11.160  20.402  0.00  0.00    +0.000 A 
ATOM      5  C   UNL     1      21.049  12.939  18.674  0.00  0.00    +0.000 A 
ATOM      6  C   UNL     1      20.953   8.775  17.825  0.00  0.00    +0.000 A 
ATOM      7  C   UNL     1      19.640   8.408  19.847  0.00  0.00    +0.000 A 
ATOM      8  C   UNL     1      20.396  13.409  19.836  0.00  0.00    +0.000 A 
ATOM      9  C   UNL     1      19.736  12.522  20.683  0.00  0.00    +0.000 A 
ATOM     10  C   UNL     1      21.653  11.011  17.239  0.00  0.00    +0.000 A 
ATOM     11  C   UNL     1      19.043  10.281  21.257  0.00  0.00    +0.000 A 
ATOM     12  C   UNL     1      21.619   9.645  16.965  0.00  0.00    +0.000 A 
ATOM     13  C   UNL     1      19.009   8.915  20.983  0.00  0.00    +0.000 A 
ATOM     14  C   UNL     1      20.912   7.407  17.563  0.00  0.00    +0.000 A 
ATOM     15  C   UNL     1      19.610   7.042  19.567  0.00  0.00    +0.000 A 
ATOM     16  C   UNL     1      21.698  13.880  17.858  0.00  0.00    +0.000 A 
ATOM     17  C   UNL     1      20.404  14.768  20.150  0.00  0.00    +0.000 A 
ATOM     18  C   UNL     1      20.243   6.544  18.430  0.00  0.00    +0.000 A 
ATOM     19  C   UNL     1      21.703  15.236  18.176  0.00  0.00    +0.000 A 
ATOM     20  C   UNL     1      21.055  15.680  19.323  0.00  0.00    +0.000 A 
ENDROOT
TORSDOF 0
ENDMDL
MODEL 8
REMARK VINA RESULT:      -7.9     25.940     27.682
REMARK  Name = Benzo[a]pyrene.pdbqt.pdb
REMARK  0 active torsions:
REMARK  status: ('A' for Active; 'I' for Inactive)
REMARK                            x       y       z     vdW  Elec       q    Type
REMARK                         _______ _______ _______ _____ _____    ______ ____
ROOT
ATOM      1  C   UNL     1      20.385  11.480  19.461  0.00  0.00    +0.000 A 
ATOM      2  C   UNL     1      20.681  12.851  19.293  0.00  0.00    +0.000 A 
ATOM      3  C   UNL     1      20.770  10.539  18.479  0.00  0.00    +0.000 A 
ATOM      4  C   UNL     1      19.700  11.062  20.622  0.00  0.00    +0.000 A 
ATOM      5  C   UNL     1      20.460   9.171  18.674  0.00  0.00    +0.000 A 
ATOM      6  C   UNL     1      21.364  13.289  18.141  0.00  0.00    +0.000 A 
ATOM      7  C   UNL     1      20.294  13.785  20.277  0.00  0.00    +0.000 A 
ATOM      8  C   UNL     1      19.773   8.773  19.843  0.00  0.00    +0.000 A 
ATOM      9  C   UNL     1      19.402   9.715  20.799  0.00  0.00    +0.000 A 
ATOM     10  C   UNL     1      21.450  11.012  17.343  0.00  0.00    +0.000 A 
ATOM     11  C   UNL     1      19.324  11.997  21.586  0.00  0.00    +0.000 A 
ATOM     12  C   UNL     1      21.744  12.364  17.173  0.00  0.00    +0.000 A 
ATOM     13  C   UNL     1      19.618  13.349  21.416  0.00  0.00    +0.000 A 
ATOM     14  C   UNL     1      21.652  14.644  17.984  0.00  0.00    +0.000 A 
ATOM     15  C   UNL     1      20.591  15.136  20.101  0.00  0.00    +0.000 A 
ATOM     16  C   UNL     1      20.808   8.176  17.745  0.00  0.00    +0.000 A 
ATOM     17  C   UNL     1      19.458   7.431  20.055  0.00  0.00    +0.000 A 
ATOM     18  C   UNL     1      21.267  15.564  18.959  0.00  0.00    +0.000 A 
ATOM     19  C   UNL     1      20.491   6.837  17.962  0.00  0.00    +0.000 A 
ATOM     20  C   UNL     1      19.815   6.465  19.118  0.00  0.00    +0.000 A 
ENDROOT
TORSDOF 0
ENDMDL
MODEL 9
REMARK VINA RESULT:      -7.6     14.112     16.385
REMARK  Name = Benzo[a]pyrene.pdbqt.pdb
REMARK  0 active torsions:
REMARK  status: ('A' for Active; 'I' for Inactive)
REMARK                            x       y       z     vdW  Elec       q    Type
REMARK                         _______ _______ _______ _____ _____    ______ ____
ROOT
ATOM      1  C   UNL     1      21.210  -9.390  43.831  0.00  0.00    +0.000 A 
ATOM      2  C   UNL     1      19.925  -9.466  43.249  0.00  0.00    +0.000 A 
ATOM      3  C   UNL     1      21.356  -9.075  45.201  0.00  0.00    +0.000 A 
ATOM      4  C   UNL     1      22.343  -9.634  43.027  0.00  0.00    +0.000 A 
ATOM      5  C   UNL     1      22.657  -9.006  45.758  0.00  0.00    +0.000 A 
ATOM      6  C   UNL     1      18.779  -9.226  44.033  0.00  0.00    +0.000 A 
ATOM      7  C   UNL     1      19.784  -9.781  41.881  0.00  0.00    +0.000 A 
ATOM      8  C   UNL     1      23.780  -9.253  44.936  0.00  0.00    +0.000 A 
ATOM      9  C   UNL     1      23.614  -9.562  43.589  0.00  0.00    +0.000 A 
ATOM     10  C   UNL     1      20.192  -8.842  45.953  0.00  0.00    +0.000 A 
ATOM     11  C   UNL     1      22.189  -9.944  41.677  0.00  0.00    +0.000 A 
ATOM     12  C   UNL     1      18.922  -8.916  45.383  0.00  0.00    +0.000 A 
ATOM     13  C   UNL     1      20.919 -10.017  41.106  0.00  0.00    +0.000 A 
ATOM     14  C   UNL     1      17.515  -9.303  43.450  0.00  0.00    +0.000 A 
ATOM     15  C   UNL     1      18.511  -9.853  41.316  0.00  0.00    +0.000 A 
ATOM     16  C   UNL     1      22.886  -8.699  47.110  0.00  0.00    +0.000 A 
ATOM     17  C   UNL     1      25.069  -9.191  45.464  0.00  0.00    +0.000 A 
ATOM     18  C   UNL     1      17.381  -9.615  42.098  0.00  0.00    +0.000 A 
ATOM     19  C   UNL     1      24.176  -8.638  47.632  0.00  0.00    +0.000 A 
ATOM     20  C   UNL     1      25.268  -8.884  46.808  0.00  0.00    +0.000 A 
ENDROOT
TORSDOF 0
ENDMDL
