MODEL 1
REMARK VINA RESULT:      -6.9      0.000      0.000
REMARK  Name = Bicalutamide.pdbqt.pdb
REMARK  8 active torsions:
REMARK  status: ('A' for Active; 'I' for Inactive)
REMARK    1  A    between atoms: C_2  and  N_13
REMARK    2  A    between atoms: C_5  and  C_9
REMARK    3  A    between atoms: C_6  and  C_8
REMARK    4  A    between atoms: C_14  and  C_17
REMARK    5  A    between atoms: C_17  and  O_19
REMARK    6  A    between atoms: C_17  and  C_21
REMARK    7  A    between atoms: C_21  and  S_22
REMARK    8  A    between atoms: S_22  and  C_25
REMARK                            x       y       z     vdW  Elec       q    Type
REMARK                         _______ _______ _______ _____ _____    ______ ____
ROOT
ATOM      1  N   UNL     1      18.699   8.152  19.864  0.00  0.00    +0.000 N 
ATOM      2  C   UNL     1      18.689   8.617  21.177  0.00  0.00    +0.000 C 
ATOM      3  O   UNL     1      18.484   7.911  22.170  0.00  0.00    +0.000 OA
ATOM      4  H   UNL     1      18.982   8.821  19.147  0.00  0.00    +0.000 HD
ENDROOT
BRANCH   1   5
ATOM      5  C   UNL     1      18.437   6.835  19.453  0.00  0.00    +0.000 A 
ATOM      6  C   UNL     1      17.107   6.420  19.409  0.00  0.00    +0.000 A 
ATOM      7  C   UNL     1      19.441   5.937  19.104  0.00  0.00    +0.000 A 
ATOM      8  C   UNL     1      16.764   5.120  19.019  0.00  0.00    +0.000 A 
ATOM      9  C   UNL     1      17.786   4.226  18.668  0.00  0.00    +0.000 A 
ATOM     10  C   UNL     1      19.118   4.640  18.714  0.00  0.00    +0.000 A 
BRANCH   8  11
ATOM     11  C   UNL     1      15.316   4.726  18.989  0.00  0.00    +0.000 C 
ATOM     12  F   UNL     1      14.862   4.441  17.737  0.00  0.00    +0.000 F 
ATOM     13  F   UNL     1      15.067   3.617  19.735  0.00  0.00    +0.000 F 
ATOM     14  F   UNL     1      14.501   5.704  19.465  0.00  0.00    +0.000 F 
ENDBRANCH   8  11
BRANCH   9  16
ATOM     15  N   UNL     1      17.285   1.793  17.931  0.00  0.00    +0.000 NA
ATOM     16  C   UNL     1      17.517   2.881  18.258  0.00  0.00    +0.000 C 
ENDBRANCH   9  16
ENDBRANCH   1   5
BRANCH   2  17
ATOM     17  C   UNL     1      18.923  10.173  21.344  0.00  0.00    +0.000 C 
ATOM     18  C   UNL     1      20.358  10.478  21.858  0.00  0.00    +0.000 C 
BRANCH  17  19
ATOM     19  O   UNL     1      18.015  10.707  22.294  0.00  0.00    +0.000 OA
ATOM     20  H   UNL     1      17.666   9.928  22.767  0.00  0.00    +0.000 HD
ENDBRANCH  17  19
BRANCH  17  21
ATOM     21  C   UNL     1      18.688  10.795  20.077  0.00  0.00    +0.000 C 
BRANCH  21  22
ATOM     22  S   UNL     1      18.472  11.353  18.459  0.00  0.00    +0.000 S 
ATOM     23  O   UNL     1      18.370  12.761  18.746  0.00  0.00    +0.000 OA
ATOM     24  O   UNL     1      17.371  10.481  18.128  0.00  0.00    +0.000 OA
BRANCH  22  25
ATOM     25  C   UNL     1      19.888  10.983  17.534  0.00  0.00    +0.000 A 
ATOM     26  C   UNL     1      20.046  11.604  16.300  0.00  0.00    +0.000 A 
ATOM     27  C   UNL     1      21.165  11.305  15.527  0.00  0.00    +0.000 A 
ATOM     28  C   UNL     1      22.099  10.389  16.003  0.00  0.00    +0.000 A 
ATOM     29  F   UNL     1      23.176  10.102  15.259  0.00  0.00    +0.000 F 
ATOM     30  C   UNL     1      21.934   9.765  17.236  0.00  0.00    +0.000 A 
ATOM     31  C   UNL     1      20.816  10.062  18.009  0.00  0.00    +0.000 A 
ENDBRANCH  22  25
ENDBRANCH  21  22
ENDBRANCH  17  21
ENDBRANCH   2  17
TORSDOF 8
ENDMDL
MODEL 2
REMARK VINA RESULT:      -6.9      3.375      5.328
REMARK  Name = Bicalutamide.pdbqt.pdb
REMARK  8 active torsions:
REMARK  status: ('A' for Active; 'I' for Inactive)
REMARK    1  A    between atoms: C_2  and  N_13
REMARK    2  A    between atoms: C_5  and  C_9
REMARK    3  A    between atoms: C_6  and  C_8
REMARK    4  A    between atoms: C_14  and  C_17
REMARK    5  A    between atoms: C_17  and  O_19
REMARK    6  A    between atoms: C_17  and  C_21
REMARK    7  A    between atoms: C_21  and  S_22
REMARK    8  A    between atoms: S_22  and  C_25
REMARK                            x       y       z     vdW  Elec       q    Type
REMARK                         _______ _______ _______ _____ _____    ______ ____
ROOT
ATOM      1  N   UNL     1      21.020  10.083  18.325  0.00  0.00    +0.000 N 
ATOM      2  C   UNL     1      20.419  11.065  17.541  0.00  0.00    +0.000 C 
ATOM      3  O   UNL     1      19.282  10.986  17.066  0.00  0.00    +0.000 OA
ATOM      4  H   UNL     1      21.924  10.319  18.736  0.00  0.00    +0.000 HD
ENDROOT
BRANCH   1   5
ATOM      5  C   UNL     1      20.459   8.841  18.665  0.00  0.00    +0.000 A 
ATOM      6  C   UNL     1      19.637   8.786  19.790  0.00  0.00    +0.000 A 
ATOM      7  C   UNL     1      20.699   7.678  17.940  0.00  0.00    +0.000 A 
ATOM      8  C   UNL     1      19.047   7.584  20.200  0.00  0.00    +0.000 A 
ATOM      9  C   UNL     1      19.296   6.420  19.459  0.00  0.00    +0.000 A 
ATOM     10  C   UNL     1      20.121   6.474  18.334  0.00  0.00    +0.000 A 
BRANCH   8  11
ATOM     11  C   UNL     1      18.171   7.581  21.418  0.00  0.00    +0.000 C 
ATOM     12  F   UNL     1      17.927   8.827  21.909  0.00  0.00    +0.000 F 
ATOM     13  F   UNL     1      16.951   7.033  21.176  0.00  0.00    +0.000 F 
ATOM     14  F   UNL     1      18.713   6.877  22.447  0.00  0.00    +0.000 F 
ENDBRANCH   8  11
BRANCH   9  16
ATOM     15  N   UNL     1      18.282   4.127  20.111  0.00  0.00    +0.000 NA
ATOM     16  C   UNL     1      18.731   5.153  19.813  0.00  0.00    +0.000 C 
ENDBRANCH   9  16
ENDBRANCH   1   5
BRANCH   2  17
ATOM     17  C   UNL     1      21.321  12.329  17.235  0.00  0.00    +0.000 C 
ATOM     18  C   UNL     1      20.925  12.994  15.886  0.00  0.00    +0.000 C 
BRANCH  17  19
ATOM     19  O   UNL     1      22.683  11.948  17.129  0.00  0.00    +0.000 OA
ATOM     20  H   UNL     1      23.103  12.670  16.624  0.00  0.00    +0.000 HD
ENDBRANCH  17  19
BRANCH  17  21
ATOM     21  C   UNL     1      21.180  13.248  18.322  0.00  0.00    +0.000 C 
BRANCH  21  22
ATOM     22  S   UNL     1      20.922  14.498  19.483  0.00  0.00    +0.000 S 
ATOM     23  O   UNL     1      20.071  15.340  18.682  0.00  0.00    +0.000 OA
ATOM     24  O   UNL     1      22.314  14.744  19.774  0.00  0.00    +0.000 OA
BRANCH  22  25
ATOM     25  C   UNL     1      20.083  13.843  20.849  0.00  0.00    +0.000 A 
ATOM     26  C   UNL     1      20.441  12.574  21.291  0.00  0.00    +0.000 A 
ATOM     27  C   UNL     1      19.765  12.017  22.373  0.00  0.00    +0.000 A 
ATOM     28  C   UNL     1      18.744  12.737  22.986  0.00  0.00    +0.000 A 
ATOM     29  F   UNL     1      18.093  12.200  24.027  0.00  0.00    +0.000 F 
ATOM     30  C   UNL     1      18.384  14.005  22.535  0.00  0.00    +0.000 A 
ATOM     31  C   UNL     1      19.058  14.563  21.454  0.00  0.00    +0.000 A 
ENDBRANCH  22  25
ENDBRANCH  21  22
ENDBRANCH  17  21
ENDBRANCH   2  17
TORSDOF 8
ENDMDL
MODEL 3
REMARK VINA RESULT:      -6.5      1.498      2.058
REMARK  Name = Bicalutamide.pdbqt.pdb
REMARK  8 active torsions:
REMARK  status: ('A' for Active; 'I' for Inactive)
REMARK    1  A    between atoms: C_2  and  N_13
REMARK    2  A    between atoms: C_5  and  C_9
REMARK    3  A    between atoms: C_6  and  C_8
REMARK    4  A    between atoms: C_14  and  C_17
REMARK    5  A    between atoms: C_17  and  O_19
REMARK    6  A    between atoms: C_17  and  C_21
REMARK    7  A    between atoms: C_21  and  S_22
REMARK    8  A    between atoms: S_22  and  C_25
REMARK                            x       y       z     vdW  Elec       q    Type
REMARK                         _______ _______ _______ _____ _____    ______ ____
ROOT
ATOM      1  N   UNL     1      17.964   6.180  20.783  0.00  0.00    +0.000 N 
ATOM      2  C   UNL     1      18.853   7.103  20.240  0.00  0.00    +0.000 C 
ATOM      3  O   UNL     1      19.404   6.985  19.140  0.00  0.00    +0.000 OA
ATOM      4  H   UNL     1      17.503   6.450  21.654  0.00  0.00    +0.000 HD
ENDROOT
BRANCH   1   5
ATOM      5  C   UNL     1      17.584   4.960  20.202  0.00  0.00    +0.000 A 
ATOM      6  C   UNL     1      16.496   4.966  19.330  0.00  0.00    +0.000 A 
ATOM      7  C   UNL     1      18.235   3.759  20.469  0.00  0.00    +0.000 A 
ATOM      8  C   UNL     1      16.049   3.789  18.717  0.00  0.00    +0.000 A 
ATOM      9  C   UNL     1      16.715   2.586  18.994  0.00  0.00    +0.000 A 
ATOM     10  C   UNL     1      17.804   2.579  19.868  0.00  0.00    +0.000 A 
BRANCH   8  11
ATOM     11  C   UNL     1      14.873   3.852  17.787  0.00  0.00    +0.000 C 
ATOM     12  F   UNL     1      14.371   5.109  17.640  0.00  0.00    +0.000 F 
ATOM     13  F   UNL     1      15.182   3.428  16.533  0.00  0.00    +0.000 F 
ATOM     14  F   UNL     1      13.834   3.085  18.211  0.00  0.00    +0.000 F 
ENDBRANCH   8  11
BRANCH   9  16
ATOM     15  N   UNL     1      15.999   0.328  17.946  0.00  0.00    +0.000 NA
ATOM     16  C   UNL     1      16.320   1.341  18.407  0.00  0.00    +0.000 C 
ENDBRANCH   9  16
ENDBRANCH   1   5
BRANCH   2  17
ATOM     17  C   UNL     1      19.176   8.351  21.158  0.00  0.00    +0.000 C 
ATOM     18  C   UNL     1      20.516   8.160  21.923  0.00  0.00    +0.000 C 
BRANCH  17  19
ATOM     19  O   UNL     1      18.159   8.521  22.132  0.00  0.00    +0.000 OA
ATOM     20  H   UNL     1      17.859   7.614  22.337  0.00  0.00    +0.000 HD
ENDBRANCH  17  19
BRANCH  17  21
ATOM     21  C   UNL     1      19.220   9.515  20.327  0.00  0.00    +0.000 C 
BRANCH  21  22
ATOM     22  S   UNL     1      19.087  10.839  19.229  0.00  0.00    +0.000 S 
ATOM     23  O   UNL     1      19.175  11.906  20.194  0.00  0.00    +0.000 OA
ATOM     24  O   UNL     1      17.881  10.393  18.575  0.00  0.00    +0.000 OA
BRANCH  22  25
ATOM     25  C   UNL     1      20.445  10.827  18.154  0.00  0.00    +0.000 A 
ATOM     26  C   UNL     1      20.934   9.597  17.729  0.00  0.00    +0.000 A 
ATOM     27  C   UNL     1      22.039   9.561  16.883  0.00  0.00    +0.000 A 
ATOM     28  C   UNL     1      22.635  10.754  16.485  0.00  0.00    +0.000 A 
ATOM     29  F   UNL     1      23.698  10.719  15.671  0.00  0.00    +0.000 F 
ATOM     30  C   UNL     1      22.147  11.984  16.920  0.00  0.00    +0.000 A 
ATOM     31  C   UNL     1      21.043  12.022  17.765  0.00  0.00    +0.000 A 
ENDBRANCH  22  25
ENDBRANCH  21  22
ENDBRANCH  17  21
ENDBRANCH   2  17
TORSDOF 8
ENDMDL
MODEL 4
REMARK VINA RESULT:      -6.2      2.585      3.519
REMARK  Name = Bicalutamide.pdbqt.pdb
REMARK  8 active torsions:
REMARK  status: ('A' for Active; 'I' for Inactive)
REMARK    1  A    between atoms: C_2  and  N_13
REMARK    2  A    between atoms: C_5  and  C_9
REMARK    3  A    between atoms: C_6  and  C_8
REMARK    4  A    between atoms: C_14  and  C_17
REMARK    5  A    between atoms: C_17  and  O_19
REMARK    6  A    between atoms: C_17  and  C_21
REMARK    7  A    between atoms: C_21  and  S_22
REMARK    8  A    between atoms: S_22  and  C_25
REMARK                            x       y       z     vdW  Elec       q    Type
REMARK                         _______ _______ _______ _____ _____    ______ ____
ROOT
ATOM      1  N   UNL     1      15.428   7.274  19.127  0.00  0.00    +0.000 N 
ATOM      2  C   UNL     1      15.325   8.184  20.176  0.00  0.00    +0.000 C 
ATOM      3  O   UNL     1      15.508   7.908  21.366  0.00  0.00    +0.000 OA
ATOM      4  H   UNL     1      15.351   7.656  18.183  0.00  0.00    +0.000 HD
ENDROOT
BRANCH   1   5
ATOM      5  C   UNL     1      15.709   5.903  19.248  0.00  0.00    +0.000 A 
ATOM      6  C   UNL     1      17.046   5.521  19.351  0.00  0.00    +0.000 A 
ATOM      7  C   UNL     1      14.720   4.925  19.256  0.00  0.00    +0.000 A 
ATOM      8  C   UNL     1      17.410   4.174  19.466  0.00  0.00    +0.000 A 
ATOM      9  C   UNL     1      16.402   3.199  19.475  0.00  0.00    +0.000 A 
ATOM     10  C   UNL     1      15.064   3.580  19.370  0.00  0.00    +0.000 A 
BRANCH   8  11
ATOM     11  C   UNL     1      18.864   3.818  19.575  0.00  0.00    +0.000 C 
ATOM     12  F   UNL     1      19.690   4.898  19.495  0.00  0.00    +0.000 F 
ATOM     13  F   UNL     1      19.161   3.211  20.754  0.00  0.00    +0.000 F 
ATOM     14  F   UNL     1      19.266   2.971  18.590  0.00  0.00    +0.000 F 
ENDBRANCH   8  11
BRANCH   9  16
ATOM     15  N   UNL     1      16.928   0.669  19.668  0.00  0.00    +0.000 NA
ATOM     16  C   UNL     1      16.692   1.801  19.590  0.00  0.00    +0.000 C 
ENDBRANCH   9  16
ENDBRANCH   1   5
BRANCH   2  17
ATOM     17  C   UNL     1      14.900   9.650  19.757  0.00  0.00    +0.000 C 
ATOM     18  C   UNL     1      13.868  10.246  20.757  0.00  0.00    +0.000 C 
BRANCH  17  19
ATOM     19  O   UNL     1      14.285   9.638  18.479  0.00  0.00    +0.000 OA
ATOM     20  H   UNL     1      14.393   8.721  18.162  0.00  0.00    +0.000 HD
ENDBRANCH  17  19
BRANCH  17  21
ATOM     21  C   UNL     1      16.081  10.455  19.697  0.00  0.00    +0.000 C 
BRANCH  21  22
ATOM     22  S   UNL     1      17.617  11.240  19.685  0.00  0.00    +0.000 S 
ATOM     23  O   UNL     1      17.736  11.465  21.103  0.00  0.00    +0.000 OA
ATOM     24  O   UNL     1      17.284  12.241  18.700  0.00  0.00    +0.000 OA
BRANCH  22  25
ATOM     25  C   UNL     1      18.817  10.137  19.103  0.00  0.00    +0.000 A 
ATOM     26  C   UNL     1      19.715  10.591  18.142  0.00  0.00    +0.000 A 
ATOM     27  C   UNL     1      20.675   9.716  17.642  0.00  0.00    +0.000 A 
ATOM     28  C   UNL     1      20.714   8.405  18.109  0.00  0.00    +0.000 A 
ATOM     29  F   UNL     1      21.639   7.563  17.627  0.00  0.00    +0.000 F 
ATOM     30  C   UNL     1      19.810   7.953  19.066  0.00  0.00    +0.000 A 
ATOM     31  C   UNL     1      18.849   8.825  19.566  0.00  0.00    +0.000 A 
ENDBRANCH  22  25
ENDBRANCH  21  22
ENDBRANCH  17  21
ENDBRANCH   2  17
TORSDOF 8
ENDMDL
MODEL 5
REMARK VINA RESULT:      -6.2     16.896     19.700
REMARK  Name = Bicalutamide.pdbqt.pdb
REMARK  8 active torsions:
REMARK  status: ('A' for Active; 'I' for Inactive)
REMARK    1  A    between atoms: C_2  and  N_13
REMARK    2  A    between atoms: C_5  and  C_9
REMARK    3  A    between atoms: C_6  and  C_8
REMARK    4  A    between atoms: C_14  and  C_17
REMARK    5  A    between atoms: C_17  and  O_19
REMARK    6  A    between atoms: C_17  and  C_21
REMARK    7  A    between atoms: C_21  and  S_22
REMARK    8  A    between atoms: S_22  and  C_25
REMARK                            x       y       z     vdW  Elec       q    Type
REMARK                         _______ _______ _______ _____ _____    ______ ____
ROOT
ATOM      1  N   UNL     1      28.438   2.453   4.514  0.00  0.00    +0.000 N 
ATOM      2  C   UNL     1      27.805   3.229   3.546  0.00  0.00    +0.000 C 
ATOM      3  O   UNL     1      27.985   3.119   2.329  0.00  0.00    +0.000 OA
ATOM      4  H   UNL     1      28.122   2.579   5.477  0.00  0.00    +0.000 HD
ENDROOT
BRANCH   1   5
ATOM      5  C   UNL     1      29.404   1.463   4.275  0.00  0.00    +0.000 A 
ATOM      6  C   UNL     1      30.708   1.877   4.007  0.00  0.00    +0.000 A 
ATOM      7  C   UNL     1      29.111   0.102   4.282  0.00  0.00    +0.000 A 
ATOM      8  C   UNL     1      31.727   0.952   3.750  0.00  0.00    +0.000 A 
ATOM      9  C   UNL     1      31.418  -0.416   3.762  0.00  0.00    +0.000 A 
ATOM     10  C   UNL     1      30.112  -0.832   4.027  0.00  0.00    +0.000 A 
BRANCH   8  11
ATOM     11  C   UNL     1      33.113   1.453   3.468  0.00  0.00    +0.000 C 
ATOM     12  F   UNL     1      33.679   0.880   2.370  0.00  0.00    +0.000 F 
ATOM     13  F   UNL     1      33.143   2.793   3.243  0.00  0.00    +0.000 F 
ATOM     14  F   UNL     1      33.970   1.214   4.495  0.00  0.00    +0.000 F 
ENDBRANCH   8  11
BRANCH   9  16
ATOM     15  N   UNL     1      33.191  -2.246   3.294  0.00  0.00    +0.000 NA
ATOM     16  C   UNL     1      32.403  -1.424   3.509  0.00  0.00    +0.000 C 
ENDBRANCH   9  16
ENDBRANCH   1   5
BRANCH   2  17
ATOM     17  C   UNL     1      26.828   4.342   4.106  0.00  0.00    +0.000 C 
ATOM     18  C   UNL     1      26.653   5.505   3.089  0.00  0.00    +0.000 C 
BRANCH  17  19
ATOM     19  O   UNL     1      27.355   4.904   5.297  0.00  0.00    +0.000 OA
ATOM     20  H   UNL     1      27.753   4.149   5.772  0.00  0.00    +0.000 HD
ENDBRANCH  17  19
BRANCH  17  21
ATOM     21  C   UNL     1      25.573   3.723   4.401  0.00  0.00    +0.000 C 
BRANCH  21  22
ATOM     22  S   UNL     1      24.019   2.985   4.536  0.00  0.00    +0.000 S 
ATOM     23  O   UNL     1      23.683   2.974   3.135  0.00  0.00    +0.000 OA
ATOM     24  O   UNL     1      23.488   3.896   5.521  0.00  0.00    +0.000 OA
BRANCH  22  25
ATOM     25  C   UNL     1      24.201   1.384   5.169  0.00  0.00    +0.000 A 
ATOM     26  C   UNL     1      23.107   0.799   5.798  0.00  0.00    +0.000 A 
ATOM     27  C   UNL     1      23.235  -0.478   6.335  0.00  0.00    +0.000 A 
ATOM     28  C   UNL     1      24.455  -1.141   6.239  0.00  0.00    +0.000 A 
ATOM     29  F   UNL     1      24.579  -2.371   6.756  0.00  0.00    +0.000 F 
ATOM     30  C   UNL     1      25.551  -0.549   5.615  0.00  0.00    +0.000 A 
ATOM     31  C   UNL     1      25.424   0.727   5.078  0.00  0.00    +0.000 A 
ENDBRANCH  22  25
ENDBRANCH  21  22
ENDBRANCH  17  21
ENDBRANCH   2  17
TORSDOF 8
ENDMDL
MODEL 6
REMARK VINA RESULT:      -6.1      4.352      5.432
REMARK  Name = Bicalutamide.pdbqt.pdb
REMARK  8 active torsions:
REMARK  status: ('A' for Active; 'I' for Inactive)
REMARK    1  A    between atoms: C_2  and  N_13
REMARK    2  A    between atoms: C_5  and  C_9
REMARK    3  A    between atoms: C_6  and  C_8
REMARK    4  A    between atoms: C_14  and  C_17
REMARK    5  A    between atoms: C_17  and  O_19
REMARK    6  A    between atoms: C_17  and  C_21
REMARK    7  A    between atoms: C_21  and  S_22
REMARK    8  A    between atoms: S_22  and  C_25
REMARK                            x       y       z     vdW  Elec       q    Type
REMARK                         _______ _______ _______ _____ _____    ______ ____
ROOT
ATOM      1  N   UNL     1      20.687  10.549  18.437  0.00  0.00    +0.000 N 
ATOM      2  C   UNL     1      20.164  11.439  17.503  0.00  0.00    +0.000 C 
ATOM      3  O   UNL     1      19.296  11.155  16.671  0.00  0.00    +0.000 OA
ATOM      4  H   UNL     1      21.325  10.940  19.132  0.00  0.00    +0.000 HD
ENDROOT
BRANCH   1   5
ATOM      5  C   UNL     1      20.352   9.191  18.560  0.00  0.00    +0.000 A 
ATOM      6  C   UNL     1      19.415   8.837  19.530  0.00  0.00    +0.000 A 
ATOM      7  C   UNL     1      20.921   8.197  17.770  0.00  0.00    +0.000 A 
ATOM      8  C   UNL     1      19.035   7.504  19.722  0.00  0.00    +0.000 A 
ATOM      9  C   UNL     1      19.615   6.512  18.917  0.00  0.00    +0.000 A 
ATOM     10  C   UNL     1      20.555   6.864  17.947  0.00  0.00    +0.000 A 
BRANCH   8  11
ATOM     11  C   UNL     1      18.022   7.179  20.780  0.00  0.00    +0.000 C 
ATOM     12  F   UNL     1      16.936   6.513  20.298  0.00  0.00    +0.000 F 
ATOM     13  F   UNL     1      18.534   6.390  21.761  0.00  0.00    +0.000 F 
ATOM     14  F   UNL     1      17.534   8.290  21.391  0.00  0.00    +0.000 F 
ENDBRANCH   8  11
BRANCH   9  16
ATOM     15  N   UNL     1      19.017   4.001  19.148  0.00  0.00    +0.000 NA
ATOM     16  C   UNL     1      19.279   5.127  19.050  0.00  0.00    +0.000 C 
ENDBRANCH   9  16
ENDBRANCH   1   5
BRANCH   2  17
ATOM     17  C   UNL     1      20.795  12.891  17.527  0.00  0.00    +0.000 C 
ATOM     18  C   UNL     1      20.338  13.727  16.299  0.00  0.00    +0.000 C 
BRANCH  17  19
ATOM     19  O   UNL     1      22.210  12.813  17.478  0.00  0.00    +0.000 OA
ATOM     20  H   UNL     1      22.516  13.467  18.136  0.00  0.00    +0.000 HD
ENDBRANCH  17  19
BRANCH  17  21
ATOM     21  C   UNL     1      20.407  13.522  18.751  0.00  0.00    +0.000 C 
BRANCH  21  22
ATOM     22  S   UNL     1      19.851  14.444  20.099  0.00  0.00    +0.000 S 
ATOM     23  O   UNL     1      20.346  13.585  21.145  0.00  0.00    +0.000 OA
ATOM     24  O   UNL     1      18.476  14.547  19.675  0.00  0.00    +0.000 OA
BRANCH  22  25
ATOM     25  C   UNL     1      20.642  15.985  20.101  0.00  0.00    +0.000 A 
ATOM     26  C   UNL     1      19.996  17.053  20.715  0.00  0.00    +0.000 A 
ATOM     27  C   UNL     1      20.601  18.306  20.709  0.00  0.00    +0.000 A 
ATOM     28  C   UNL     1      21.835  18.467  20.086  0.00  0.00    +0.000 A 
ATOM     29  F   UNL     1      22.417  19.674  20.081  0.00  0.00    +0.000 F 
ATOM     30  C   UNL     1      22.475  17.397  19.467  0.00  0.00    +0.000 A 
ATOM     31  C   UNL     1      21.872  16.144  19.471  0.00  0.00    +0.000 A 
ENDBRANCH  22  25
ENDBRANCH  21  22
ENDBRANCH  17  21
ENDBRANCH   2  17
TORSDOF 8
ENDMDL
MODEL 7
REMARK VINA RESULT:      -6.1     23.976     26.475
REMARK  Name = Bicalutamide.pdbqt.pdb
REMARK  8 active torsions:
REMARK  status: ('A' for Active; 'I' for Inactive)
REMARK    1  A    between atoms: C_2  and  N_13
REMARK    2  A    between atoms: C_5  and  C_9
REMARK    3  A    between atoms: C_6  and  C_8
REMARK    4  A    between atoms: C_14  and  C_17
REMARK    5  A    between atoms: C_17  and  O_19
REMARK    6  A    between atoms: C_17  and  C_21
REMARK    7  A    between atoms: C_21  and  S_22
REMARK    8  A    between atoms: S_22  and  C_25
REMARK                            x       y       z     vdW  Elec       q    Type
REMARK                         _______ _______ _______ _____ _____    ______ ____
ROOT
ATOM      1  N   UNL     1      44.698   8.054  19.278  0.00  0.00    +0.000 N 
ATOM      2  C   UNL     1      45.418   9.241  19.163  0.00  0.00    +0.000 C 
ATOM      3  O   UNL     1      45.167  10.138  18.352  0.00  0.00    +0.000 OA
ATOM      4  H   UNL     1      44.949   7.444  20.057  0.00  0.00    +0.000 HD
ENDROOT
BRANCH   1   5
ATOM      5  C   UNL     1      43.613   7.666  18.476  0.00  0.00    +0.000 A 
ATOM      6  C   UNL     1      42.333   7.768  19.020  0.00  0.00    +0.000 A 
ATOM      7  C   UNL     1      43.764   7.178  17.182  0.00  0.00    +0.000 A 
ATOM      8  C   UNL     1      41.200   7.393  18.289  0.00  0.00    +0.000 A 
ATOM      9  C   UNL     1      41.367   6.905  16.984  0.00  0.00    +0.000 A 
ATOM     10  C   UNL     1      42.648   6.800  16.439  0.00  0.00    +0.000 A 
BRANCH   8  11
ATOM     11  C   UNL     1      39.846   7.524  18.923  0.00  0.00    +0.000 C 
ATOM     12  F   UNL     1      39.074   6.412  18.775  0.00  0.00    +0.000 F 
ATOM     13  F   UNL     1      39.921   7.748  20.261  0.00  0.00    +0.000 F 
ATOM     14  F   UNL     1      39.124   8.548  18.398  0.00  0.00    +0.000 F 
ENDBRANCH   8  11
BRANCH   9  16
ATOM     15  N   UNL     1      39.370   6.179  15.503  0.00  0.00    +0.000 NA
ATOM     16  C   UNL     1      40.260   6.501  16.172  0.00  0.00    +0.000 C 
ENDBRANCH   9  16
ENDBRANCH   1   5
BRANCH   2  17
ATOM     17  C   UNL     1      46.658   9.375  20.137  0.00  0.00    +0.000 C 
ATOM     18  C   UNL     1      46.563  10.666  20.999  0.00  0.00    +0.000 C 
BRANCH  17  19
ATOM     19  O   UNL     1      47.862   9.458  19.392  0.00  0.00    +0.000 OA
ATOM     20  H   UNL     1      47.778  10.284  18.878  0.00  0.00    +0.000 HD
ENDBRANCH  17  19
BRANCH  17  21
ATOM     21  C   UNL     1      46.703   8.208  20.963  0.00  0.00    +0.000 C 
BRANCH  21  22
ATOM     22  S   UNL     1      46.537   6.831  21.989  0.00  0.00    +0.000 S 
ATOM     23  O   UNL     1      45.100   6.729  21.953  0.00  0.00    +0.000 OA
ATOM     24  O   UNL     1      47.317   7.348  23.087  0.00  0.00    +0.000 OA
BRANCH  22  25
ATOM     25  C   UNL     1      47.300   5.468  21.241  0.00  0.00    +0.000 A 
ATOM     26  C   UNL     1      46.495   4.411  20.829  0.00  0.00    +0.000 A 
ATOM     27  C   UNL     1      47.087   3.294  20.246  0.00  0.00    +0.000 A 
ATOM     28  C   UNL     1      48.470   3.255  20.093  0.00  0.00    +0.000 A 
ATOM     29  F   UNL     1      49.039   2.179  19.532  0.00  0.00    +0.000 F 
ATOM     30  C   UNL     1      49.272   4.312  20.513  0.00  0.00    +0.000 A 
ATOM     31  C   UNL     1      48.683   5.429  21.096  0.00  0.00    +0.000 A 
ENDBRANCH  22  25
ENDBRANCH  21  22
ENDBRANCH  17  21
ENDBRANCH   2  17
TORSDOF 8
ENDMDL
MODEL 8
REMARK VINA RESULT:      -6.0     22.828     25.261
REMARK  Name = Bicalutamide.pdbqt.pdb
REMARK  8 active torsions:
REMARK  status: ('A' for Active; 'I' for Inactive)
REMARK    1  A    between atoms: C_2  and  N_13
REMARK    2  A    between atoms: C_5  and  C_9
REMARK    3  A    between atoms: C_6  and  C_8
REMARK    4  A    between atoms: C_14  and  C_17
REMARK    5  A    between atoms: C_17  and  O_19
REMARK    6  A    between atoms: C_17  and  C_21
REMARK    7  A    between atoms: C_21  and  S_22
REMARK    8  A    between atoms: S_22  and  C_25
REMARK                            x       y       z     vdW  Elec       q    Type
REMARK                         _______ _______ _______ _____ _____    ______ ____
ROOT
ATOM      1  N   UNL     1      42.009   0.840  12.616  0.00  0.00    +0.000 N 
ATOM      2  C   UNL     1      41.189   1.509  11.710  0.00  0.00    +0.000 C 
ATOM      3  O   UNL     1      41.349   1.510  10.485  0.00  0.00    +0.000 OA
ATOM      4  H   UNL     1      41.705   0.839  13.590  0.00  0.00    +0.000 HD
ENDROOT
BRANCH   1   5
ATOM      5  C   UNL     1      43.161   0.102  12.297  0.00  0.00    +0.000 A 
ATOM      6  C   UNL     1      42.994  -1.092  11.596  0.00  0.00    +0.000 A 
ATOM      7  C   UNL     1      44.442   0.505  12.659  0.00  0.00    +0.000 A 
ATOM      8  C   UNL     1      44.091  -1.889  11.248  0.00  0.00    +0.000 A 
ATOM      9  C   UNL     1      45.378  -1.470  11.619  0.00  0.00    +0.000 A 
ATOM     10  C   UNL     1      45.545  -0.276  12.322  0.00  0.00    +0.000 A 
BRANCH   8  11
ATOM     11  C   UNL     1      43.856  -3.165  10.493  0.00  0.00    +0.000 C 
ATOM     12  F   UNL     1      44.153  -4.280  11.216  0.00  0.00    +0.000 F 
ATOM     13  F   UNL     1      42.560  -3.307  10.110  0.00  0.00    +0.000 F 
ATOM     14  F   UNL     1      44.606  -3.245   9.363  0.00  0.00    +0.000 F 
ENDBRANCH   8  11
BRANCH   9  16
ATOM     15  N   UNL     1      47.501  -2.834  11.033  0.00  0.00    +0.000 NA
ATOM     16  C   UNL     1      46.549  -2.229  11.301  0.00  0.00    +0.000 C 
ENDBRANCH   9  16
ENDBRANCH   1   5
BRANCH   2  17
ATOM     17  C   UNL     1      40.011   2.345  12.357  0.00  0.00    +0.000 C 
ATOM     18  C   UNL     1      39.967   3.792  11.791  0.00  0.00    +0.000 C 
BRANCH  17  19
ATOM     19  O   UNL     1      40.195   2.449  13.760  0.00  0.00    +0.000 OA
ATOM     20  H   UNL     1      41.108   2.141  13.913  0.00  0.00    +0.000 HD
ENDBRANCH  17  19
BRANCH  17  21
ATOM     21  C   UNL     1      38.784   1.655  12.100  0.00  0.00    +0.000 C 
BRANCH  21  22
ATOM     22  S   UNL     1      37.203   1.014  11.848  0.00  0.00    +0.000 S 
ATOM     23  O   UNL     1      37.592  -0.281  11.349  0.00  0.00    +0.000 OA
ATOM     24  O   UNL     1      36.705   2.107  11.049  0.00  0.00    +0.000 OA
BRANCH  22  25
ATOM     25  C   UNL     1      36.385   0.901  13.369  0.00  0.00    +0.000 A 
ATOM     26  C   UNL     1      35.257   1.690  13.567  0.00  0.00    +0.000 A 
ATOM     27  C   UNL     1      34.595   1.634  14.790  0.00  0.00    +0.000 A 
ATOM     28  C   UNL     1      35.077   0.794  15.791  0.00  0.00    +0.000 A 
ATOM     29  F   UNL     1      34.439   0.741  16.968  0.00  0.00    +0.000 F 
ATOM     30  C   UNL     1      36.210   0.011  15.591  0.00  0.00    +0.000 A 
ATOM     31  C   UNL     1      36.873   0.066  14.370  0.00  0.00    +0.000 A 
ENDBRANCH  22  25
ENDBRANCH  21  22
ENDBRANCH  17  21
ENDBRANCH   2  17
TORSDOF 8
ENDMDL
MODEL 9
REMARK VINA RESULT:      -6.0     24.343     26.848
REMARK  Name = Bicalutamide.pdbqt.pdb
REMARK  8 active torsions:
REMARK  status: ('A' for Active; 'I' for Inactive)
REMARK    1  A    between atoms: C_2  and  N_13
REMARK    2  A    between atoms: C_5  and  C_9
REMARK    3  A    between atoms: C_6  and  C_8
REMARK    4  A    between atoms: C_14  and  C_17
REMARK    5  A    between atoms: C_17  and  O_19
REMARK    6  A    between atoms: C_17  and  C_21
REMARK    7  A    between atoms: C_21  and  S_22
REMARK    8  A    between atoms: S_22  and  C_25
REMARK                            x       y       z     vdW  Elec       q    Type
REMARK                         _______ _______ _______ _____ _____    ______ ____
ROOT
ATOM      1  N   UNL     1      42.211  -0.953   9.294  0.00  0.00    +0.000 N 
ATOM      2  C   UNL     1      40.841  -1.198   9.230  0.00  0.00    +0.000 C 
ATOM      3  O   UNL     1      40.295  -2.234   9.623  0.00  0.00    +0.000 OA
ATOM      4  H   UNL     1      42.518  -0.016   9.028  0.00  0.00    +0.000 HD
ENDROOT
BRANCH   1   5
ATOM      5  C   UNL     1      43.188  -1.844   9.765  0.00  0.00    +0.000 A 
ATOM      6  C   UNL     1      44.152  -2.289   8.861  0.00  0.00    +0.000 A 
ATOM      7  C   UNL     1      43.223  -2.304  11.078  0.00  0.00    +0.000 A 
ATOM      8  C   UNL     1      45.154  -3.186   9.250  0.00  0.00    +0.000 A 
ATOM      9  C   UNL     1      45.179  -3.640  10.578  0.00  0.00    +0.000 A 
ATOM     10  C   UNL     1      44.213  -3.196  11.483  0.00  0.00    +0.000 A 
BRANCH   8  11
ATOM     11  C   UNL     1      46.167  -3.632   8.237  0.00  0.00    +0.000 C 
ATOM     12  F   UNL     1      47.421  -3.164   8.488  0.00  0.00    +0.000 F 
ATOM     13  F   UNL     1      46.281  -4.985   8.181  0.00  0.00    +0.000 F 
ATOM     14  F   UNL     1      45.862  -3.217   6.980  0.00  0.00    +0.000 F 
ENDBRANCH   8  11
BRANCH   9  16
ATOM     15  N   UNL     1      46.970  -5.307  11.428  0.00  0.00    +0.000 NA
ATOM     16  C   UNL     1      46.171  -4.556  11.053  0.00  0.00    +0.000 C 
ENDBRANCH   9  16
ENDBRANCH   1   5
BRANCH   2  17
ATOM     17  C   UNL     1      39.980  -0.051   8.561  0.00  0.00    +0.000 C 
ATOM     18  C   UNL     1      39.848  -0.265   7.027  0.00  0.00    +0.000 C 
BRANCH  17  19
ATOM     19  O   UNL     1      40.603   1.208   8.756  0.00  0.00    +0.000 OA
ATOM     20  H   UNL     1      40.447   1.418   9.696  0.00  0.00    +0.000 HD
ENDBRANCH  17  19
BRANCH  17  21
ATOM     21  C   UNL     1      38.696  -0.036   9.191  0.00  0.00    +0.000 C 
BRANCH  21  22
ATOM     22  S   UNL     1      37.105  -0.204   9.835  0.00  0.00    +0.000 S 
ATOM     23  O   UNL     1      37.055  -1.644   9.866  0.00  0.00    +0.000 OA
ATOM     24  O   UNL     1      36.444   0.640   8.869  0.00  0.00    +0.000 OA
BRANCH  22  25
ATOM     25  C   UNL     1      37.058   0.478  11.426  0.00  0.00    +0.000 A 
ATOM     26  C   UNL     1      36.366   1.670  11.609  0.00  0.00    +0.000 A 
ATOM     27  C   UNL     1      36.334   2.250  12.874  0.00  0.00    +0.000 A 
ATOM     28  C   UNL     1      36.998   1.629  13.928  0.00  0.00    +0.000 A 
ATOM     29  F   UNL     1      36.967   2.187  15.145  0.00  0.00    +0.000 F 
ATOM     30  C   UNL     1      37.696   0.439  13.739  0.00  0.00    +0.000 A 
ATOM     31  C   UNL     1      37.730  -0.142  12.476  0.00  0.00    +0.000 A 
ENDBRANCH  22  25
ENDBRANCH  21  22
ENDBRANCH  17  21
ENDBRANCH   2  17
TORSDOF 8
ENDMDL
