MODEL 1
REMARK VINA RESULT:      -6.8      0.000      0.000
REMARK  Name = Bisphenol_A.pdbqt.pdb
REMARK  4 active torsions:
REMARK  status: ('A' for Active; 'I' for Inactive)
REMARK    1  A    between atoms: C_1  and  C_4
REMARK    2  A    between atoms: C_1  and  C_12
REMARK    3  A    between atoms: C_7  and  O_10
REMARK    4  A    between atoms: C_15  and  O_18
REMARK                            x       y       z     vdW  Elec       q    Type
REMARK                         _______ _______ _______ _____ _____    ______ ____
ROOT
ATOM      1  C   UNL     1      36.832   0.784  13.583  0.00  0.00    +0.000 C 
ATOM      2  C   UNL     1      36.401   1.149  12.119  0.00  0.00    +0.000 C 
ATOM      3  C   UNL     1      37.844  -0.414  13.508  0.00  0.00    +0.000 C 
ENDROOT
BRANCH   1   4
ATOM      4  C   UNL     1      37.480   2.040  14.183  0.00  0.00    +0.000 A 
ATOM      5  C   UNL     1      38.719   2.492  13.694  0.00  0.00    +0.000 A 
ATOM      6  C   UNL     1      39.344   3.618  14.227  0.00  0.00    +0.000 A 
ATOM      7  C   UNL     1      38.732   4.305  15.268  0.00  0.00    +0.000 A 
ATOM      8  C   UNL     1      37.512   3.882  15.781  0.00  0.00    +0.000 A 
ATOM      9  C   UNL     1      36.899   2.754  15.241  0.00  0.00    +0.000 A 
BRANCH   7  10
ATOM     10  O   UNL     1      39.314   5.413  15.811  0.00  0.00    +0.000 OA
ATOM     11  H   UNL     1      40.020   5.716  15.213  0.00  0.00    +0.000 HD
ENDBRANCH   7  10
ENDBRANCH   1   4
BRANCH   1  12
ATOM     12  C   UNL     1      35.641   0.306  14.426  0.00  0.00    +0.000 A 
ATOM     13  C   UNL     1      35.829  -0.674  15.418  0.00  0.00    +0.000 A 
ATOM     14  C   UNL     1      34.768  -1.142  16.188  0.00  0.00    +0.000 A 
ATOM     15  C   UNL     1      33.493  -0.634  15.969  0.00  0.00    +0.000 A 
ATOM     16  C   UNL     1      33.269   0.329  14.993  0.00  0.00    +0.000 A 
ATOM     17  C   UNL     1      34.338   0.788  14.227  0.00  0.00    +0.000 A 
BRANCH  15  18
ATOM     18  O   UNL     1      32.432  -1.066  16.709  0.00  0.00    +0.000 OA
ATOM     19  H   UNL     1      31.617  -0.699  16.325  0.00  0.00    +0.000 HD
ENDBRANCH  15  18
ENDBRANCH   1  12
TORSDOF 4
ENDMDL
MODEL 2
REMARK VINA RESULT:      -6.8     16.874     18.928
REMARK  Name = Bisphenol_A.pdbqt.pdb
REMARK  4 active torsions:
REMARK  status: ('A' for Active; 'I' for Inactive)
REMARK    1  A    between atoms: C_1  and  C_4
REMARK    2  A    between atoms: C_1  and  C_12
REMARK    3  A    between atoms: C_7  and  O_10
REMARK    4  A    between atoms: C_15  and  O_18
REMARK                            x       y       z     vdW  Elec       q    Type
REMARK                         _______ _______ _______ _____ _____    ______ ____
ROOT
ATOM      1  C   UNL     1      18.150   6.989  20.167  0.00  0.00    +0.000 C 
ATOM      2  C   UNL     1      18.618   7.311  21.631  0.00  0.00    +0.000 C 
ATOM      3  C   UNL     1      16.782   7.719  19.922  0.00  0.00    +0.000 C 
ENDROOT
BRANCH   1   4
ATOM      4  C   UNL     1      19.248   7.507  19.226  0.00  0.00    +0.000 A 
ATOM      5  C   UNL     1      19.427   8.892  19.052  0.00  0.00    +0.000 A 
ATOM      6  C   UNL     1      20.401   9.396  18.192  0.00  0.00    +0.000 A 
ATOM      7  C   UNL     1      21.208   8.512  17.486  0.00  0.00    +0.000 A 
ATOM      8  C   UNL     1      21.053   7.138  17.628  0.00  0.00    +0.000 A 
ATOM      9  C   UNL     1      20.074   6.646  18.489  0.00  0.00    +0.000 A 
BRANCH   7  10
ATOM     10  O   UNL     1      22.173   8.971  16.640  0.00  0.00    +0.000 OA
ATOM     11  H   UNL     1      22.995   9.097  17.145  0.00  0.00    +0.000 HD
ENDBRANCH   7  10
ENDBRANCH   1   4
BRANCH   1  12
ATOM     12  C   UNL     1      17.896   5.489  19.966  0.00  0.00    +0.000 A 
ATOM     13  C   UNL     1      18.183   4.582  21.003  0.00  0.00    +0.000 A 
ATOM     14  C   UNL     1      17.981   3.213  20.848  0.00  0.00    +0.000 A 
ATOM     15  C   UNL     1      17.488   2.731  19.641  0.00  0.00    +0.000 A 
ATOM     16  C   UNL     1      17.200   3.597  18.593  0.00  0.00    +0.000 A 
ATOM     17  C   UNL     1      17.410   4.964  18.759  0.00  0.00    +0.000 A 
BRANCH  15  18
ATOM     18  O   UNL     1      17.273   1.397  19.457  0.00  0.00    +0.000 OA
ATOM     19  H   UNL     1      17.996   0.905  19.883  0.00  0.00    +0.000 HD
ENDBRANCH  15  18
ENDBRANCH   1  12
TORSDOF 4
ENDMDL
MODEL 3
REMARK VINA RESULT:      -6.8     16.854     19.635
REMARK  Name = Bisphenol_A.pdbqt.pdb
REMARK  4 active torsions:
REMARK  status: ('A' for Active; 'I' for Inactive)
REMARK    1  A    between atoms: C_1  and  C_4
REMARK    2  A    between atoms: C_1  and  C_12
REMARK    3  A    between atoms: C_7  and  O_10
REMARK    4  A    between atoms: C_15  and  O_18
REMARK                            x       y       z     vdW  Elec       q    Type
REMARK                         _______ _______ _______ _____ _____    ______ ____
ROOT
ATOM      1  C   UNL     1      18.175   6.994  20.166  0.00  0.00    +0.000 C 
ATOM      2  C   UNL     1      16.808   7.724  19.916  0.00  0.00    +0.000 C 
ATOM      3  C   UNL     1      18.640   7.321  21.630  0.00  0.00    +0.000 C 
ENDROOT
BRANCH   1   4
ATOM      4  C   UNL     1      17.919   5.492  19.973  0.00  0.00    +0.000 A 
ATOM      5  C   UNL     1      18.190   4.593  21.020  0.00  0.00    +0.000 A 
ATOM      6  C   UNL     1      17.987   3.223  20.872  0.00  0.00    +0.000 A 
ATOM      7  C   UNL     1      17.511   2.733  19.662  0.00  0.00    +0.000 A 
ATOM      8  C   UNL     1      17.239   3.591  18.604  0.00  0.00    +0.000 A 
ATOM      9  C   UNL     1      17.450   4.960  18.763  0.00  0.00    +0.000 A 
BRANCH   7  10
ATOM     10  O   UNL     1      17.296   1.398  19.485  0.00  0.00    +0.000 OA
ATOM     11  H   UNL     1      17.504   0.938  20.316  0.00  0.00    +0.000 HD
ENDBRANCH   7  10
ENDBRANCH   1   4
BRANCH   1  12
ATOM     12  C   UNL     1      19.275   7.506  19.226  0.00  0.00    +0.000 A 
ATOM     13  C   UNL     1      19.482   8.889  19.072  0.00  0.00    +0.000 A 
ATOM     14  C   UNL     1      20.460   9.386  18.214  0.00  0.00    +0.000 A 
ATOM     15  C   UNL     1      21.245   8.497  17.491  0.00  0.00    +0.000 A 
ATOM     16  C   UNL     1      21.064   7.125  17.612  0.00  0.00    +0.000 A 
ATOM     17  C   UNL     1      20.081   6.639  18.471  0.00  0.00    +0.000 A 
BRANCH  15  18
ATOM     18  O   UNL     1      22.215   8.951  16.646  0.00  0.00    +0.000 OA
ATOM     19  H   UNL     1      22.098   9.909  16.525  0.00  0.00    +0.000 HD
ENDBRANCH  15  18
ENDBRANCH   1  12
TORSDOF 4
ENDMDL
MODEL 4
REMARK VINA RESULT:      -6.6      2.755      4.891
REMARK  Name = Bisphenol_A.pdbqt.pdb
REMARK  4 active torsions:
REMARK  status: ('A' for Active; 'I' for Inactive)
REMARK    1  A    between atoms: C_1  and  C_4
REMARK    2  A    between atoms: C_1  and  C_12
REMARK    3  A    between atoms: C_7  and  O_10
REMARK    4  A    between atoms: C_15  and  O_18
REMARK                            x       y       z     vdW  Elec       q    Type
REMARK                         _______ _______ _______ _____ _____    ______ ____
ROOT
ATOM      1  C   UNL     1      34.972   1.487  15.667  0.00  0.00    +0.000 C 
ATOM      2  C   UNL     1      33.979   2.444  14.918  0.00  0.00    +0.000 C 
ATOM      3  C   UNL     1      34.131   0.355  16.358  0.00  0.00    +0.000 C 
ENDROOT
BRANCH   1   4
ATOM      4  C   UNL     1      35.928   0.919  14.607  0.00  0.00    +0.000 A 
ATOM      5  C   UNL     1      36.802  -0.132  14.941  0.00  0.00    +0.000 A 
ATOM      6  C   UNL     1      37.694  -0.659  14.009  0.00  0.00    +0.000 A 
ATOM      7  C   UNL     1      37.725  -0.130  12.725  0.00  0.00    +0.000 A 
ATOM      8  C   UNL     1      36.883   0.913  12.363  0.00  0.00    +0.000 A 
ATOM      9  C   UNL     1      35.996   1.433  13.305  0.00  0.00    +0.000 A 
BRANCH   7  10
ATOM     10  O   UNL     1      38.583  -0.625  11.787  0.00  0.00    +0.000 OA
ATOM     11  H   UNL     1      38.838   0.098  11.188  0.00  0.00    +0.000 HD
ENDBRANCH   7  10
ENDBRANCH   1   4
BRANCH   1  12
ATOM     12  C   UNL     1      35.735   2.216  16.783  0.00  0.00    +0.000 A 
ATOM     13  C   UNL     1      36.576   3.299  16.467  0.00  0.00    +0.000 A 
ATOM     14  C   UNL     1      37.296   3.972  17.451  0.00  0.00    +0.000 A 
ATOM     15  C   UNL     1      37.185   3.561  18.774  0.00  0.00    +0.000 A 
ATOM     16  C   UNL     1      36.369   2.491  19.122  0.00  0.00    +0.000 A 
ATOM     17  C   UNL     1      35.656   1.825  18.127  0.00  0.00    +0.000 A 
BRANCH  15  18
ATOM     18  O   UNL     1      37.871   4.201  19.764  0.00  0.00    +0.000 OA
ATOM     19  H   UNL     1      37.473   3.963  20.620  0.00  0.00    +0.000 HD
ENDBRANCH  15  18
ENDBRANCH   1  12
TORSDOF 4
ENDMDL
MODEL 5
REMARK VINA RESULT:      -6.3     17.617     19.541
REMARK  Name = Bisphenol_A.pdbqt.pdb
REMARK  4 active torsions:
REMARK  status: ('A' for Active; 'I' for Inactive)
REMARK    1  A    between atoms: C_1  and  C_4
REMARK    2  A    between atoms: C_1  and  C_12
REMARK    3  A    between atoms: C_7  and  O_10
REMARK    4  A    between atoms: C_15  and  O_18
REMARK                            x       y       z     vdW  Elec       q    Type
REMARK                         _______ _______ _______ _____ _____    ______ ____
ROOT
ATOM      1  C   UNL     1      18.349   4.528  19.827  0.00  0.00    +0.000 C 
ATOM      2  C   UNL     1      19.420   3.422  19.521  0.00  0.00    +0.000 C 
ATOM      3  C   UNL     1      17.935   4.402  21.336  0.00  0.00    +0.000 C 
ENDROOT
BRANCH   1   4
ATOM      4  C   UNL     1      19.011   5.882  19.530  0.00  0.00    +0.000 A 
ATOM      5  C   UNL     1      19.793   6.042  18.372  0.00  0.00    +0.000 A 
ATOM      6  C   UNL     1      20.423   7.251  18.082  0.00  0.00    +0.000 A 
ATOM      7  C   UNL     1      20.280   8.319  18.958  0.00  0.00    +0.000 A 
ATOM      8  C   UNL     1      19.521   8.194  20.115  0.00  0.00    +0.000 A 
ATOM      9  C   UNL     1      18.898   6.980  20.396  0.00  0.00    +0.000 A 
BRANCH   7  10
ATOM     10  O   UNL     1      20.878   9.517  18.702  0.00  0.00    +0.000 OA
ATOM     11  H   UNL     1      20.198  10.213  18.714  0.00  0.00    +0.000 HD
ENDBRANCH   7  10
ENDBRANCH   1   4
BRANCH   1  12
ATOM     12  C   UNL     1      17.072   4.331  18.998  0.00  0.00    +0.000 A 
ATOM     13  C   UNL     1      16.999   3.288  18.056  0.00  0.00    +0.000 A 
ATOM     14  C   UNL     1      15.863   3.092  17.275  0.00  0.00    +0.000 A 
ATOM     15  C   UNL     1      14.778   3.947  17.427  0.00  0.00    +0.000 A 
ATOM     16  C   UNL     1      14.817   4.990  18.344  0.00  0.00    +0.000 A 
ATOM     17  C   UNL     1      15.961   5.179  19.117  0.00  0.00    +0.000 A 
BRANCH  15  18
ATOM     18  O   UNL     1      13.647   3.779  16.684  0.00  0.00    +0.000 OA
ATOM     19  H   UNL     1      13.904   3.485  15.792  0.00  0.00    +0.000 HD
ENDBRANCH  15  18
ENDBRANCH   1  12
TORSDOF 4
ENDMDL
MODEL 6
REMARK VINA RESULT:      -6.3     11.829     13.313
REMARK  Name = Bisphenol_A.pdbqt.pdb
REMARK  4 active torsions:
REMARK  status: ('A' for Active; 'I' for Inactive)
REMARK    1  A    between atoms: C_1  and  C_4
REMARK    2  A    between atoms: C_1  and  C_12
REMARK    3  A    between atoms: C_7  and  O_10
REMARK    4  A    between atoms: C_15  and  O_18
REMARK                            x       y       z     vdW  Elec       q    Type
REMARK                         _______ _______ _______ _____ _____    ______ ____
ROOT
ATOM      1  C   UNL     1      27.959   0.956   4.163  0.00  0.00    +0.000 C 
ATOM      2  C   UNL     1      28.057   2.377   4.824  0.00  0.00    +0.000 C 
ATOM      3  C   UNL     1      27.462   1.139   2.685  0.00  0.00    +0.000 C 
ENDROOT
BRANCH   1   4
ATOM      4  C   UNL     1      29.366   0.342   4.219  0.00  0.00    +0.000 A 
ATOM      5  C   UNL     1      30.493   1.177   4.330  0.00  0.00    +0.000 A 
ATOM      6  C   UNL     1      31.784   0.655   4.364  0.00  0.00    +0.000 A 
ATOM      7  C   UNL     1      31.963  -0.720   4.281  0.00  0.00    +0.000 A 
ATOM      8  C   UNL     1      30.874  -1.574   4.163  0.00  0.00    +0.000 A 
ATOM      9  C   UNL     1      29.587  -1.039   4.127  0.00  0.00    +0.000 A 
BRANCH   7  10
ATOM     10  O   UNL     1      33.213  -1.265   4.317  0.00  0.00    +0.000 OA
ATOM     11  H   UNL     1      33.153  -2.195   4.037  0.00  0.00    +0.000 HD
ENDBRANCH   7  10
ENDBRANCH   1   4
BRANCH   1  12
ATOM     12  C   UNL     1      26.927   0.067   4.872  0.00  0.00    +0.000 A 
ATOM     13  C   UNL     1      26.072  -0.756   4.117  0.00  0.00    +0.000 A 
ATOM     14  C   UNL     1      25.114  -1.561   4.727  0.00  0.00    +0.000 A 
ATOM     15  C   UNL     1      24.995  -1.548   6.111  0.00  0.00    +0.000 A 
ATOM     16  C   UNL     1      25.818  -0.741   6.888  0.00  0.00    +0.000 A 
ATOM     17  C   UNL     1      26.772   0.062   6.266  0.00  0.00    +0.000 A 
BRANCH  15  18
ATOM     18  O   UNL     1      24.071  -2.328   6.741  0.00  0.00    +0.000 OA
ATOM     19  H   UNL     1      23.834  -1.906   7.586  0.00  0.00    +0.000 HD
ENDBRANCH  15  18
ENDBRANCH   1  12
TORSDOF 4
ENDMDL
MODEL 7
REMARK VINA RESULT:      -6.1     16.819     19.109
REMARK  Name = Bisphenol_A.pdbqt.pdb
REMARK  4 active torsions:
REMARK  status: ('A' for Active; 'I' for Inactive)
REMARK    1  A    between atoms: C_1  and  C_4
REMARK    2  A    between atoms: C_1  and  C_12
REMARK    3  A    between atoms: C_7  and  O_10
REMARK    4  A    between atoms: C_15  and  O_18
REMARK                            x       y       z     vdW  Elec       q    Type
REMARK                         _______ _______ _______ _____ _____    ______ ____
ROOT
ATOM      1  C   UNL     1      21.566  10.953  16.608  0.00  0.00    +0.000 C 
ATOM      2  C   UNL     1      21.894  12.167  17.547  0.00  0.00    +0.000 C 
ATOM      3  C   UNL     1      22.884  10.545  15.859  0.00  0.00    +0.000 C 
ENDROOT
BRANCH   1   4
ATOM      4  C   UNL     1      21.051   9.820  17.510  0.00  0.00    +0.000 A 
ATOM      5  C   UNL     1      21.341   8.482  17.190  0.00  0.00    +0.000 A 
ATOM      6  C   UNL     1      20.875   7.429  17.975  0.00  0.00    +0.000 A 
ATOM      7  C   UNL     1      20.102   7.708  19.095  0.00  0.00    +0.000 A 
ATOM      8  C   UNL     1      19.789   9.018  19.437  0.00  0.00    +0.000 A 
ATOM      9  C   UNL     1      20.259  10.062  18.642  0.00  0.00    +0.000 A 
BRANCH   7  10
ATOM     10  O   UNL     1      19.633   6.703  19.888  0.00  0.00    +0.000 OA
ATOM     11  H   UNL     1      19.077   6.115  19.348  0.00  0.00    +0.000 HD
ENDBRANCH   7  10
ENDBRANCH   1   4
BRANCH   1  12
ATOM     12  C   UNL     1      20.539  11.326  15.530  0.00  0.00    +0.000 A 
ATOM     13  C   UNL     1      20.807  11.046  14.177  0.00  0.00    +0.000 A 
ATOM     14  C   UNL     1      19.906  11.388  13.172  0.00  0.00    +0.000 A 
ATOM     15  C   UNL     1      18.718  12.023  13.512  0.00  0.00    +0.000 A 
ATOM     16  C   UNL     1      18.423  12.321  14.836  0.00  0.00    +0.000 A 
ATOM     17  C   UNL     1      19.334  11.977  15.833  0.00  0.00    +0.000 A 
BRANCH  15  18
ATOM     18  O   UNL     1      17.810  12.366  12.553  0.00  0.00    +0.000 OA
ATOM     19  H   UNL     1      17.158  11.648  12.474  0.00  0.00    +0.000 HD
ENDBRANCH  15  18
ENDBRANCH   1  12
TORSDOF 4
ENDMDL
MODEL 8
REMARK VINA RESULT:      -6.0     16.358     19.057
REMARK  Name = Bisphenol_A.pdbqt.pdb
REMARK  4 active torsions:
REMARK  status: ('A' for Active; 'I' for Inactive)
REMARK    1  A    between atoms: C_1  and  C_4
REMARK    2  A    between atoms: C_1  and  C_12
REMARK    3  A    between atoms: C_7  and  O_10
REMARK    4  A    between atoms: C_15  and  O_18
REMARK                            x       y       z     vdW  Elec       q    Type
REMARK                         _______ _______ _______ _____ _____    ______ ____
ROOT
ATOM      1  C   UNL     1      19.449   9.041  19.591  0.00  0.00    +0.000 C 
ATOM      2  C   UNL     1      18.064   9.767  19.452  0.00  0.00    +0.000 C 
ATOM      3  C   UNL     1      20.140   9.557  20.903  0.00  0.00    +0.000 C 
ENDROOT
BRANCH   1   4
ATOM      4  C   UNL     1      19.157   7.534  19.656  0.00  0.00    +0.000 A 
ATOM      5  C   UNL     1      18.423   7.008  20.734  0.00  0.00    +0.000 A 
ATOM      6  C   UNL     1      18.156   5.644  20.834  0.00  0.00    +0.000 A 
ATOM      7  C   UNL     1      18.630   4.785  19.850  0.00  0.00    +0.000 A 
ATOM      8  C   UNL     1      19.366   5.269  18.776  0.00  0.00    +0.000 A 
ATOM      9  C   UNL     1      19.629   6.635  18.689  0.00  0.00    +0.000 A 
BRANCH   7  10
ATOM     10  O   UNL     1      18.383   3.445  19.915  0.00  0.00    +0.000 OA
ATOM     11  H   UNL     1      19.049   2.981  19.378  0.00  0.00    +0.000 HD
ENDBRANCH   7  10
ENDBRANCH   1   4
BRANCH   1  12
ATOM     12  C   UNL     1      20.392   9.384  18.429  0.00  0.00    +0.000 A 
ATOM     13  C   UNL     1      21.652   8.765  18.340  0.00  0.00    +0.000 A 
ATOM     14  C   UNL     1      22.539   9.065  17.309  0.00  0.00    +0.000 A 
ATOM     15  C   UNL     1      22.172  10.001  16.349  0.00  0.00    +0.000 A 
ATOM     16  C   UNL     1      20.938  10.638  16.410  0.00  0.00    +0.000 A 
ATOM     17  C   UNL     1      20.061  10.331  17.448  0.00  0.00    +0.000 A 
BRANCH  15  18
ATOM     18  O   UNL     1      23.014  10.315  15.323  0.00  0.00    +0.000 OA
ATOM     19  H   UNL     1      22.479  10.574  14.552  0.00  0.00    +0.000 HD
ENDBRANCH  15  18
ENDBRANCH   1  12
TORSDOF 4
ENDMDL
MODEL 9
REMARK VINA RESULT:      -5.5     15.706     18.549
REMARK  Name = Bisphenol_A.pdbqt.pdb
REMARK  4 active torsions:
REMARK  status: ('A' for Active; 'I' for Inactive)
REMARK    1  A    between atoms: C_1  and  C_4
REMARK    2  A    between atoms: C_1  and  C_12
REMARK    3  A    between atoms: C_7  and  O_10
REMARK    4  A    between atoms: C_15  and  O_18
REMARK                            x       y       z     vdW  Elec       q    Type
REMARK                         _______ _______ _______ _____ _____    ______ ____
ROOT
ATOM      1  C   UNL     1      18.511  -3.859  11.155  0.00  0.00    +0.000 C 
ATOM      2  C   UNL     1      17.993  -4.677   9.919  0.00  0.00    +0.000 C 
ATOM      3  C   UNL     1      17.352  -2.914  11.634  0.00  0.00    +0.000 C 
ENDROOT
BRANCH   1   4
ATOM      4  C   UNL     1      18.895  -4.881  12.235  0.00  0.00    +0.000 A 
ATOM      5  C   UNL     1      18.278  -4.832  13.498  0.00  0.00    +0.000 A 
ATOM      6  C   UNL     1      18.615  -5.732  14.507  0.00  0.00    +0.000 A 
ATOM      7  C   UNL     1      19.587  -6.694  14.262  0.00  0.00    +0.000 A 
ATOM      8  C   UNL     1      20.224  -6.766  13.029  0.00  0.00    +0.000 A 
ATOM      9  C   UNL     1      19.879  -5.859  12.029  0.00  0.00    +0.000 A 
BRANCH   7  10
ATOM     10  O   UNL     1      19.939  -7.593  15.225  0.00  0.00    +0.000 OA
ATOM     11  H   UNL     1      20.717  -8.089  14.918  0.00  0.00    +0.000 HD
ENDBRANCH   7  10
ENDBRANCH   1   4
BRANCH   1  12
ATOM     12  C   UNL     1      19.696  -2.956  10.785  0.00  0.00    +0.000 A 
ATOM     13  C   UNL     1      20.286  -2.133  11.762  0.00  0.00    +0.000 A 
ATOM     14  C   UNL     1      21.350  -1.289  11.457  0.00  0.00    +0.000 A 
ATOM     15  C   UNL     1      21.839  -1.255  10.156  0.00  0.00    +0.000 A 
ATOM     16  C   UNL     1      21.277  -2.049   9.164  0.00  0.00    +0.000 A 
ATOM     17  C   UNL     1      20.210  -2.887   9.481  0.00  0.00    +0.000 A 
BRANCH  15  18
ATOM     18  O   UNL     1      22.884  -0.445   9.824  0.00  0.00    +0.000 OA
ATOM     19  H   UNL     1      23.391  -0.870   9.110  0.00  0.00    +0.000 HD
ENDBRANCH  15  18
ENDBRANCH   1  12
TORSDOF 4
ENDMDL
