MODEL 1
REMARK VINA RESULT:      -6.3      0.000      0.000
REMARK  Name = BX795.pdbqt.pdb
REMARK  7 active torsions:
REMARK  status: ('A' for Active; 'I' for Inactive)
REMARK    1  A    between atoms: C_4  and  N_25
REMARK    2  A    between atoms: N_8  and  C_10
REMARK    3  A    between atoms: C_12  and  N_16
REMARK    4  A    between atoms: N_25  and  C_27
REMARK    5  A    between atoms: C_27  and  C_28
REMARK    6  A    between atoms: C_29  and  N_30
REMARK    7  A    between atoms: C_31  and  C_34
REMARK                            x       y       z     vdW  Elec       q    Type
REMARK                         _______ _______ _______ _____ _____    ______ ____
ROOT
ATOM      1  I   UNL     1      56.167   7.972  29.702  0.00  0.00    +0.000 I 
ATOM      2  N   UNL     1      52.210   6.413  30.486  0.00  0.00    +0.000 NA
ATOM      3  N   UNL     1      52.152   7.382  28.343  0.00  0.00    +0.000 NA
ATOM      4  C   UNL     1      53.503   6.766  30.648  0.00  0.00    +0.000 A 
ATOM      5  C   UNL     1      51.570   6.729  29.351  0.00  0.00    +0.000 A 
ATOM      6  C   UNL     1      54.188   7.401  29.631  0.00  0.00    +0.000 A 
ATOM      7  C   UNL     1      53.453   7.686  28.506  0.00  0.00    +0.000 A 
ATOM      8  N   UNL     1      50.224   6.417  29.194  0.00  0.00    +0.000 N 
ATOM      9  H   UNL     1      49.860   6.780  28.325  0.00  0.00    +0.000 HD
ENDROOT
BRANCH   8  10
ATOM     10  C   UNL     1      49.405   5.554  29.931  0.00  0.00    +0.000 A 
ATOM     11  C   UNL     1      49.432   4.167  29.760  0.00  0.00    +0.000 A 
ATOM     12  C   UNL     1      48.686   3.308  30.566  0.00  0.00    +0.000 A 
ATOM     13  C   UNL     1      47.911   3.842  31.590  0.00  0.00    +0.000 A 
ATOM     14  C   UNL     1      47.874   5.219  31.789  0.00  0.00    +0.000 A 
ATOM     15  C   UNL     1      48.618   6.065  30.966  0.00  0.00    +0.000 A 
BRANCH  12  16
ATOM     16  N   UNL     1      48.727   1.935  30.263  0.00  0.00    +0.000 N 
ATOM     17  C   UNL     1      49.543   0.993  30.864  0.00  0.00    +0.000 C 
ATOM     18  O   UNL     1      50.446   1.264  31.654  0.00  0.00    +0.000 OA
ATOM     19  N   UNL     1      49.269  -0.317  30.469  0.00  0.00    +0.000 N 
ATOM     20  C   UNL     1      48.356  -0.845  29.606  0.00  0.00    +0.000 A 
ATOM     21  C   UNL     1      49.883  -1.469  30.857  0.00  0.00    +0.000 A 
ATOM     22  C   UNL     1      48.308  -2.356  29.355  0.00  0.00    +0.000 A 
ATOM     23  C   UNL     1      49.441  -2.820  30.283  0.00  0.00    +0.000 A 
ATOM     24  H   UNL     1      48.157   1.627  29.485  0.00  0.00    +0.000 HD
ENDBRANCH  12  16
ENDBRANCH   8  10
BRANCH   4  25
ATOM     25  N   UNL     1      54.160   6.410  31.854  0.00  0.00    +0.000 N 
ATOM     26  H   UNL     1      54.253   7.231  32.448  0.00  0.00    +0.000 HD
BRANCH  25  27
ATOM     27  C   UNL     1      53.645   5.227  32.536  0.00  0.00    +0.000 C 
BRANCH  27  28
ATOM     28  C   UNL     1      53.012   4.039  33.269  0.00  0.00    +0.000 C 
ATOM     29  C   UNL     1      52.306   2.859  33.942  0.00  0.00    +0.000 C 
BRANCH  29  30
ATOM     30  N   UNL     1      51.658   1.805  34.489  0.00  0.00    +0.000 N 
ATOM     31  C   UNL     1      50.571   1.804  35.352  0.00  0.00    +0.000 C 
ATOM     32  O   UNL     1      50.040   2.856  35.705  0.00  0.00    +0.000 OA
ATOM     33  H   UNL     1      52.082   0.912  34.268  0.00  0.00    +0.000 HD
BRANCH  31  34
ATOM     34  C   UNL     1      50.149   0.489  35.801  0.00  0.00    +0.000 A 
ATOM     35  S   UNL     1      51.325  -0.683  36.256  0.00  0.00    +0.000 S 
ATOM     36  C   UNL     1      50.126  -1.831  36.598  0.00  0.00    +0.000 A 
ATOM     37  C   UNL     1      48.858  -1.367  36.386  0.00  0.00    +0.000 A 
ATOM     38  C   UNL     1      48.876  -0.030  35.928  0.00  0.00    +0.000 A 
ENDBRANCH  31  34
ENDBRANCH  29  30
ENDBRANCH  27  28
ENDBRANCH  25  27
ENDBRANCH   4  25
TORSDOF 7
ENDMDL
MODEL 2
REMARK VINA RESULT:      -5.8     36.026     39.172
REMARK  Name = BX795.pdbqt.pdb
REMARK  7 active torsions:
REMARK  status: ('A' for Active; 'I' for Inactive)
REMARK    1  A    between atoms: C_4  and  N_25
REMARK    2  A    between atoms: N_8  and  C_10
REMARK    3  A    between atoms: C_12  and  N_16
REMARK    4  A    between atoms: N_25  and  C_27
REMARK    5  A    between atoms: C_27  and  C_28
REMARK    6  A    between atoms: C_29  and  N_30
REMARK    7  A    between atoms: C_31  and  C_34
REMARK                            x       y       z     vdW  Elec       q    Type
REMARK                         _______ _______ _______ _____ _____    ______ ____
ROOT
ATOM      1  I   UNL     1      21.575  -1.407   0.054  0.00  0.00    +0.000 I 
ATOM      2  N   UNL     1      24.802   0.045   2.539  0.00  0.00    +0.000 NA
ATOM      3  N   UNL     1      23.930  -1.867   3.598  0.00  0.00    +0.000 NA
ATOM      4  C   UNL     1      23.894  -0.050   1.545  0.00  0.00    +0.000 A 
ATOM      5  C   UNL     1      24.797  -0.855   3.534  0.00  0.00    +0.000 A 
ATOM      6  C   UNL     1      22.996  -1.098   1.515  0.00  0.00    +0.000 A 
ATOM      7  C   UNL     1      23.061  -1.969   2.574  0.00  0.00    +0.000 A 
ATOM      8  N   UNL     1      25.693  -0.737   4.591  0.00  0.00    +0.000 N 
ATOM      9  H   UNL     1      25.523  -1.438   5.298  0.00  0.00    +0.000 HD
ENDROOT
BRANCH   8  10
ATOM     10  C   UNL     1      26.850   0.040   4.712  0.00  0.00    +0.000 A 
ATOM     11  C   UNL     1      27.983  -0.175   3.921  0.00  0.00    +0.000 A 
ATOM     12  C   UNL     1      29.094   0.665   3.978  0.00  0.00    +0.000 A 
ATOM     13  C   UNL     1      29.069   1.767   4.826  0.00  0.00    +0.000 A 
ATOM     14  C   UNL     1      27.949   2.010   5.617  0.00  0.00    +0.000 A 
ATOM     15  C   UNL     1      26.850   1.154   5.556  0.00  0.00    +0.000 A 
BRANCH  12  16
ATOM     16  N   UNL     1      30.211   0.319   3.195  0.00  0.00    +0.000 N 
ATOM     17  C   UNL     1      31.153  -0.646   3.503  0.00  0.00    +0.000 C 
ATOM     18  O   UNL     1      31.212  -1.236   4.581  0.00  0.00    +0.000 OA
ATOM     19  N   UNL     1      32.070  -0.879   2.477  0.00  0.00    +0.000 N 
ATOM     20  C   UNL     1      32.217  -0.339   1.235  0.00  0.00    +0.000 A 
ATOM     21  C   UNL     1      33.119  -1.747   2.455  0.00  0.00    +0.000 A 
ATOM     22  C   UNL     1      33.360  -0.793   0.321  0.00  0.00    +0.000 A 
ATOM     23  C   UNL     1      34.030  -1.838   1.226  0.00  0.00    +0.000 A 
ATOM     24  H   UNL     1      30.374   0.880   2.368  0.00  0.00    +0.000 HD
ENDBRANCH  12  16
ENDBRANCH   8  10
BRANCH   4  25
ATOM     25  N   UNL     1      23.928   0.908   0.499  0.00  0.00    +0.000 N 
ATOM     26  H   UNL     1      23.713   1.830   0.871  0.00  0.00    +0.000 HD
BRANCH  25  27
ATOM     27  C   UNL     1      25.103   0.866  -0.367  0.00  0.00    +0.000 C 
BRANCH  27  28
ATOM     28  C   UNL     1      26.396   0.850  -1.189  0.00  0.00    +0.000 C 
ATOM     29  C   UNL     1      27.695   0.742  -1.992  0.00  0.00    +0.000 C 
BRANCH  29  30
ATOM     30  N   UNL     1      28.829   0.593  -2.713  0.00  0.00    +0.000 N 
ATOM     31  C   UNL     1      29.271  -0.514  -3.423  0.00  0.00    +0.000 C 
ATOM     32  O   UNL     1      28.595  -1.540  -3.484  0.00  0.00    +0.000 OA
ATOM     33  H   UNL     1      29.449   1.394  -2.661  0.00  0.00    +0.000 HD
BRANCH  31  34
ATOM     34  C   UNL     1      30.574  -0.362  -4.047  0.00  0.00    +0.000 A 
ATOM     35  S   UNL     1      30.862   0.949  -5.125  0.00  0.00    +0.000 S 
ATOM     36  C   UNL     1      32.455   0.441  -5.403  0.00  0.00    +0.000 A 
ATOM     37  C   UNL     1      32.789  -0.688  -4.708  0.00  0.00    +0.000 A 
ATOM     38  C   UNL     1      31.703  -1.146  -3.929  0.00  0.00    +0.000 A 
ENDBRANCH  31  34
ENDBRANCH  29  30
ENDBRANCH  27  28
ENDBRANCH  25  27
ENDBRANCH   4  25
TORSDOF 7
ENDMDL
MODEL 3
REMARK VINA RESULT:      -5.2      2.046      2.390
REMARK  Name = BX795.pdbqt.pdb
REMARK  7 active torsions:
REMARK  status: ('A' for Active; 'I' for Inactive)
REMARK    1  A    between atoms: C_4  and  N_25
REMARK    2  A    between atoms: N_8  and  C_10
REMARK    3  A    between atoms: C_12  and  N_16
REMARK    4  A    between atoms: N_25  and  C_27
REMARK    5  A    between atoms: C_27  and  C_28
REMARK    6  A    between atoms: C_29  and  N_30
REMARK    7  A    between atoms: C_31  and  C_34
REMARK                            x       y       z     vdW  Elec       q    Type
REMARK                         _______ _______ _______ _____ _____    ______ ____
ROOT
ATOM      1  I   UNL     1      57.315   5.183  31.615  0.00  0.00    +0.000 I 
ATOM      2  N   UNL     1      53.002   4.886  31.489  0.00  0.00    +0.000 NA
ATOM      3  N   UNL     1      53.655   6.169  29.627  0.00  0.00    +0.000 NA
ATOM      4  C   UNL     1      54.283   4.768  31.898  0.00  0.00    +0.000 A 
ATOM      5  C   UNL     1      52.721   5.580  30.376  0.00  0.00    +0.000 A 
ATOM      6  C   UNL     1      55.310   5.307  31.150  0.00  0.00    +0.000 A 
ATOM      7  C   UNL     1      54.929   6.001  30.028  0.00  0.00    +0.000 A 
ATOM      8  N   UNL     1      51.401   5.755  29.972  0.00  0.00    +0.000 N 
ATOM      9  H   UNL     1      51.339   6.357  29.165  0.00  0.00    +0.000 HD
ENDROOT
BRANCH   8  10
ATOM     10  C   UNL     1      50.237   5.094  30.381  0.00  0.00    +0.000 A 
ATOM     11  C   UNL     1      50.019   3.736  30.131  0.00  0.00    +0.000 A 
ATOM     12  C   UNL     1      48.904   3.062  30.627  0.00  0.00    +0.000 A 
ATOM     13  C   UNL     1      47.991   3.753  31.417  0.00  0.00    +0.000 A 
ATOM     14  C   UNL     1      48.190   5.103  31.691  0.00  0.00    +0.000 A 
ATOM     15  C   UNL     1      49.306   5.765  31.178  0.00  0.00    +0.000 A 
BRANCH  12  16
ATOM     16  N   UNL     1      48.740   1.715  30.256  0.00  0.00    +0.000 N 
ATOM     17  C   UNL     1      49.541   0.659  30.652  0.00  0.00    +0.000 C 
ATOM     18  O   UNL     1      50.593   0.786  31.277  0.00  0.00    +0.000 OA
ATOM     19  N   UNL     1      49.060  -0.587  30.250  0.00  0.00    +0.000 N 
ATOM     20  C   UNL     1      47.958  -0.964  29.543  0.00  0.00    +0.000 A 
ATOM     21  C   UNL     1      49.603  -1.818  30.464  0.00  0.00    +0.000 A 
ATOM     22  C   UNL     1      47.702  -2.442  29.233  0.00  0.00    +0.000 A 
ATOM     23  C   UNL     1      48.922  -3.077  29.916  0.00  0.00    +0.000 A 
ATOM     24  H   UNL     1      48.012   1.518  29.580  0.00  0.00    +0.000 HD
ENDBRANCH  12  16
ENDBRANCH   8  10
BRANCH   4  25
ATOM     25  N   UNL     1      54.555   4.020  33.073  0.00  0.00    +0.000 N 
ATOM     26  H   UNL     1      54.552   4.638  33.881  0.00  0.00    +0.000 HD
BRANCH  25  27
ATOM     27  C   UNL     1      53.776   2.797  33.246  0.00  0.00    +0.000 C 
BRANCH  27  28
ATOM     28  C   UNL     1      53.012   1.497  33.520  0.00  0.00    +0.000 C 
ATOM     29  C   UNL     1      52.259   0.177  33.702  0.00  0.00    +0.000 C 
BRANCH  29  30
ATOM     30  N   UNL     1      51.623  -1.011  33.821  0.00  0.00    +0.000 N 
ATOM     31  C   UNL     1      50.299  -1.260  34.155  0.00  0.00    +0.000 C 
ATOM     32  O   UNL     1      49.512  -0.337  34.365  0.00  0.00    +0.000 OA
ATOM     33  H   UNL     1      52.235  -1.810  33.703  0.00  0.00    +0.000 HD
BRANCH  31  34
ATOM     34  C   UNL     1      49.947  -2.666  34.252  0.00  0.00    +0.000 A 
ATOM     35  S   UNL     1      48.797  -3.185  35.424  0.00  0.00    +0.000 S 
ATOM     36  C   UNL     1      48.954  -4.802  34.941  0.00  0.00    +0.000 A 
ATOM     37  C   UNL     1      49.845  -4.974  33.918  0.00  0.00    +0.000 A 
ATOM     38  C   UNL     1      50.413  -3.742  33.525  0.00  0.00    +0.000 A 
ENDBRANCH  31  34
ENDBRANCH  29  30
ENDBRANCH  27  28
ENDBRANCH  25  27
ENDBRANCH   4  25
TORSDOF 7
ENDMDL
MODEL 4
REMARK VINA RESULT:      -5.2     36.866     39.752
REMARK  Name = BX795.pdbqt.pdb
REMARK  7 active torsions:
REMARK  status: ('A' for Active; 'I' for Inactive)
REMARK    1  A    between atoms: C_4  and  N_25
REMARK    2  A    between atoms: N_8  and  C_10
REMARK    3  A    between atoms: C_12  and  N_16
REMARK    4  A    between atoms: N_25  and  C_27
REMARK    5  A    between atoms: C_27  and  C_28
REMARK    6  A    between atoms: C_29  and  N_30
REMARK    7  A    between atoms: C_31  and  C_34
REMARK                            x       y       z     vdW  Elec       q    Type
REMARK                         _______ _______ _______ _____ _____    ______ ____
ROOT
ATOM      1  I   UNL     1      24.424   7.439   2.310  0.00  0.00    +0.000 I 
ATOM      2  N   UNL     1      25.792   3.516   3.512  0.00  0.00    +0.000 NA
ATOM      3  N   UNL     1      27.114   5.086   4.664  0.00  0.00    +0.000 NA
ATOM      4  C   UNL     1      25.117   4.499   2.879  0.00  0.00    +0.000 A 
ATOM      5  C   UNL     1      26.767   3.829   4.379  0.00  0.00    +0.000 A 
ATOM      6  C   UNL     1      25.385   5.825   3.158  0.00  0.00    +0.000 A 
ATOM      7  C   UNL     1      26.400   6.051   4.056  0.00  0.00    +0.000 A 
ATOM      8  N   UNL     1      27.505   2.825   4.997  0.00  0.00    +0.000 N 
ATOM      9  H   UNL     1      28.248   3.209   5.562  0.00  0.00    +0.000 HD
ENDROOT
BRANCH   8  10
ATOM     10  C   UNL     1      27.253   1.452   5.100  0.00  0.00    +0.000 A 
ATOM     11  C   UNL     1      26.016   0.946   5.510  0.00  0.00    +0.000 A 
ATOM     12  C   UNL     1      25.742  -0.421   5.515  0.00  0.00    +0.000 A 
ATOM     13  C   UNL     1      26.717  -1.310   5.074  0.00  0.00    +0.000 A 
ATOM     14  C   UNL     1      27.953  -0.831   4.649  0.00  0.00    +0.000 A 
ATOM     15  C   UNL     1      28.215   0.539   4.661  0.00  0.00    +0.000 A 
BRANCH  12  16
ATOM     16  N   UNL     1      24.493  -0.831   6.017  0.00  0.00    +0.000 N 
ATOM     17  C   UNL     1      23.384  -1.170   5.262  0.00  0.00    +0.000 C 
ATOM     18  O   UNL     1      23.307  -1.022   4.043  0.00  0.00    +0.000 OA
ATOM     19  N   UNL     1      22.328  -1.678   6.018  0.00  0.00    +0.000 N 
ATOM     20  C   UNL     1      22.177  -1.903   7.354  0.00  0.00    +0.000 A 
ATOM     21  C   UNL     1      21.103  -2.096   5.595  0.00  0.00    +0.000 A 
ATOM     22  C   UNL     1      20.861  -2.463   7.904  0.00  0.00    +0.000 A 
ATOM     23  C   UNL     1      20.063  -2.607   6.599  0.00  0.00    +0.000 A 
ATOM     24  H   UNL     1      24.379  -0.804   7.023  0.00  0.00    +0.000 HD
ENDBRANCH  12  16
ENDBRANCH   8  10
BRANCH   4  25
ATOM     25  N   UNL     1      24.083   4.142   1.976  0.00  0.00    +0.000 N 
ATOM     26  H   UNL     1      23.626   4.983   1.629  0.00  0.00    +0.000 HD
BRANCH  25  27
ATOM     27  C   UNL     1      24.446   3.182   0.937  0.00  0.00    +0.000 C 
BRANCH  27  28
ATOM     28  C   UNL     1      24.722   2.166  -0.177  0.00  0.00    +0.000 C 
ATOM     29  C   UNL     1      24.904   1.138  -1.296  0.00  0.00    +0.000 C 
BRANCH  29  30
ATOM     30  N   UNL     1      25.014   0.244  -2.305  0.00  0.00    +0.000 N 
ATOM     31  C   UNL     1      25.467  -1.067  -2.260  0.00  0.00    +0.000 C 
ATOM     32  O   UNL     1      25.813  -1.584  -1.199  0.00  0.00    +0.000 OA
ATOM     33  H   UNL     1      24.785   0.630  -3.213  0.00  0.00    +0.000 HD
BRANCH  31  34
ATOM     34  C   UNL     1      25.513  -1.742  -3.546  0.00  0.00    +0.000 A 
ATOM     35  S   UNL     1      27.028  -2.215  -4.215  0.00  0.00    +0.000 S 
ATOM     36  C   UNL     1      26.280  -2.852  -5.596  0.00  0.00    +0.000 A 
ATOM     37  C   UNL     1      24.919  -2.727  -5.577  0.00  0.00    +0.000 A 
ATOM     38  C   UNL     1      24.482  -2.088  -4.395  0.00  0.00    +0.000 A 
ENDBRANCH  31  34
ENDBRANCH  29  30
ENDBRANCH  27  28
ENDBRANCH  25  27
ENDBRANCH   4  25
TORSDOF 7
ENDMDL
MODEL 5
REMARK VINA RESULT:      -5.2     34.433     36.819
REMARK  Name = BX795.pdbqt.pdb
REMARK  7 active torsions:
REMARK  status: ('A' for Active; 'I' for Inactive)
REMARK    1  A    between atoms: C_4  and  N_25
REMARK    2  A    between atoms: N_8  and  C_10
REMARK    3  A    between atoms: C_12  and  N_16
REMARK    4  A    between atoms: N_25  and  C_27
REMARK    5  A    between atoms: C_27  and  C_28
REMARK    6  A    between atoms: C_29  and  N_30
REMARK    7  A    between atoms: C_31  and  C_34
REMARK                            x       y       z     vdW  Elec       q    Type
REMARK                         _______ _______ _______ _____ _____    ______ ____
ROOT
ATOM      1  I   UNL     1      28.830   8.100   2.618  0.00  0.00    +0.000 I 
ATOM      2  N   UNL     1      30.972   4.411   1.907  0.00  0.00    +0.000 NA
ATOM      3  N   UNL     1      32.462   5.869   3.000  0.00  0.00    +0.000 NA
ATOM      4  C   UNL     1      30.003   5.350   1.904  0.00  0.00    +0.000 A 
ATOM      5  C   UNL     1      32.168   4.690   2.446  0.00  0.00    +0.000 A 
ATOM      6  C   UNL     1      30.214   6.577   2.502  0.00  0.00    +0.000 A 
ATOM      7  C   UNL     1      31.468   6.775   3.027  0.00  0.00    +0.000 A 
ATOM      8  N   UNL     1      33.193   3.750   2.407  0.00  0.00    +0.000 N 
ATOM      9  H   UNL     1      34.052   4.125   2.782  0.00  0.00    +0.000 HD
ENDROOT
BRANCH   8  10
ATOM     10  C   UNL     1      33.150   2.380   2.124  0.00  0.00    +0.000 A 
ATOM     11  C   UNL     1      33.537   1.858   0.886  0.00  0.00    +0.000 A 
ATOM     12  C   UNL     1      33.585   0.486   0.646  0.00  0.00    +0.000 A 
ATOM     13  C   UNL     1      33.267  -0.395   1.674  0.00  0.00    +0.000 A 
ATOM     14  C   UNL     1      32.890   0.098   2.921  0.00  0.00    +0.000 A 
ATOM     15  C   UNL     1      32.835   1.475   3.141  0.00  0.00    +0.000 A 
BRANCH  12  16
ATOM     16  N   UNL     1      33.915   0.066  -0.655  0.00  0.00    +0.000 N 
ATOM     17  C   UNL     1      33.047  -0.018  -1.729  0.00  0.00    +0.000 C 
ATOM     18  O   UNL     1      31.829   0.136  -1.646  0.00  0.00    +0.000 OA
ATOM     19  N   UNL     1      33.677  -0.325  -2.935  0.00  0.00    +0.000 N 
ATOM     20  C   UNL     1      34.980  -0.561  -3.258  0.00  0.00    +0.000 A 
ATOM     21  C   UNL     1      33.122  -0.488  -4.168  0.00  0.00    +0.000 A 
ATOM     22  C   UNL     1      35.373  -0.903  -4.699  0.00  0.00    +0.000 A 
ATOM     23  C   UNL     1      33.995  -0.849  -5.375  0.00  0.00    +0.000 A 
ATOM     24  H   UNL     1      34.859  -0.273  -0.795  0.00  0.00    +0.000 HD
ENDBRANCH  12  16
ENDBRANCH   8  10
BRANCH   4  25
ATOM     25  N   UNL     1      28.743   5.026   1.338  0.00  0.00    +0.000 N 
ATOM     26  H   UNL     1      28.841   4.902   0.332  0.00  0.00    +0.000 HD
BRANCH  25  27
ATOM     27  C   UNL     1      27.997   3.964   2.006  0.00  0.00    +0.000 C 
BRANCH  27  28
ATOM     28  C   UNL     1      27.225   2.790   2.618  0.00  0.00    +0.000 C 
ATOM     29  C   UNL     1      26.434   1.672   3.302  0.00  0.00    +0.000 C 
BRANCH  29  30
ATOM     30  N   UNL     1      25.704   0.723   3.932  0.00  0.00    +0.000 N 
ATOM     31  C   UNL     1      26.042  -0.042   5.039  0.00  0.00    +0.000 C 
ATOM     32  O   UNL     1      27.120   0.108   5.611  0.00  0.00    +0.000 OA
ATOM     33  H   UNL     1      24.822   0.524   3.476  0.00  0.00    +0.000 HD
BRANCH  31  34
ATOM     34  C   UNL     1      25.043  -1.022   5.433  0.00  0.00    +0.000 A 
ATOM     35  S   UNL     1      23.760  -0.565   6.487  0.00  0.00    +0.000 S 
ATOM     36  C   UNL     1      23.116  -2.132   6.468  0.00  0.00    +0.000 A 
ATOM     37  C   UNL     1      23.830  -3.000   5.690  0.00  0.00    +0.000 A 
ATOM     38  C   UNL     1      24.939  -2.356   5.096  0.00  0.00    +0.000 A 
ENDBRANCH  31  34
ENDBRANCH  29  30
ENDBRANCH  27  28
ENDBRANCH  25  27
ENDBRANCH   4  25
TORSDOF 7
ENDMDL
MODEL 6
REMARK VINA RESULT:      -4.8     28.706     31.110
REMARK  Name = BX795.pdbqt.pdb
REMARK  7 active torsions:
REMARK  status: ('A' for Active; 'I' for Inactive)
REMARK    1  A    between atoms: C_4  and  N_25
REMARK    2  A    between atoms: N_8  and  C_10
REMARK    3  A    between atoms: C_12  and  N_16
REMARK    4  A    between atoms: N_25  and  C_27
REMARK    5  A    between atoms: C_27  and  C_28
REMARK    6  A    between atoms: C_29  and  N_30
REMARK    7  A    between atoms: C_31  and  C_34
REMARK                            x       y       z     vdW  Elec       q    Type
REMARK                         _______ _______ _______ _____ _____    ______ ____
ROOT
ATOM      1  I   UNL     1      24.418  27.392  26.021  0.00  0.00    +0.000 I 
ATOM      2  N   UNL     1      26.770  24.927  28.685  0.00  0.00    +0.000 NA
ATOM      3  N   UNL     1      25.338  23.483  27.501  0.00  0.00    +0.000 NA
ATOM      4  C   UNL     1      26.251  26.007  28.062  0.00  0.00    +0.000 A 
ATOM      5  C   UNL     1      26.304  23.704  28.396  0.00  0.00    +0.000 A 
ATOM      6  C   UNL     1      25.284  25.856  27.089  0.00  0.00    +0.000 A 
ATOM      7  C   UNL     1      24.865  24.568  26.860  0.00  0.00    +0.000 A 
ATOM      8  N   UNL     1      26.792  22.589  29.069  0.00  0.00    +0.000 N 
ATOM      9  H   UNL     1      26.299  21.750  28.801  0.00  0.00    +0.000 HD
ENDROOT
BRANCH   8  10
ATOM     10  C   UNL     1      27.933  22.444  29.866  0.00  0.00    +0.000 A 
ATOM     11  C   UNL     1      27.866  22.337  31.258  0.00  0.00    +0.000 A 
ATOM     12  C   UNL     1      28.998  22.094  32.036  0.00  0.00    +0.000 A 
ATOM     13  C   UNL     1      30.228  21.926  31.409  0.00  0.00    +0.000 A 
ATOM     14  C   UNL     1      30.321  22.017  30.023  0.00  0.00    +0.000 A 
ATOM     15  C   UNL     1      29.181  22.271  29.261  0.00  0.00    +0.000 A 
BRANCH  12  16
ATOM     16  N   UNL     1      28.834  22.078  33.433  0.00  0.00    +0.000 N 
ATOM     17  C   UNL     1      29.187  23.091  34.306  0.00  0.00    +0.000 C 
ATOM     18  O   UNL     1      29.824  24.092  33.982  0.00  0.00    +0.000 OA
ATOM     19  N   UNL     1      28.777  22.864  35.620  0.00  0.00    +0.000 N 
ATOM     20  C   UNL     1      28.099  21.839  36.208  0.00  0.00    +0.000 A 
ATOM     21  C   UNL     1      28.967  23.648  36.718  0.00  0.00    +0.000 A 
ATOM     22  C   UNL     1      27.807  21.862  37.712  0.00  0.00    +0.000 A 
ATOM     23  C   UNL     1      28.451  23.204  38.092  0.00  0.00    +0.000 A 
ATOM     24  H   UNL     1      28.493  21.214  33.837  0.00  0.00    +0.000 HD
ENDBRANCH  12  16
ENDBRANCH   8  10
BRANCH   4  25
ATOM     25  N   UNL     1      26.769  27.289  28.378  0.00  0.00    +0.000 N 
ATOM     26  H   UNL     1      26.007  27.912  28.639  0.00  0.00    +0.000 HD
BRANCH  25  27
ATOM     27  C   UNL     1      27.905  27.310  29.295  0.00  0.00    +0.000 C 
BRANCH  27  28
ATOM     28  C   UNL     1      29.138  27.247  30.204  0.00  0.00    +0.000 C 
ATOM     29  C   UNL     1      30.319  27.132  31.171  0.00  0.00    +0.000 C 
BRANCH  29  30
ATOM     30  N   UNL     1      31.341  26.982  32.044  0.00  0.00    +0.000 N 
ATOM     31  C   UNL     1      32.219  25.915  32.181  0.00  0.00    +0.000 C 
ATOM     32  O   UNL     1      32.153  24.939  31.435  0.00  0.00    +0.000 OA
ATOM     33  H   UNL     1      31.414  27.738  32.714  0.00  0.00    +0.000 HD
BRANCH  31  34
ATOM     34  C   UNL     1      33.177  26.047  33.265  0.00  0.00    +0.000 A 
ATOM     35  S   UNL     1      34.864  25.938  32.940  0.00  0.00    +0.000 S 
ATOM     36  C   UNL     1      35.247  26.153  34.577  0.00  0.00    +0.000 A 
ATOM     37  C   UNL     1      34.147  26.309  35.372  0.00  0.00    +0.000 A 
ATOM     38  C   UNL     1      32.957  26.247  34.613  0.00  0.00    +0.000 A 
ENDBRANCH  31  34
ENDBRANCH  29  30
ENDBRANCH  27  28
ENDBRANCH  25  27
ENDBRANCH   4  25
TORSDOF 7
ENDMDL
MODEL 7
REMARK VINA RESULT:      -4.7     28.090     31.008
REMARK  Name = BX795.pdbqt.pdb
REMARK  7 active torsions:
REMARK  status: ('A' for Active; 'I' for Inactive)
REMARK    1  A    between atoms: C_4  and  N_25
REMARK    2  A    between atoms: N_8  and  C_10
REMARK    3  A    between atoms: C_12  and  N_16
REMARK    4  A    between atoms: N_25  and  C_27
REMARK    5  A    between atoms: C_27  and  C_28
REMARK    6  A    between atoms: C_29  and  N_30
REMARK    7  A    between atoms: C_31  and  C_34
REMARK                            x       y       z     vdW  Elec       q    Type
REMARK                         _______ _______ _______ _____ _____    ______ ____
ROOT
ATOM      1  I   UNL     1      33.952  25.641  37.144  0.00  0.00    +0.000 I 
ATOM      2  N   UNL     1      31.841  24.562  33.527  0.00  0.00    +0.000 NA
ATOM      3  N   UNL     1      34.140  24.392  33.055  0.00  0.00    +0.000 NA
ATOM      4  C   UNL     1      32.096  24.976  34.786  0.00  0.00    +0.000 A 
ATOM      5  C   UNL     1      32.858  24.286  32.698  0.00  0.00    +0.000 A 
ATOM      6  C   UNL     1      33.395  25.064  35.245  0.00  0.00    +0.000 A 
ATOM      7  C   UNL     1      34.372  24.764  34.328  0.00  0.00    +0.000 A 
ATOM      8  N   UNL     1      32.610  23.910  31.382  0.00  0.00    +0.000 N 
ATOM      9  H   UNL     1      33.467  23.807  30.860  0.00  0.00    +0.000 HD
ENDROOT
BRANCH   8  10
ATOM     10  C   UNL     1      31.423  23.485  30.774  0.00  0.00    +0.000 A 
ATOM     11  C   UNL     1      30.661  24.321  29.952  0.00  0.00    +0.000 A 
ATOM     12  C   UNL     1      29.534  23.862  29.271  0.00  0.00    +0.000 A 
ATOM     13  C   UNL     1      29.170  22.525  29.389  0.00  0.00    +0.000 A 
ATOM     14  C   UNL     1      29.917  21.667  30.192  0.00  0.00    +0.000 A 
ATOM     15  C   UNL     1      31.036  22.146  30.875  0.00  0.00    +0.000 A 
BRANCH  12  16
ATOM     16  N   UNL     1      28.796  24.801  28.530  0.00  0.00    +0.000 N 
ATOM     17  C   UNL     1      29.011  25.146  27.207  0.00  0.00    +0.000 C 
ATOM     18  O   UNL     1      29.975  24.769  26.543  0.00  0.00    +0.000 OA
ATOM     19  N   UNL     1      28.037  25.997  26.686  0.00  0.00    +0.000 N 
ATOM     20  C   UNL     1      26.918  26.556  27.228  0.00  0.00    +0.000 A 
ATOM     21  C   UNL     1      27.952  26.529  25.435  0.00  0.00    +0.000 A 
ATOM     22  C   UNL     1      26.034  27.490  26.395  0.00  0.00    +0.000 A 
ATOM     23  C   UNL     1      26.801  27.470  25.064  0.00  0.00    +0.000 A 
ATOM     24  H   UNL     1      28.090  25.322  29.036  0.00  0.00    +0.000 HD
ENDBRANCH  12  16
ENDBRANCH   8  10
BRANCH   4  25
ATOM     25  N   UNL     1      31.002  25.251  35.647  0.00  0.00    +0.000 N 
ATOM     26  H   UNL     1      30.830  26.254  35.673  0.00  0.00    +0.000 HD
BRANCH  25  27
ATOM     27  C   UNL     1      29.806  24.440  35.438  0.00  0.00    +0.000 C 
BRANCH  27  28
ATOM     28  C   UNL     1      28.501  23.678  35.181  0.00  0.00    +0.000 C 
ATOM     29  C   UNL     1      27.157  22.970  34.991  0.00  0.00    +0.000 C 
BRANCH  29  30
ATOM     30  N   UNL     1      25.944  22.392  34.840  0.00  0.00    +0.000 N 
ATOM     31  C   UNL     1      24.702  22.996  34.705  0.00  0.00    +0.000 C 
ATOM     32  O   UNL     1      24.591  24.221  34.683  0.00  0.00    +0.000 OA
ATOM     33  H   UNL     1      25.970  21.380  34.896  0.00  0.00    +0.000 HD
BRANCH  31  34
ATOM     34  C   UNL     1      23.581  22.076  34.618  0.00  0.00    +0.000 A 
ATOM     35  S   UNL     1      22.782  21.836  33.112  0.00  0.00    +0.000 S 
ATOM     36  C   UNL     1      21.688  20.743  33.806  0.00  0.00    +0.000 A 
ATOM     37  C   UNL     1      21.900  20.543  35.141  0.00  0.00    +0.000 A 
ATOM     38  C   UNL     1      22.991  21.312  35.604  0.00  0.00    +0.000 A 
ENDBRANCH  31  34
ENDBRANCH  29  30
ENDBRANCH  27  28
ENDBRANCH  25  27
ENDBRANCH   4  25
TORSDOF 7
ENDMDL
MODEL 8
REMARK VINA RESULT:      -4.5     35.764     38.275
REMARK  Name = BX795.pdbqt.pdb
REMARK  7 active torsions:
REMARK  status: ('A' for Active; 'I' for Inactive)
REMARK    1  A    between atoms: C_4  and  N_25
REMARK    2  A    between atoms: N_8  and  C_10
REMARK    3  A    between atoms: C_12  and  N_16
REMARK    4  A    between atoms: N_25  and  C_27
REMARK    5  A    between atoms: C_27  and  C_28
REMARK    6  A    between atoms: C_29  and  N_30
REMARK    7  A    between atoms: C_31  and  C_34
REMARK                            x       y       z     vdW  Elec       q    Type
REMARK                         _______ _______ _______ _____ _____    ______ ____
ROOT
ATOM      1  I   UNL     1      26.334   5.466  -4.852  0.00  0.00    +0.000 I 
ATOM      2  N   UNL     1      27.208   4.526  -0.722  0.00  0.00    +0.000 NA
ATOM      3  N   UNL     1      27.628   6.824  -1.005  0.00  0.00    +0.000 NA
ATOM      4  C   UNL     1      26.874   4.392  -2.023  0.00  0.00    +0.000 A 
ATOM      5  C   UNL     1      27.577   5.725  -0.249  0.00  0.00    +0.000 A 
ATOM      6  C   UNL     1      26.854   5.492  -2.857  0.00  0.00    +0.000 A 
ATOM      7  C   UNL     1      27.249   6.678  -2.288  0.00  0.00    +0.000 A 
ATOM      8  N   UNL     1      27.975   5.865   1.077  0.00  0.00    +0.000 N 
ATOM      9  H   UNL     1      28.294   6.803   1.269  0.00  0.00    +0.000 HD
ENDROOT
BRANCH   8  10
ATOM     10  C   UNL     1      27.817   4.997   2.163  0.00  0.00    +0.000 A 
ATOM     11  C   UNL     1      28.837   4.146   2.598  0.00  0.00    +0.000 A 
ATOM     12  C   UNL     1      28.706   3.357   3.740  0.00  0.00    +0.000 A 
ATOM     13  C   UNL     1      27.536   3.437   4.487  0.00  0.00    +0.000 A 
ATOM     14  C   UNL     1      26.508   4.284   4.084  0.00  0.00    +0.000 A 
ATOM     15  C   UNL     1      26.651   5.059   2.932  0.00  0.00    +0.000 A 
BRANCH  12  16
ATOM     16  N   UNL     1      29.762   2.481   4.049  0.00  0.00    +0.000 N 
ATOM     17  C   UNL     1      29.805   1.127   3.768  0.00  0.00    +0.000 C 
ATOM     18  O   UNL     1      28.853   0.481   3.331  0.00  0.00    +0.000 OA
ATOM     19  N   UNL     1      31.035   0.536   4.057  0.00  0.00    +0.000 N 
ATOM     20  C   UNL     1      32.199   1.033   4.562  0.00  0.00    +0.000 A 
ATOM     21  C   UNL     1      31.409  -0.766   3.910  0.00  0.00    +0.000 A 
ATOM     22  C   UNL     1      33.401   0.112   4.793  0.00  0.00    +0.000 A 
ATOM     23  C   UNL     1      32.816  -1.223   4.309  0.00  0.00    +0.000 A 
ATOM     24  H   UNL     1      30.526   2.868   4.589  0.00  0.00    +0.000 HD
ENDBRANCH  12  16
ENDBRANCH   8  10
BRANCH   4  25
ATOM     25  N   UNL     1      26.476   3.115  -2.496  0.00  0.00    +0.000 N 
ATOM     26  H   UNL     1      27.239   2.691  -3.020  0.00  0.00    +0.000 HD
BRANCH  25  27
ATOM     27  C   UNL     1      25.859   2.233  -1.509  0.00  0.00    +0.000 C 
BRANCH  27  28
ATOM     28  C   UNL     1      25.311   1.281  -0.441  0.00  0.00    +0.000 C 
ATOM     29  C   UNL     1      24.826   0.366   0.687  0.00  0.00    +0.000 C 
BRANCH  29  30
ATOM     30  N   UNL     1      24.414  -0.403   1.720  0.00  0.00    +0.000 N 
ATOM     31  C   UNL     1      24.423  -0.116   3.077  0.00  0.00    +0.000 C 
ATOM     32  O   UNL     1      24.817   0.973   3.493  0.00  0.00    +0.000 OA
ATOM     33  H   UNL     1      24.121  -1.332   1.440  0.00  0.00    +0.000 HD
BRANCH  31  34
ATOM     34  C   UNL     1      23.959  -1.194   3.935  0.00  0.00    +0.000 A 
ATOM     35  S   UNL     1      25.061  -1.982   4.997  0.00  0.00    +0.000 S 
ATOM     36  C   UNL     1      23.851  -3.023   5.566  0.00  0.00    +0.000 A 
ATOM     37  C   UNL     1      22.633  -2.801   4.987  0.00  0.00    +0.000 A 
ATOM     38  C   UNL     1      22.700  -1.746   4.049  0.00  0.00    +0.000 A 
ENDBRANCH  31  34
ENDBRANCH  29  30
ENDBRANCH  27  28
ENDBRANCH  25  27
ENDBRANCH   4  25
TORSDOF 7
ENDMDL
MODEL 9
REMARK VINA RESULT:      -4.5     35.148     36.973
REMARK  Name = BX795.pdbqt.pdb
REMARK  7 active torsions:
REMARK  status: ('A' for Active; 'I' for Inactive)
REMARK    1  A    between atoms: C_4  and  N_25
REMARK    2  A    between atoms: N_8  and  C_10
REMARK    3  A    between atoms: C_12  and  N_16
REMARK    4  A    between atoms: N_25  and  C_27
REMARK    5  A    between atoms: C_27  and  C_28
REMARK    6  A    between atoms: C_29  and  N_30
REMARK    7  A    between atoms: C_31  and  C_34
REMARK                            x       y       z     vdW  Elec       q    Type
REMARK                         _______ _______ _______ _____ _____    ______ ____
ROOT
ATOM      1  I   UNL     1      33.604   5.399  -0.217  0.00  0.00    +0.000 I 
ATOM      2  N   UNL     1      30.224   6.616   2.191  0.00  0.00    +0.000 NA
ATOM      3  N   UNL     1      30.108   7.836   0.183  0.00  0.00    +0.000 NA
ATOM      4  C   UNL     1      31.365   6.012   1.798  0.00  0.00    +0.000 A 
ATOM      5  C   UNL     1      29.630   7.507   1.385  0.00  0.00    +0.000 A 
ATOM      6  C   UNL     1      31.896   6.263   0.548  0.00  0.00    +0.000 A 
ATOM      7  C   UNL     1      31.222   7.190  -0.209  0.00  0.00    +0.000 A 
ATOM      8  N   UNL     1      28.483   8.176   1.800  0.00  0.00    +0.000 N 
ATOM      9  H   UNL     1      28.193   8.866   1.124  0.00  0.00    +0.000 HD
ENDROOT
BRANCH   8  10
ATOM     10  C   UNL     1      27.616   7.904   2.864  0.00  0.00    +0.000 A 
ATOM     11  C   UNL     1      26.703   6.845   2.836  0.00  0.00    +0.000 A 
ATOM     12  C   UNL     1      25.913   6.521   3.938  0.00  0.00    +0.000 A 
ATOM     13  C   UNL     1      26.052   7.254   5.111  0.00  0.00    +0.000 A 
ATOM     14  C   UNL     1      26.961   8.307   5.170  0.00  0.00    +0.000 A 
ATOM     15  C   UNL     1      27.737   8.625   4.055  0.00  0.00    +0.000 A 
BRANCH  12  16
ATOM     16  N   UNL     1      24.974   5.485   3.781  0.00  0.00    +0.000 N 
ATOM     17  C   UNL     1      25.095   4.196   4.270  0.00  0.00    +0.000 C 
ATOM     18  O   UNL     1      26.114   3.748   4.793  0.00  0.00    +0.000 OA
ATOM     19  N   UNL     1      23.949   3.422   4.090  0.00  0.00    +0.000 N 
ATOM     20  C   UNL     1      22.737   3.688   3.526  0.00  0.00    +0.000 A 
ATOM     21  C   UNL     1      23.735   2.123   4.444  0.00  0.00    +0.000 A 
ATOM     22  C   UNL     1      21.658   2.602   3.455  0.00  0.00    +0.000 A 
ATOM     23  C   UNL     1      22.398   1.441   4.135  0.00  0.00    +0.000 A 
ATOM     24  H   UNL     1      24.173   5.686   3.195  0.00  0.00    +0.000 HD
ENDBRANCH  12  16
ENDBRANCH   8  10
BRANCH   4  25
ATOM     25  N   UNL     1      31.968   5.064   2.665  0.00  0.00    +0.000 N 
ATOM     26  H   UNL     1      32.489   5.549   3.393  0.00  0.00    +0.000 HD
BRANCH  25  27
ATOM     27  C   UNL     1      31.094   4.002   3.156  0.00  0.00    +0.000 C 
BRANCH  27  28
ATOM     28  C   UNL     1      30.102   2.964   3.691  0.00  0.00    +0.000 C 
ATOM     29  C   UNL     1      29.043   1.973   4.181  0.00  0.00    +0.000 C 
BRANCH  29  30
ATOM     30  N   UNL     1      28.077   1.109   4.568  0.00  0.00    +0.000 N 
ATOM     31  C   UNL     1      27.088   0.509   3.801  0.00  0.00    +0.000 C 
ATOM     32  O   UNL     1      27.015   0.708   2.589  0.00  0.00    +0.000 OA
ATOM     33  H   UNL     1      28.061   0.943   5.567  0.00  0.00    +0.000 HD
BRANCH  31  34
ATOM     34  C   UNL     1      26.164  -0.332   4.544  0.00  0.00    +0.000 A 
ATOM     35  S   UNL     1      26.159  -0.291   6.264  0.00  0.00    +0.000 S 
ATOM     36  C   UNL     1      24.933  -1.459   6.341  0.00  0.00    +0.000 A 
ATOM     37  C   UNL     1      24.517  -1.885   5.111  0.00  0.00    +0.000 A 
ATOM     38  C   UNL     1      25.228  -1.233   4.079  0.00  0.00    +0.000 A 
ENDBRANCH  31  34
ENDBRANCH  29  30
ENDBRANCH  27  28
ENDBRANCH  25  27
ENDBRANCH   4  25
TORSDOF 7
ENDMDL
