MODEL 1
REMARK VINA RESULT:      -3.7      0.000      0.000
REMARK  Name = CadmiumAcetate.pdbqt.pdb
REMARK  1 active torsions:
REMARK  status: ('A' for Active; 'I' for Inactive)
REMARK    1  A    between atoms: C_3  and  O_4
REMARK                            x       y       z     vdW  Elec       q    Type
REMARK                         _______ _______ _______ _____ _____    ______ ____
ROOT
ATOM      1  O   UNL     1      42.175   1.833  33.933  0.00  0.00    +0.000 OA
ATOM      2  C   UNL     1      40.495   0.726  32.818  0.00  0.00    +0.000 C 
ATOM      3  C   UNL     1      41.439   0.868  33.944  0.00  0.00    +0.000 C 
ENDROOT
BRANCH   3   4
ATOM      4  O   UNL     1      41.391  -0.085  34.872  0.00  0.00    +0.000 OA
ATOM      5  H   UNL     1      41.707  -0.870  34.388  0.00  0.00    +0.000 HD
ENDBRANCH   3   4
TORSDOF 1
ENDMDL
MODEL 2
REMARK VINA RESULT:      -3.6      4.174      4.273
REMARK  Name = CadmiumAcetate.pdbqt.pdb
REMARK  1 active torsions:
REMARK  status: ('A' for Active; 'I' for Inactive)
REMARK    1  A    between atoms: C_3  and  O_4
REMARK                            x       y       z     vdW  Elec       q    Type
REMARK                         _______ _______ _______ _____ _____    ______ ____
ROOT
ATOM      1  O   UNL     1      39.643   3.224  37.041  0.00  0.00    +0.000 OA
ATOM      2  C   UNL     1      39.411   0.983  37.499  0.00  0.00    +0.000 C 
ATOM      3  C   UNL     1      39.048   2.205  36.757  0.00  0.00    +0.000 C 
ENDROOT
BRANCH   3   4
ATOM      4  O   UNL     1      38.093   2.072  35.839  0.00  0.00    +0.000 OA
ATOM      5  H   UNL     1      38.018   1.104  35.748  0.00  0.00    +0.000 HD
ENDBRANCH   3   4
TORSDOF 1
ENDMDL
MODEL 3
REMARK VINA RESULT:      -3.3     19.019     19.415
REMARK  Name = CadmiumAcetate.pdbqt.pdb
REMARK  1 active torsions:
REMARK  status: ('A' for Active; 'I' for Inactive)
REMARK    1  A    between atoms: C_3  and  O_4
REMARK                            x       y       z     vdW  Elec       q    Type
REMARK                         _______ _______ _______ _____ _____    ______ ____
ROOT
ATOM      1  O   UNL     1      33.730  -0.112  15.262  0.00  0.00    +0.000 OA
ATOM      2  C   UNL     1      34.525  -1.202  17.124  0.00  0.00    +0.000 C 
ATOM      3  C   UNL     1      33.427  -0.751  16.247  0.00  0.00    +0.000 C 
ENDROOT
BRANCH   3   4
ATOM      4  O   UNL     1      32.197  -1.094  16.626  0.00  0.00    +0.000 OA
ATOM      5  H   UNL     1      32.201  -0.887  17.578  0.00  0.00    +0.000 HD
ENDBRANCH   3   4
TORSDOF 1
ENDMDL
MODEL 4
REMARK VINA RESULT:      -3.0     12.084     12.590
REMARK  Name = CadmiumAcetate.pdbqt.pdb
REMARK  1 active torsions:
REMARK  status: ('A' for Active; 'I' for Inactive)
REMARK    1  A    between atoms: C_3  and  O_4
REMARK                            x       y       z     vdW  Elec       q    Type
REMARK                         _______ _______ _______ _____ _____    ______ ____
ROOT
ATOM      1  O   UNL     1      29.163  -2.081  39.152  0.00  0.00    +0.000 OA
ATOM      2  C   UNL     1      31.100  -0.842  39.142  0.00  0.00    +0.000 C 
ATOM      3  C   UNL     1      30.027  -1.588  38.458  0.00  0.00    +0.000 C 
ENDROOT
BRANCH   3   4
ATOM      4  O   UNL     1      30.109  -1.648  37.129  0.00  0.00    +0.000 OA
ATOM      5  H   UNL     1      29.950  -0.724  36.864  0.00  0.00    +0.000 HD
ENDBRANCH   3   4
TORSDOF 1
ENDMDL
MODEL 5
REMARK VINA RESULT:      -3.0      2.066      2.376
REMARK  Name = CadmiumAcetate.pdbqt.pdb
REMARK  1 active torsions:
REMARK  status: ('A' for Active; 'I' for Inactive)
REMARK    1  A    between atoms: C_3  and  O_4
REMARK                            x       y       z     vdW  Elec       q    Type
REMARK                         _______ _______ _______ _____ _____    ______ ____
ROOT
ATOM      1  O   UNL     1      40.275   1.686  35.480  0.00  0.00    +0.000 OA
ATOM      2  C   UNL     1      39.957  -0.452  36.266  0.00  0.00    +0.000 C 
ATOM      3  C   UNL     1      40.599   0.522  35.363  0.00  0.00    +0.000 C 
ENDROOT
BRANCH   3   4
ATOM      4  O   UNL     1      41.482   0.026  34.497  0.00  0.00    +0.000 OA
ATOM      5  H   UNL     1      41.768  -0.797  34.934  0.00  0.00    +0.000 HD
ENDBRANCH   3   4
TORSDOF 1
ENDMDL
MODEL 6
REMARK VINA RESULT:      -2.9     12.664     13.110
REMARK  Name = CadmiumAcetate.pdbqt.pdb
REMARK  1 active torsions:
REMARK  status: ('A' for Active; 'I' for Inactive)
REMARK    1  A    between atoms: C_3  and  O_4
REMARK                            x       y       z     vdW  Elec       q    Type
REMARK                         _______ _______ _______ _____ _____    ______ ____
ROOT
ATOM      1  O   UNL     1      31.572  -2.553  40.321  0.00  0.00    +0.000 OA
ATOM      2  C   UNL     1      29.936  -1.717  38.939  0.00  0.00    +0.000 C 
ATOM      3  C   UNL     1      30.377  -2.435  40.150  0.00  0.00    +0.000 C 
ENDROOT
BRANCH   3   4
ATOM      4  O   UNL     1      29.411  -2.889  40.947  0.00  0.00    +0.000 OA
ATOM      5  H   UNL     1      28.702  -2.233  40.818  0.00  0.00    +0.000 HD
ENDBRANCH   3   4
TORSDOF 1
ENDMDL
MODEL 7
REMARK VINA RESULT:      -2.8      3.537      4.162
REMARK  Name = CadmiumAcetate.pdbqt.pdb
REMARK  1 active torsions:
REMARK  status: ('A' for Active; 'I' for Inactive)
REMARK    1  A    between atoms: C_3  and  O_4
REMARK                            x       y       z     vdW  Elec       q    Type
REMARK                         _______ _______ _______ _____ _____    ______ ____
ROOT
ATOM      1  O   UNL     1      38.991  -1.565  36.495  0.00  0.00    +0.000 OA
ATOM      2  C   UNL     1      39.727   0.253  37.696  0.00  0.00    +0.000 C 
ATOM      3  C   UNL     1      39.953  -0.880  36.779  0.00  0.00    +0.000 C 
ENDROOT
BRANCH   3   4
ATOM      4  O   UNL     1      41.201  -1.045  36.345  0.00  0.00    +0.000 OA
ATOM      5  H   UNL     1      41.386  -0.196  35.902  0.00  0.00    +0.000 HD
ENDBRANCH   3   4
TORSDOF 1
ENDMDL
MODEL 8
REMARK VINA RESULT:      -2.7     24.363     24.835
REMARK  Name = CadmiumAcetate.pdbqt.pdb
REMARK  1 active torsions:
REMARK  status: ('A' for Active; 'I' for Inactive)
REMARK    1  A    between atoms: C_3  and  O_4
REMARK                            x       y       z     vdW  Elec       q    Type
REMARK                         _______ _______ _______ _____ _____    ______ ____
ROOT
ATOM      1  O   UNL     1      31.624  23.916  28.601  0.00  0.00    +0.000 OA
ATOM      2  C   UNL     1      30.056  22.777  29.838  0.00  0.00    +0.000 C 
ATOM      3  C   UNL     1      31.447  23.168  29.540  0.00  0.00    +0.000 C 
ENDROOT
BRANCH   3   4
ATOM      4  O   UNL     1      32.383  22.658  30.338  0.00  0.00    +0.000 OA
ATOM      5  H   UNL     1      32.691  21.881  29.835  0.00  0.00    +0.000 HD
ENDBRANCH   3   4
TORSDOF 1
ENDMDL
MODEL 9
REMARK VINA RESULT:      -2.7     23.066     23.572
REMARK  Name = CadmiumAcetate.pdbqt.pdb
REMARK  1 active torsions:
REMARK  status: ('A' for Active; 'I' for Inactive)
REMARK    1  A    between atoms: C_3  and  O_4
REMARK                            x       y       z     vdW  Elec       q    Type
REMARK                         _______ _______ _______ _____ _____    ______ ____
ROOT
ATOM      1  O   UNL     1      20.667  -8.803  41.293  0.00  0.00    +0.000 OA
ATOM      2  C   UNL     1      19.582  -6.976  40.413  0.00  0.00    +0.000 C 
ATOM      3  C   UNL     1      20.678  -7.594  41.183  0.00  0.00    +0.000 C 
ENDROOT
BRANCH   3   4
ATOM      4  O   UNL     1      21.584  -6.758  41.688  0.00  0.00    +0.000 OA
ATOM      5  H   UNL     1      21.919  -6.303  40.894  0.00  0.00    +0.000 HD
ENDBRANCH   3   4
TORSDOF 1
ENDMDL
