MODEL 1
REMARK VINA RESULT:      -8.1      0.000      0.000
REMARK  Name = Calcitriol.pdbqt.pdb
REMARK  9 active torsions:
REMARK  status: ('A' for Active; 'I' for Inactive)
REMARK    1  A    between atoms: C_2  and  C_24
REMARK    2  A    between atoms: C_7  and  C_11
REMARK    3  A    between atoms: C_12  and  C_13
REMARK    4  A    between atoms: C_16  and  O_20
REMARK    5  A    between atoms: C_18  and  O_22
REMARK    6  A    between atoms: C_24  and  C_26
REMARK    7  A    between atoms: C_27  and  C_28
REMARK    8  A    between atoms: C_28  and  C_29
REMARK    9  A    between atoms: C_29  and  O_32
REMARK                            x       y       z     vdW  Elec       q    Type
REMARK                         _______ _______ _______ _____ _____    ______ ____
ROOT
ATOM      1  C   UNL     1      36.243   1.661  14.424  0.00  0.00    +0.000 C 
ATOM      2  C   UNL     1      36.225   0.534  15.454  0.00  0.00    +0.000 C 
ATOM      3  C   UNL     1      37.134   1.036  13.218  0.00  0.00    +0.000 C 
ATOM      4  C   UNL     1      36.847  -0.627  14.906  0.00  0.00    +0.000 C 
ATOM      5  C   UNL     1      37.381  -0.338  13.530  0.00  0.00    +0.000 C 
ATOM      6  C   UNL     1      36.936   2.881  14.869  0.00  0.00    +0.000 C 
ATOM      7  C   UNL     1      38.145   1.848  12.531  0.00  0.00    +0.000 C 
ATOM      8  C   UNL     1      34.821   1.910  13.847  0.00  0.00    +0.000 C 
ATOM      9  C   UNL     1      38.050   3.812  14.423  0.00  0.00    +0.000 C 
ATOM     10  C   UNL     1      38.489   3.064  13.180  0.00  0.00    +0.000 C 
ENDROOT
BRANCH   7  11
ATOM     11  C   UNL     1      38.810   1.462  11.487  0.00  0.00    +0.000 C 
ATOM     12  C   UNL     1      39.608   1.011  10.258  0.00  0.00    +0.000 C 
BRANCH  12  13
ATOM     13  C   UNL     1      40.291   0.628   9.223  0.00  0.00    +0.000 A 
ATOM     14  C   UNL     1      41.719   0.733   9.238  0.00  0.00    +0.000 A 
ATOM     15  C   UNL     1      39.743   0.116   7.927  0.00  0.00    +0.000 A 
ATOM     16  C   UNL     1      42.728   0.450   8.272  0.00  0.00    +0.000 A 
ATOM     17  C   UNL     1      42.069  -0.016   7.099  0.00  0.00    +0.000 A 
ATOM     18  C   UNL     1      40.688  -0.217   6.815  0.00  0.00    +0.000 A 
ATOM     19  C   UNL     1      38.424  -0.063   7.729  0.00  0.00    +0.000 C 
BRANCH  16  20
ATOM     20  O   UNL     1      43.956  -0.012   8.646  0.00  0.00    +0.000 OA
ATOM     21  H   UNL     1      44.004  -0.151   9.606  0.00  0.00    +0.000 HD
ENDBRANCH  16  20
BRANCH  18  22
ATOM     22  O   UNL     1      40.245  -0.698   5.607  0.00  0.00    +0.000 OA
ATOM     23  H   UNL     1      40.034  -1.649   5.678  0.00  0.00    +0.000 HD
ENDBRANCH  18  22
ENDBRANCH  12  13
ENDBRANCH   7  11
BRANCH   2  24
ATOM     24  C   UNL     1      35.544   0.576  16.709  0.00  0.00    +0.000 C 
ATOM     25  C   UNL     1      34.209  -0.085  16.941  0.00  0.00    +0.000 C 
BRANCH  24  26
ATOM     26  C   UNL     1      36.002   1.408  17.766  0.00  0.00    +0.000 C 
ATOM     27  C   UNL     1      36.510   2.296  18.909  0.00  0.00    +0.000 C 
BRANCH  27  28
ATOM     28  C   UNL     1      37.028   3.175  20.055  0.00  0.00    +0.000 C 
BRANCH  28  29
ATOM     29  C   UNL     1      37.520   4.010  21.150  0.00  0.00    +0.000 C 
ATOM     30  C   UNL     1      38.015   5.382  20.677  0.00  0.00    +0.000 C 
ATOM     31  C   UNL     1      36.509   4.165  22.292  0.00  0.00    +0.000 C 
BRANCH  29  32
ATOM     32  O   UNL     1      38.643   3.387  21.733  0.00  0.00    +0.000 OA
ATOM     33  H   UNL     1      38.229   2.546  21.978  0.00  0.00    +0.000 HD
ENDBRANCH  29  32
ENDBRANCH  28  29
ENDBRANCH  27  28
ENDBRANCH  24  26
ENDBRANCH   2  24
TORSDOF 9
ENDMDL
MODEL 2
REMARK VINA RESULT:      -7.7      3.677     10.950
REMARK  Name = Calcitriol.pdbqt.pdb
REMARK  9 active torsions:
REMARK  status: ('A' for Active; 'I' for Inactive)
REMARK    1  A    between atoms: C_2  and  C_24
REMARK    2  A    between atoms: C_7  and  C_11
REMARK    3  A    between atoms: C_12  and  C_13
REMARK    4  A    between atoms: C_16  and  O_20
REMARK    5  A    between atoms: C_18  and  O_22
REMARK    6  A    between atoms: C_24  and  C_26
REMARK    7  A    between atoms: C_27  and  C_28
REMARK    8  A    between atoms: C_28  and  C_29
REMARK    9  A    between atoms: C_29  and  O_32
REMARK                            x       y       z     vdW  Elec       q    Type
REMARK                         _______ _______ _______ _____ _____    ______ ____
ROOT
ATOM      1  C   UNL     1      39.791   1.923  10.024  0.00  0.00    +0.000 C 
ATOM      2  C   UNL     1      39.725   1.090   8.747  0.00  0.00    +0.000 C 
ATOM      3  C   UNL     1      38.899   1.058  11.069  0.00  0.00    +0.000 C 
ATOM      4  C   UNL     1      39.057  -0.142   9.012  0.00  0.00    +0.000 C 
ATOM      5  C   UNL     1      38.573  -0.183  10.436  0.00  0.00    +0.000 C 
ATOM      6  C   UNL     1      39.152   3.245   9.922  0.00  0.00    +0.000 C 
ATOM      7  C   UNL     1      37.948   1.716  11.973  0.00  0.00    +0.000 C 
ATOM      8  C   UNL     1      41.238   1.957  10.593  0.00  0.00    +0.000 C 
ATOM      9  C   UNL     1      38.099   4.083  10.626  0.00  0.00    +0.000 C 
ATOM     10  C   UNL     1      37.652   3.069  11.659  0.00  0.00    +0.000 C 
ENDROOT
BRANCH   7  11
ATOM     11  C   UNL     1      37.290   1.112  12.912  0.00  0.00    +0.000 C 
ATOM     12  C   UNL     1      36.500   0.397  14.015  0.00  0.00    +0.000 C 
BRANCH  12  13
ATOM     13  C   UNL     1      35.825  -0.211  14.942  0.00  0.00    +0.000 A 
ATOM     14  C   UNL     1      36.485  -1.147  15.801  0.00  0.00    +0.000 A 
ATOM     15  C   UNL     1      34.355  -0.092  15.204  0.00  0.00    +0.000 A 
ATOM     16  C   UNL     1      36.031  -1.990  16.856  0.00  0.00    +0.000 A 
ATOM     17  C   UNL     1      34.629  -1.782  16.989  0.00  0.00    +0.000 A 
ATOM     18  C   UNL     1      33.737  -0.926  16.282  0.00  0.00    +0.000 A 
ATOM     19  C   UNL     1      33.570   0.748  14.506  0.00  0.00    +0.000 C 
BRANCH  16  20
ATOM     20  O   UNL     1      36.826  -2.274  17.929  0.00  0.00    +0.000 OA
ATOM     21  H   UNL     1      36.385  -2.884  18.543  0.00  0.00    +0.000 HD
ENDBRANCH  16  20
BRANCH  18  22
ATOM     22  O   UNL     1      32.395  -0.854  16.574  0.00  0.00    +0.000 OA
ATOM     23  H   UNL     1      32.266  -0.640  17.518  0.00  0.00    +0.000 HD
ENDBRANCH  18  22
ENDBRANCH  12  13
ENDBRANCH   7  11
BRANCH   2  24
ATOM     24  C   UNL     1      40.377   1.414   7.518  0.00  0.00    +0.000 C 
ATOM     25  C   UNL     1      39.846   2.442   6.552  0.00  0.00    +0.000 C 
BRANCH  24  26
ATOM     26  C   UNL     1      41.474   0.644   7.044  0.00  0.00    +0.000 C 
ATOM     27  C   UNL     1      42.656  -0.180   6.517  0.00  0.00    +0.000 C 
BRANCH  27  28
ATOM     28  C   UNL     1      43.833  -1.001   5.977  0.00  0.00    +0.000 C 
BRANCH  28  29
ATOM     29  C   UNL     1      44.955  -1.783   5.458  0.00  0.00    +0.000 C 
ATOM     30  C   UNL     1      45.807  -1.004   4.449  0.00  0.00    +0.000 C 
ATOM     31  C   UNL     1      45.836  -2.380   6.561  0.00  0.00    +0.000 C 
BRANCH  29  32
ATOM     32  O   UNL     1      44.452  -2.892   4.747  0.00  0.00    +0.000 OA
ATOM     33  H   UNL     1      43.809  -2.425   4.192  0.00  0.00    +0.000 HD
ENDBRANCH  29  32
ENDBRANCH  28  29
ENDBRANCH  27  28
ENDBRANCH  24  26
ENDBRANCH   2  24
TORSDOF 9
ENDMDL
MODEL 3
REMARK VINA RESULT:      -7.5      4.064     10.713
REMARK  Name = Calcitriol.pdbqt.pdb
REMARK  9 active torsions:
REMARK  status: ('A' for Active; 'I' for Inactive)
REMARK    1  A    between atoms: C_2  and  C_24
REMARK    2  A    between atoms: C_7  and  C_11
REMARK    3  A    between atoms: C_12  and  C_13
REMARK    4  A    between atoms: C_16  and  O_20
REMARK    5  A    between atoms: C_18  and  O_22
REMARK    6  A    between atoms: C_24  and  C_26
REMARK    7  A    between atoms: C_27  and  C_28
REMARK    8  A    between atoms: C_28  and  C_29
REMARK    9  A    between atoms: C_29  and  O_32
REMARK                            x       y       z     vdW  Elec       q    Type
REMARK                         _______ _______ _______ _____ _____    ______ ____
ROOT
ATOM      1  C   UNL     1      40.131   1.768  10.190  0.00  0.00    +0.000 C 
ATOM      2  C   UNL     1      40.383   0.774   9.059  0.00  0.00    +0.000 C 
ATOM      3  C   UNL     1      39.244   0.905  11.241  0.00  0.00    +0.000 C 
ATOM      4  C   UNL     1      39.886  -0.510   9.430  0.00  0.00    +0.000 C 
ATOM      5  C   UNL     1      39.213  -0.447  10.773  0.00  0.00    +0.000 C 
ATOM      6  C   UNL     1      39.313   2.931   9.807  0.00  0.00    +0.000 C 
ATOM      7  C   UNL     1      38.080   1.499  11.910  0.00  0.00    +0.000 C 
ATOM      8  C   UNL     1      41.456   2.132  10.917  0.00  0.00    +0.000 C 
ATOM      9  C   UNL     1      38.051   3.655  10.240  0.00  0.00    +0.000 C 
ATOM     10  C   UNL     1      37.624   2.725  11.356  0.00  0.00    +0.000 C 
ENDROOT
BRANCH   7  11
ATOM     11  C   UNL     1      37.397   0.918  12.846  0.00  0.00    +0.000 C 
ATOM     12  C   UNL     1      36.590   0.241  13.960  0.00  0.00    +0.000 C 
BRANCH  12  13
ATOM     13  C   UNL     1      35.904  -0.323  14.908  0.00  0.00    +0.000 A 
ATOM     14  C   UNL     1      36.547  -1.248  15.793  0.00  0.00    +0.000 A 
ATOM     15  C   UNL     1      34.439  -0.162  15.171  0.00  0.00    +0.000 A 
ATOM     16  C   UNL     1      36.078  -2.048  16.874  0.00  0.00    +0.000 A 
ATOM     17  C   UNL     1      34.681  -1.804  17.005  0.00  0.00    +0.000 A 
ATOM     18  C   UNL     1      33.806  -0.948  16.276  0.00  0.00    +0.000 A 
ATOM     19  C   UNL     1      33.670   0.675  14.451  0.00  0.00    +0.000 C 
BRANCH  16  20
ATOM     20  O   UNL     1      36.871  -2.318  17.952  0.00  0.00    +0.000 OA
ATOM     21  H   UNL     1      37.788  -2.038  17.793  0.00  0.00    +0.000 HD
ENDBRANCH  16  20
BRANCH  18  22
ATOM     22  O   UNL     1      32.468  -0.837  16.570  0.00  0.00    +0.000 OA
ATOM     23  H   UNL     1      31.946  -0.771  15.748  0.00  0.00    +0.000 HD
ENDBRANCH  18  22
ENDBRANCH  12  13
ENDBRANCH   7  11
BRANCH   2  24
ATOM     24  C   UNL     1      41.147   1.042   7.882  0.00  0.00    +0.000 C 
ATOM     25  C   UNL     1      42.551   0.533   7.681  0.00  0.00    +0.000 C 
BRANCH  24  26
ATOM     26  C   UNL     1      40.691   1.968   6.905  0.00  0.00    +0.000 C 
ATOM     27  C   UNL     1      40.183   2.960   5.851  0.00  0.00    +0.000 C 
BRANCH  27  28
ATOM     28  C   UNL     1      39.664   3.944   4.796  0.00  0.00    +0.000 C 
BRANCH  28  29
ATOM     29  C   UNL     1      39.164   4.883   3.791  0.00  0.00    +0.000 C 
ATOM     30  C   UNL     1      39.739   6.294   3.956  0.00  0.00    +0.000 C 
ATOM     31  C   UNL     1      39.357   4.386   2.353  0.00  0.00    +0.000 C 
BRANCH  29  32
ATOM     32  O   UNL     1      37.770   5.025   3.949  0.00  0.00    +0.000 OA
ATOM     33  H   UNL     1      37.700   4.728   4.868  0.00  0.00    +0.000 HD
ENDBRANCH  29  32
ENDBRANCH  28  29
ENDBRANCH  27  28
ENDBRANCH  24  26
ENDBRANCH   2  24
TORSDOF 9
ENDMDL
MODEL 4
REMARK VINA RESULT:      -7.5      4.226     11.213
REMARK  Name = Calcitriol.pdbqt.pdb
REMARK  9 active torsions:
REMARK  status: ('A' for Active; 'I' for Inactive)
REMARK    1  A    between atoms: C_2  and  C_24
REMARK    2  A    between atoms: C_7  and  C_11
REMARK    3  A    between atoms: C_12  and  C_13
REMARK    4  A    between atoms: C_16  and  O_20
REMARK    5  A    between atoms: C_18  and  O_22
REMARK    6  A    between atoms: C_24  and  C_26
REMARK    7  A    between atoms: C_27  and  C_28
REMARK    8  A    between atoms: C_28  and  C_29
REMARK    9  A    between atoms: C_29  and  O_32
REMARK                            x       y       z     vdW  Elec       q    Type
REMARK                         _______ _______ _______ _____ _____    ______ ____
ROOT
ATOM      1  C   UNL     1      41.974   0.302  10.118  0.00  0.00    +0.000 C 
ATOM      2  C   UNL     1      42.135  -0.855   9.137  0.00  0.00    +0.000 C 
ATOM      3  C   UNL     1      40.782  -0.212  11.094  0.00  0.00    +0.000 C 
ATOM      4  C   UNL     1      41.311  -1.946   9.542  0.00  0.00    +0.000 C 
ATOM      5  C   UNL     1      40.501  -1.573  10.754  0.00  0.00    +0.000 C 
ATOM      6  C   UNL     1      41.504   1.557   9.508  0.00  0.00    +0.000 C 
ATOM      7  C   UNL     1      39.710   0.697  11.518  0.00  0.00    +0.000 C 
ATOM      8  C   UNL     1      43.241   0.461  11.005  0.00  0.00    +0.000 C 
ATOM      9  C   UNL     1      40.398   2.584   9.671  0.00  0.00    +0.000 C 
ATOM     10  C   UNL     1      39.626   1.913  10.789  0.00  0.00    +0.000 C 
ENDROOT
BRANCH   7  11
ATOM     11  C   UNL     1      38.795   0.397  12.385  0.00  0.00    +0.000 C 
ATOM     12  C   UNL     1      37.703   0.053  13.405  0.00  0.00    +0.000 C 
BRANCH  12  13
ATOM     13  C   UNL     1      36.772  -0.236  14.263  0.00  0.00    +0.000 A 
ATOM     14  C   UNL     1      36.937  -1.361  15.135  0.00  0.00    +0.000 A 
ATOM     15  C   UNL     1      35.457   0.460  14.425  0.00  0.00    +0.000 A 
ATOM     16  C   UNL     1      36.104  -1.953  16.127  0.00  0.00    +0.000 A 
ATOM     17  C   UNL     1      34.896  -1.202  16.169  0.00  0.00    +0.000 A 
ATOM     18  C   UNL     1      34.476  -0.058  15.430  0.00  0.00    +0.000 A 
ATOM     19  C   UNL     1      35.128   1.546  13.702  0.00  0.00    +0.000 C 
BRANCH  16  20
ATOM     20  O   UNL     1      36.635  -2.534  17.242  0.00  0.00    +0.000 OA
ATOM     21  H   UNL     1      36.366  -2.062  18.048  0.00  0.00    +0.000 HD
ENDBRANCH  16  20
BRANCH  18  22
ATOM     22  O   UNL     1      33.257   0.543  15.630  0.00  0.00    +0.000 OA
ATOM     23  H   UNL     1      33.250   1.434  15.229  0.00  0.00    +0.000 HD
ENDBRANCH  18  22
ENDBRANCH  12  13
ENDBRANCH   7  11
BRANCH   2  24
ATOM     24  C   UNL     1      43.087  -0.907   8.073  0.00  0.00    +0.000 C 
ATOM     25  C   UNL     1      43.004  -0.026   6.852  0.00  0.00    +0.000 C 
BRANCH  24  26
ATOM     26  C   UNL     1      44.072  -1.930   8.017  0.00  0.00    +0.000 C 
ATOM     27  C   UNL     1      45.130  -3.040   7.973  0.00  0.00    +0.000 C 
BRANCH  27  28
ATOM     28  C   UNL     1      46.184  -4.154   7.941  0.00  0.00    +0.000 C 
BRANCH  28  29
ATOM     29  C   UNL     1      47.191  -5.214   7.915  0.00  0.00    +0.000 C 
ATOM     30  C   UNL     1      47.174  -6.083   9.178  0.00  0.00    +0.000 C 
ATOM     31  C   UNL     1      47.115  -6.088   6.658  0.00  0.00    +0.000 C 
BRANCH  29  32
ATOM     32  O   UNL     1      48.474  -4.628   7.880  0.00  0.00    +0.000 OA
ATOM     33  H   UNL     1      48.238  -3.795   7.446  0.00  0.00    +0.000 HD
ENDBRANCH  29  32
ENDBRANCH  28  29
ENDBRANCH  27  28
ENDBRANCH  24  26
ENDBRANCH   2  24
TORSDOF 9
ENDMDL
MODEL 5
REMARK VINA RESULT:      -7.4     19.685     22.507
REMARK  Name = Calcitriol.pdbqt.pdb
REMARK  9 active torsions:
REMARK  status: ('A' for Active; 'I' for Inactive)
REMARK    1  A    between atoms: C_2  and  C_24
REMARK    2  A    between atoms: C_7  and  C_11
REMARK    3  A    between atoms: C_12  and  C_13
REMARK    4  A    between atoms: C_16  and  O_20
REMARK    5  A    between atoms: C_18  and  O_22
REMARK    6  A    between atoms: C_24  and  C_26
REMARK    7  A    between atoms: C_27  and  C_28
REMARK    8  A    between atoms: C_28  and  C_29
REMARK    9  A    between atoms: C_29  and  O_32
REMARK                            x       y       z     vdW  Elec       q    Type
REMARK                         _______ _______ _______ _____ _____    ______ ____
ROOT
ATOM      1  C   UNL     1      19.750   8.216  19.834  0.00  0.00    +0.000 C 
ATOM      2  C   UNL     1      18.275   7.891  20.046  0.00  0.00    +0.000 C 
ATOM      3  C   UNL     1      19.707   9.725  19.235  0.00  0.00    +0.000 C 
ATOM      4  C   UNL     1      17.485   9.050  19.785  0.00  0.00    +0.000 C 
ATOM      5  C   UNL     1      18.355  10.184  19.315  0.00  0.00    +0.000 C 
ATOM      6  C   UNL     1      20.418   7.382  18.821  0.00  0.00    +0.000 C 
ATOM      7  C   UNL     1      20.571  10.116  18.114  0.00  0.00    +0.000 C 
ATOM      8  C   UNL     1      20.504   8.296  21.191  0.00  0.00    +0.000 C 
ATOM      9  C   UNL     1      21.238   7.531  17.552  0.00  0.00    +0.000 C 
ATOM     10  C   UNL     1      21.188   9.039  17.422  0.00  0.00    +0.000 C 
ENDROOT
BRANCH   7  11
ATOM     11  C   UNL     1      20.681  11.324  17.660  0.00  0.00    +0.000 C 
ATOM     12  C   UNL     1      20.814  12.759  17.136  0.00  0.00    +0.000 C 
BRANCH  12  13
ATOM     13  C   UNL     1      20.931  13.977  16.699  0.00  0.00    +0.000 A 
ATOM     14  C   UNL     1      21.435  14.996  17.570  0.00  0.00    +0.000 A 
ATOM     15  C   UNL     1      20.534  14.486  15.349  0.00  0.00    +0.000 A 
ATOM     16  C   UNL     1      21.637  16.398  17.415  0.00  0.00    +0.000 A 
ATOM     17  C   UNL     1      21.213  16.742  16.100  0.00  0.00    +0.000 A 
ATOM     18  C   UNL     1      20.685  15.944  15.046  0.00  0.00    +0.000 A 
ATOM     19  C   UNL     1      20.052  13.673  14.391  0.00  0.00    +0.000 C 
BRANCH  16  20
ATOM     20  O   UNL     1      22.671  17.038  18.034  0.00  0.00    +0.000 OA
ATOM     21  H   UNL     1      22.370  17.849  18.476  0.00  0.00    +0.000 HD
ENDBRANCH  16  20
BRANCH  18  22
ATOM     22  O   UNL     1      20.344  16.469  13.822  0.00  0.00    +0.000 OA
ATOM     23  H   UNL     1      20.625  15.866  13.106  0.00  0.00    +0.000 HD
ENDBRANCH  18  22
ENDBRANCH  12  13
ENDBRANCH   7  11
BRANCH   2  24
ATOM     24  C   UNL     1      17.770   6.668  20.586  0.00  0.00    +0.000 C 
ATOM     25  C   UNL     1      17.898   6.298  22.041  0.00  0.00    +0.000 C 
BRANCH  24  26
ATOM     26  C   UNL     1      17.279   5.639  19.737  0.00  0.00    +0.000 C 
ATOM     27  C   UNL     1      16.758   4.533  18.810  0.00  0.00    +0.000 C 
BRANCH  27  28
ATOM     28  C   UNL     1      16.245   3.434  17.872  0.00  0.00    +0.000 C 
BRANCH  28  29
ATOM     29  C   UNL     1      15.757   2.382  16.980  0.00  0.00    +0.000 C 
ATOM     30  C   UNL     1      16.275   0.990  17.361  0.00  0.00    +0.000 C 
ATOM     31  C   UNL     1      14.230   2.370  16.840  0.00  0.00    +0.000 C 
BRANCH  29  32
ATOM     32  O   UNL     1      16.245   2.621  15.679  0.00  0.00    +0.000 OA
ATOM     33  H   UNL     1      15.930   3.530  15.573  0.00  0.00    +0.000 HD
ENDBRANCH  29  32
ENDBRANCH  28  29
ENDBRANCH  27  28
ENDBRANCH  24  26
ENDBRANCH   2  24
TORSDOF 9
ENDMDL
MODEL 6
REMARK VINA RESULT:      -7.4      1.612      2.406
REMARK  Name = Calcitriol.pdbqt.pdb
REMARK  9 active torsions:
REMARK  status: ('A' for Active; 'I' for Inactive)
REMARK    1  A    between atoms: C_2  and  C_24
REMARK    2  A    between atoms: C_7  and  C_11
REMARK    3  A    between atoms: C_12  and  C_13
REMARK    4  A    between atoms: C_16  and  O_20
REMARK    5  A    between atoms: C_18  and  O_22
REMARK    6  A    between atoms: C_24  and  C_26
REMARK    7  A    between atoms: C_27  and  C_28
REMARK    8  A    between atoms: C_28  and  C_29
REMARK    9  A    between atoms: C_29  and  O_32
REMARK                            x       y       z     vdW  Elec       q    Type
REMARK                         _______ _______ _______ _____ _____    ______ ____
ROOT
ATOM      1  C   UNL     1      36.974   1.997  13.711  0.00  0.00    +0.000 C 
ATOM      2  C   UNL     1      36.497   1.028  14.789  0.00  0.00    +0.000 C 
ATOM      3  C   UNL     1      38.079   1.125  12.902  0.00  0.00    +0.000 C 
ATOM      4  C   UNL     1      37.081  -0.255  14.573  0.00  0.00    +0.000 C 
ATOM      5  C   UNL     1      38.027  -0.213  13.405  0.00  0.00    +0.000 C 
ATOM      6  C   UNL     1      37.672   3.186  14.226  0.00  0.00    +0.000 C 
ATOM      7  C   UNL     1      39.352   1.725  12.482  0.00  0.00    +0.000 C 
ATOM      8  C   UNL     1      35.832   2.315  12.704  0.00  0.00    +0.000 C 
ATOM      9  C   UNL     1      38.988   3.924  14.054  0.00  0.00    +0.000 C 
ATOM     10  C   UNL     1      39.660   2.974  13.085  0.00  0.00    +0.000 C 
ENDROOT
BRANCH   7  11
ATOM     11  C   UNL     1      40.230   1.134  11.734  0.00  0.00    +0.000 C 
ATOM     12  C   UNL     1      41.258   0.430  10.840  0.00  0.00    +0.000 C 
BRANCH  12  13
ATOM     13  C   UNL     1      42.123  -0.164  10.075  0.00  0.00    +0.000 A 
ATOM     14  C   UNL     1      42.115   0.090   8.666  0.00  0.00    +0.000 A 
ATOM     15  C   UNL     1      43.143  -1.176  10.496  0.00  0.00    +0.000 A 
ATOM     16  C   UNL     1      42.881  -0.423   7.579  0.00  0.00    +0.000 A 
ATOM     17  C   UNL     1      43.797  -1.371   8.118  0.00  0.00    +0.000 A 
ATOM     18  C   UNL     1      44.017  -1.806   9.457  0.00  0.00    +0.000 A 
ATOM     19  C   UNL     1      43.308  -1.534  11.782  0.00  0.00    +0.000 C 
BRANCH  16  20
ATOM     20  O   UNL     1      43.194   0.356   6.503  0.00  0.00    +0.000 OA
ATOM     21  H   UNL     1      43.472  -0.186   5.746  0.00  0.00    +0.000 HD
ENDBRANCH  16  20
BRANCH  18  22
ATOM     22  O   UNL     1      44.977  -2.735   9.783  0.00  0.00    +0.000 OA
ATOM     23  H   UNL     1      44.979  -2.893  10.746  0.00  0.00    +0.000 HD
ENDBRANCH  18  22
ENDBRANCH  12  13
ENDBRANCH   7  11
BRANCH   2  24
ATOM     24  C   UNL     1      35.493   1.311  15.765  0.00  0.00    +0.000 C 
ATOM     25  C   UNL     1      34.021   1.348  15.442  0.00  0.00    +0.000 C 
BRANCH  24  26
ATOM     26  C   UNL     1      35.840   1.761  17.068  0.00  0.00    +0.000 C 
ATOM     27  C   UNL     1      36.213   2.261  18.469  0.00  0.00    +0.000 C 
BRANCH  27  28
ATOM     28  C   UNL     1      36.585   2.775  19.865  0.00  0.00    +0.000 C 
BRANCH  28  29
ATOM     29  C   UNL     1      36.941   3.261  21.198  0.00  0.00    +0.000 C 
ATOM     30  C   UNL     1      37.756   4.560  21.161  0.00  0.00    +0.000 C 
ATOM     31  C   UNL     1      35.733   3.409  22.129  0.00  0.00    +0.000 C 
BRANCH  29  32
ATOM     32  O   UNL     1      37.776   2.313  21.824  0.00  0.00    +0.000 OA
ATOM     33  H   UNL     1      37.505   1.530  21.321  0.00  0.00    +0.000 HD
ENDBRANCH  29  32
ENDBRANCH  28  29
ENDBRANCH  27  28
ENDBRANCH  24  26
ENDBRANCH   2  24
TORSDOF 9
ENDMDL
MODEL 7
REMARK VINA RESULT:      -7.3      3.861      6.231
REMARK  Name = Calcitriol.pdbqt.pdb
REMARK  9 active torsions:
REMARK  status: ('A' for Active; 'I' for Inactive)
REMARK    1  A    between atoms: C_2  and  C_24
REMARK    2  A    between atoms: C_7  and  C_11
REMARK    3  A    between atoms: C_12  and  C_13
REMARK    4  A    between atoms: C_16  and  O_20
REMARK    5  A    between atoms: C_18  and  O_22
REMARK    6  A    between atoms: C_24  and  C_26
REMARK    7  A    between atoms: C_27  and  C_28
REMARK    8  A    between atoms: C_28  and  C_29
REMARK    9  A    between atoms: C_29  and  O_32
REMARK                            x       y       z     vdW  Elec       q    Type
REMARK                         _______ _______ _______ _____ _____    ______ ____
ROOT
ATOM      1  C   UNL     1      38.508  -0.326   9.775  0.00  0.00    +0.000 C 
ATOM      2  C   UNL     1      38.329   0.276  11.166  0.00  0.00    +0.000 C 
ATOM      3  C   UNL     1      39.981  -1.004   9.860  0.00  0.00    +0.000 C 
ATOM      4  C   UNL     1      39.419  -0.110  12.001  0.00  0.00    +0.000 C 
ATOM      5  C   UNL     1      40.420  -0.916  11.219  0.00  0.00    +0.000 C 
ATOM      6  C   UNL     1      38.564   0.664   8.687  0.00  0.00    +0.000 C 
ATOM      7  C   UNL     1      40.933  -0.879   8.749  0.00  0.00    +0.000 C 
ATOM      8  C   UNL     1      37.497  -1.482   9.534  0.00  0.00    +0.000 C 
ATOM      9  C   UNL     1      39.461   1.067   7.530  0.00  0.00    +0.000 C 
ATOM     10  C   UNL     1      40.600   0.099   7.775  0.00  0.00    +0.000 C 
ENDROOT
BRANCH   7  11
ATOM     11  C   UNL     1      42.075  -1.488   8.692  0.00  0.00    +0.000 C 
ATOM     12  C   UNL     1      43.420  -2.221   8.622  0.00  0.00    +0.000 C 
BRANCH  12  13
ATOM     13  C   UNL     1      44.555  -2.849   8.559  0.00  0.00    +0.000 A 
ATOM     14  C   UNL     1      45.150  -3.359   9.758  0.00  0.00    +0.000 A 
ATOM     15  C   UNL     1      45.389  -3.071   7.336  0.00  0.00    +0.000 A 
ATOM     16  C   UNL     1      46.376  -4.034  10.027  0.00  0.00    +0.000 A 
ATOM     17  C   UNL     1      47.064  -4.169   8.788  0.00  0.00    +0.000 A 
ATOM     18  C   UNL     1      46.709  -3.765   7.469  0.00  0.00    +0.000 A 
ATOM     19  C   UNL     1      44.988  -2.674   6.114  0.00  0.00    +0.000 C 
BRANCH  16  20
ATOM     20  O   UNL     1      46.464  -4.975  11.011  0.00  0.00    +0.000 OA
ATOM     21  H   UNL     1      45.592  -5.344  11.226  0.00  0.00    +0.000 HD
ENDBRANCH  16  20
BRANCH  18  22
ATOM     22  O   UNL     1      47.515  -4.004   6.382  0.00  0.00    +0.000 OA
ATOM     23  H   UNL     1      47.690  -4.961   6.295  0.00  0.00    +0.000 HD
ENDBRANCH  18  22
ENDBRANCH  12  13
ENDBRANCH   7  11
BRANCH   2  24
ATOM     24  C   UNL     1      37.169   0.977  11.617  0.00  0.00    +0.000 C 
ATOM     25  C   UNL     1      36.679   2.252  10.980  0.00  0.00    +0.000 C 
BRANCH  24  26
ATOM     26  C   UNL     1      36.510   0.609  12.823  0.00  0.00    +0.000 C 
ATOM     27  C   UNL     1      35.811   0.199  14.125  0.00  0.00    +0.000 C 
BRANCH  27  28
ATOM     28  C   UNL     1      35.121  -0.221  15.429  0.00  0.00    +0.000 C 
BRANCH  28  29
ATOM     29  C   UNL     1      34.462  -0.626  16.670  0.00  0.00    +0.000 C 
ATOM     30  C   UNL     1      33.015  -1.082  16.455  0.00  0.00    +0.000 C 
ATOM     31  C   UNL     1      35.250  -1.680  17.456  0.00  0.00    +0.000 C 
BRANCH  29  32
ATOM     32  O   UNL     1      34.379   0.489  17.530  0.00  0.00    +0.000 OA
ATOM     33  H   UNL     1      33.419   0.502  17.654  0.00  0.00    +0.000 HD
ENDBRANCH  29  32
ENDBRANCH  28  29
ENDBRANCH  27  28
ENDBRANCH  24  26
ENDBRANCH   2  24
TORSDOF 9
ENDMDL
MODEL 8
REMARK VINA RESULT:      -7.0      4.768      7.329
REMARK  Name = Calcitriol.pdbqt.pdb
REMARK  9 active torsions:
REMARK  status: ('A' for Active; 'I' for Inactive)
REMARK    1  A    between atoms: C_2  and  C_24
REMARK    2  A    between atoms: C_7  and  C_11
REMARK    3  A    between atoms: C_12  and  C_13
REMARK    4  A    between atoms: C_16  and  O_20
REMARK    5  A    between atoms: C_18  and  O_22
REMARK    6  A    between atoms: C_24  and  C_26
REMARK    7  A    between atoms: C_27  and  C_28
REMARK    8  A    between atoms: C_28  and  C_29
REMARK    9  A    between atoms: C_29  and  O_32
REMARK                            x       y       z     vdW  Elec       q    Type
REMARK                         _______ _______ _______ _____ _____    ______ ____
ROOT
ATOM      1  C   UNL     1      40.675   0.569  10.066  0.00  0.00    +0.000 C 
ATOM      2  C   UNL     1      39.259   0.003  10.108  0.00  0.00    +0.000 C 
ATOM      3  C   UNL     1      41.600  -0.754  10.247  0.00  0.00    +0.000 C 
ATOM      4  C   UNL     1      39.312  -1.422  10.138  0.00  0.00    +0.000 C 
ATOM      5  C   UNL     1      40.739  -1.895  10.195  0.00  0.00    +0.000 C 
ATOM      6  C   UNL     1      41.005   1.467  11.184  0.00  0.00    +0.000 C 
ATOM      7  C   UNL     1      42.777  -0.736  11.124  0.00  0.00    +0.000 C 
ATOM      8  C   UNL     1      41.000   1.153   8.662  0.00  0.00    +0.000 C 
ATOM      9  C   UNL     1      42.051   1.629  12.273  0.00  0.00    +0.000 C 
ATOM     10  C   UNL     1      42.858   0.376  12.005  0.00  0.00    +0.000 C 
ENDROOT
BRANCH   7  11
ATOM     11  C   UNL     1      43.628  -1.708  11.229  0.00  0.00    +0.000 C 
ATOM     12  C   UNL     1      44.637  -2.857  11.338  0.00  0.00    +0.000 C 
BRANCH  12  13
ATOM     13  C   UNL     1      45.494  -3.829  11.422  0.00  0.00    +0.000 A 
ATOM     14  C   UNL     1      45.759  -4.432  12.694  0.00  0.00    +0.000 A 
ATOM     15  C   UNL     1      46.324  -4.390  10.309  0.00  0.00    +0.000 A 
ATOM     16  C   UNL     1      46.652  -5.458  13.118  0.00  0.00    +0.000 A 
ATOM     17  C   UNL     1      47.376  -5.889  11.971  0.00  0.00    +0.000 A 
ATOM     18  C   UNL     1      47.313  -5.472  10.611  0.00  0.00    +0.000 A 
ATOM     19  C   UNL     1      46.206  -3.958   9.040  0.00  0.00    +0.000 C 
BRANCH  16  20
ATOM     20  O   UNL     1      46.319  -6.313  14.129  0.00  0.00    +0.000 OA
ATOM     21  H   UNL     1      45.426  -6.130  14.466  0.00  0.00    +0.000 HD
ENDBRANCH  16  20
BRANCH  18  22
ATOM     22  O   UNL     1      48.097  -6.031   9.630  0.00  0.00    +0.000 OA
ATOM     23  H   UNL     1      48.101  -5.463   8.836  0.00  0.00    +0.000 HD
ENDBRANCH  18  22
ENDBRANCH  12  13
ENDBRANCH   7  11
BRANCH   2  24
ATOM     24  C   UNL     1      38.061   0.769   9.968  0.00  0.00    +0.000 C 
ATOM     25  C   UNL     1      37.646   1.416   8.672  0.00  0.00    +0.000 C 
BRANCH  24  26
ATOM     26  C   UNL     1      37.280   1.124  11.102  0.00  0.00    +0.000 C 
ATOM     27  C   UNL     1      36.429   1.492  12.323  0.00  0.00    +0.000 C 
BRANCH  27  28
ATOM     28  C   UNL     1      35.570   1.849  13.543  0.00  0.00    +0.000 C 
BRANCH  28  29
ATOM     29  C   UNL     1      34.754   2.187  14.709  0.00  0.00    +0.000 C 
ATOM     30  C   UNL     1      33.769   1.076  15.089  0.00  0.00    +0.000 C 
ATOM     31  C   UNL     1      35.586   2.611  15.925  0.00  0.00    +0.000 C 
BRANCH  29  32
ATOM     32  O   UNL     1      33.955   3.307  14.400  0.00  0.00    +0.000 OA
ATOM     33  H   UNL     1      33.841   3.653  15.298  0.00  0.00    +0.000 HD
ENDBRANCH  29  32
ENDBRANCH  28  29
ENDBRANCH  27  28
ENDBRANCH  24  26
ENDBRANCH   2  24
TORSDOF 9
ENDMDL
MODEL 9
REMARK VINA RESULT:      -7.0     13.104     15.574
REMARK  Name = Calcitriol.pdbqt.pdb
REMARK  9 active torsions:
REMARK  status: ('A' for Active; 'I' for Inactive)
REMARK    1  A    between atoms: C_2  and  C_24
REMARK    2  A    between atoms: C_7  and  C_11
REMARK    3  A    between atoms: C_12  and  C_13
REMARK    4  A    between atoms: C_16  and  O_20
REMARK    5  A    between atoms: C_18  and  O_22
REMARK    6  A    between atoms: C_24  and  C_26
REMARK    7  A    between atoms: C_27  and  C_28
REMARK    8  A    between atoms: C_28  and  C_29
REMARK    9  A    between atoms: C_29  and  O_32
REMARK                            x       y       z     vdW  Elec       q    Type
REMARK                         _______ _______ _______ _____ _____    ______ ____
ROOT
ATOM      1  C   UNL     1      23.697  -0.523   4.664  0.00  0.00    +0.000 C 
ATOM      2  C   UNL     1      23.274  -1.831   5.326  0.00  0.00    +0.000 C 
ATOM      3  C   UNL     1      25.285  -0.744   4.404  0.00  0.00    +0.000 C 
ATOM      4  C   UNL     1      24.366  -2.748   5.318  0.00  0.00    +0.000 C 
ATOM      5  C   UNL     1      25.591  -2.103   4.731  0.00  0.00    +0.000 C 
ATOM      6  C   UNL     1      23.575   0.664   5.526  0.00  0.00    +0.000 C 
ATOM      7  C   UNL     1      26.248   0.331   4.668  0.00  0.00    +0.000 C 
ATOM      8  C   UNL     1      23.034  -0.366   3.267  0.00  0.00    +0.000 C 
ATOM      9  C   UNL     1      24.418   1.818   6.039  0.00  0.00    +0.000 C 
ATOM     10  C   UNL     1      25.746   1.420   5.430  0.00  0.00    +0.000 C 
ENDROOT
BRANCH   7  11
ATOM     11  C   UNL     1      27.510   0.274   4.375  0.00  0.00    +0.000 C 
ATOM     12  C   UNL     1      29.003   0.192   4.037  0.00  0.00    +0.000 C 
BRANCH  12  13
ATOM     13  C   UNL     1      30.267   0.115   3.751  0.00  0.00    +0.000 A 
ATOM     14  C   UNL     1      30.891  -1.170   3.640  0.00  0.00    +0.000 A 
ATOM     15  C   UNL     1      31.217   1.258   3.569  0.00  0.00    +0.000 A 
ATOM     16  C   UNL     1      32.231  -1.584   3.391  0.00  0.00    +0.000 A 
ATOM     17  C   UNL     1      33.017  -0.406   3.247  0.00  0.00    +0.000 A 
ATOM     18  C   UNL     1      32.662   0.972   3.307  0.00  0.00    +0.000 A 
ATOM     19  C   UNL     1      30.811   2.540   3.626  0.00  0.00    +0.000 C 
BRANCH  16  20
ATOM     20  O   UNL     1      32.502  -2.725   2.692  0.00  0.00    +0.000 OA
ATOM     21  H   UNL     1      32.502  -2.561   1.735  0.00  0.00    +0.000 HD
ENDBRANCH  16  20
BRANCH  18  22
ATOM     22  O   UNL     1      33.579   1.980   3.124  0.00  0.00    +0.000 OA
ATOM     23  H   UNL     1      33.614   2.237   2.182  0.00  0.00    +0.000 HD
ENDBRANCH  18  22
ENDBRANCH  12  13
ENDBRANCH   7  11
BRANCH   2  24
ATOM     24  C   UNL     1      21.945  -2.153   5.739  0.00  0.00    +0.000 C 
ATOM     25  C   UNL     1      20.847  -2.511   4.770  0.00  0.00    +0.000 C 
BRANCH  24  26
ATOM     26  C   UNL     1      21.530  -1.971   7.087  0.00  0.00    +0.000 C 
ATOM     27  C   UNL     1      21.081  -1.791   8.542  0.00  0.00    +0.000 C 
BRANCH  27  28
ATOM     28  C   UNL     1      20.630  -1.625   9.999  0.00  0.00    +0.000 C 
BRANCH  28  29
ATOM     29  C   UNL     1      20.200  -1.471  11.389  0.00  0.00    +0.000 C 
ATOM     30  C   UNL     1      19.452  -2.698  11.920  0.00  0.00    +0.000 C 
ATOM     31  C   UNL     1      21.343  -1.084  12.334  0.00  0.00    +0.000 C 
BRANCH  29  32
ATOM     32  O   UNL     1      19.279  -0.406  11.468  0.00  0.00    +0.000 OA
ATOM     33  H   UNL     1      19.820   0.282  11.054  0.00  0.00    +0.000 HD
ENDBRANCH  29  32
ENDBRANCH  28  29
ENDBRANCH  27  28
ENDBRANCH  24  26
ENDBRANCH   2  24
TORSDOF 9
ENDMDL
