MODEL 1
REMARK VINA RESULT:     -10.0      0.000      0.000
REMARK  Name = 
REMARK  17 active torsions:
REMARK  status: ('A' for Active; 'I' for Inactive)
REMARK    1  A    between atoms: O_1  and  C_14
REMARK    2  A    between atoms: O_2  and  C_32
REMARK    3  A    between atoms: O_2  and  C_36
REMARK    4  A    between atoms: O_6  and  C_39
REMARK    5  A    between atoms: O_7  and  C_41
REMARK    6  A    between atoms: O_7  and  C_43
REMARK    7  A    between atoms: O_9  and  C_47
REMARK    8  A    between atoms: O_9  and  C_49
REMARK    9  A    between atoms: O_10  and  C_45
REMARK   10  A    between atoms: O_12  and  C_51
REMARK   11  A    between atoms: O_13  and  C_53
REMARK   12  A    between atoms: C_17  and  C_29
REMARK   13  A    between atoms: C_18  and  C_30
REMARK   14  A    between atoms: C_22  and  C_33
REMARK   15  A    between atoms: C_40  and  C_42
REMARK   16  A    between atoms: C_46  and  C_48
REMARK   17  A    between atoms: C_52  and  C_54
REMARK                            x       y       z     vdW  Elec       q    Type
REMARK                         _______ _______ _______ _____ _____    ______ ____
ROOT
ATOM      1  O   UNL     1      36.046  -3.413  45.276  0.00  0.00    +0.000 OA
ATOM      2  C   UNL     1      37.006  -4.419  45.588  0.00  0.00    +0.000 C 
ATOM      3  C   UNL     1      36.440  -5.833  45.429  0.00  0.00    +0.000 C 
ATOM      4  C   UNL     1      35.079  -5.814  44.750  0.00  0.00    +0.000 C 
ATOM      5  C   UNL     1      35.615  -3.470  43.911  0.00  0.00    +0.000 C 
ATOM      6  C   UNL     1      34.990  -4.840  43.558  0.00  0.00    +0.000 C 
ATOM      7  C   UNL     1      34.606  -2.337  43.721  0.00  0.00    +0.000 C 
ENDROOT
BRANCH   4   8
ATOM      8  O   UNL     1      34.630  -7.129  44.441  0.00  0.00    +0.000 OA
ATOM      9  H   UNL     1      35.233  -7.744  44.909  0.00  0.00    +0.000 HD
ENDBRANCH   4   8
BRANCH   2  10
ATOM     10  O   UNL     1      37.576  -4.235  46.884  0.00  0.00    +0.000 OA
BRANCH  10  29
ATOM     11  C   UNL     1      44.152  -0.083  46.645  0.00  0.00    +0.000 C 
ATOM     12  C   UNL     1      42.841  -0.915  46.629  0.00  0.00    +0.000 C 
ATOM     13  C   UNL     1      43.063  -2.412  46.292  0.00  0.00    +0.000 C 
ATOM     14  C   UNL     1      45.302  -0.718  47.477  0.00  0.00    +0.000 C 
ATOM     15  C   UNL     1      41.724  -3.258  46.282  0.00  0.00    +0.000 C 
ATOM     16  C   UNL     1      40.643  -2.540  45.408  0.00  0.00    +0.000 C 
ATOM     17  C   UNL     1      44.159  -2.997  47.206  0.00  0.00    +0.000 C 
ATOM     18  C   UNL     1      45.468  -2.213  47.111  0.00  0.00    +0.000 C 
ATOM     19  C   UNL     1      46.523   0.140  47.013  0.00  0.00    +0.000 C 
ATOM     20  C   UNL     1      41.798  -0.300  45.684  0.00  0.00    +0.000 C 
ATOM     21  C   UNL     1      44.786   0.149  45.261  0.00  0.00    +0.000 C 
ATOM     22  C   UNL     1      40.479  -1.051  45.761  0.00  0.00    +0.000 C 
ATOM     23  C   UNL     1      46.289   0.335  45.501  0.00  0.00    +0.000 C 
ATOM     24  C   UNL     1      41.170  -3.491  47.715  0.00  0.00    +0.000 C 
ATOM     25  C   UNL     1      39.267  -3.234  45.474  0.00  0.00    +0.000 C 
ATOM     26  C   UNL     1      45.072  -0.580  48.995  0.00  0.00    +0.000 C 
ATOM     27  C   UNL     1      42.039  -4.640  45.643  0.00  0.00    +0.000 C 
ATOM     28  C   UNL     1      39.804  -4.177  47.742  0.00  0.00    +0.000 C 
ATOM     29  C   UNL     1      38.763  -3.435  46.906  0.00  0.00    +0.000 C 
BRANCH  19  32
ATOM     30  O   UNL     1      49.808  -0.559  48.664  0.00  0.00    +0.000 OA
ATOM     31  O   UNL     1      50.941  -1.883  47.168  0.00  0.00    +0.000 OA
ATOM     32  C   UNL     1      47.892  -0.353  47.398  0.00  0.00    +0.000 C 
ATOM     33  C   UNL     1      48.517   0.046  48.684  0.00  0.00    +0.000 C 
ATOM     34  C   UNL     1      48.747  -1.099  46.698  0.00  0.00    +0.000 C 
ATOM     35  C   UNL     1      49.959  -1.245  47.501  0.00  0.00    +0.000 C 
ENDBRANCH  19  32
BRANCH  11  36
ATOM     36  O   UNL     1      43.858   1.226  47.162  0.00  0.00    +0.000 OA
ATOM     37  H   UNL     1      44.230   1.297  48.057  0.00  0.00    +0.000 HD
ENDBRANCH  11  36
ENDBRANCH  10  29
ENDBRANCH   2  10
BRANCH   6  38
ATOM     38  O   UNL     1      35.343  -5.275  42.242  0.00  0.00    +0.000 OA
BRANCH  38  40
ATOM     39  O   UNL     1      33.705  -4.081  41.008  0.00  0.00    +0.000 OA
ATOM     40  C   UNL     1      35.032  -4.588  41.038  0.00  0.00    +0.000 C 
ATOM     41  C   UNL     1      35.382  -5.321  39.747  0.00  0.00    +0.000 C 
ATOM     42  C   UNL     1      34.429  -4.978  38.605  0.00  0.00    +0.000 C 
ATOM     43  C   UNL     1      33.573  -3.031  40.030  0.00  0.00    +0.000 C 
ATOM     44  C   UNL     1      33.915  -3.524  38.602  0.00  0.00    +0.000 C 
ATOM     45  C   UNL     1      32.130  -2.536  40.111  0.00  0.00    +0.000 C 
BRANCH  42  46
ATOM     46  O   UNL     1      34.988  -5.352  37.347  0.00  0.00    +0.000 OA
ATOM     47  H   UNL     1      35.766  -4.791  37.180  0.00  0.00    +0.000 HD
ENDBRANCH  42  46
BRANCH  44  48
ATOM     48  O   UNL     1      34.668  -2.550  37.870  0.00  0.00    +0.000 OA
BRANCH  48  50
ATOM     49  O   UNL     1      35.953  -0.951  39.013  0.00  0.00    +0.000 OA
ATOM     50  C   UNL     1      35.968  -2.199  38.330  0.00  0.00    +0.000 C 
ATOM     51  C   UNL     1      36.856  -2.078  37.086  0.00  0.00    +0.000 C 
ATOM     52  C   UNL     1      37.999  -1.086  37.286  0.00  0.00    +0.000 C 
ATOM     53  C   UNL     1      37.212  -0.639  39.637  0.00  0.00    +0.000 C 
ATOM     54  C   UNL     1      38.418  -1.015  38.756  0.00  0.00    +0.000 C 
ATOM     55  C   UNL     1      37.182   0.858  39.926  0.00  0.00    +0.000 C 
BRANCH  52  56
ATOM     56  O   UNL     1      39.119  -1.508  36.498  0.00  0.00    +0.000 OA
ATOM     57  H   UNL     1      39.892  -1.554  37.090  0.00  0.00    +0.000 HD
ENDBRANCH  52  56
BRANCH  54  58
ATOM     58  O   UNL     1      38.902  -2.312  39.148  0.00  0.00    +0.000 OA
ATOM     59  H   UNL     1      38.483  -2.949  38.533  0.00  0.00    +0.000 HD
ENDBRANCH  54  58
ENDBRANCH  48  50
ENDBRANCH  44  48
ENDBRANCH  38  40
ENDBRANCH   6  38
TORSDOF 12
ENDMDL
MODEL 2
REMARK VINA RESULT:      -9.6      1.568      2.457
REMARK  Name = 
REMARK  17 active torsions:
REMARK  status: ('A' for Active; 'I' for Inactive)
REMARK    1  A    between atoms: O_1  and  C_14
REMARK    2  A    between atoms: O_2  and  C_32
REMARK    3  A    between atoms: O_2  and  C_36
REMARK    4  A    between atoms: O_6  and  C_39
REMARK    5  A    between atoms: O_7  and  C_41
REMARK    6  A    between atoms: O_7  and  C_43
REMARK    7  A    between atoms: O_9  and  C_47
REMARK    8  A    between atoms: O_9  and  C_49
REMARK    9  A    between atoms: O_10  and  C_45
REMARK   10  A    between atoms: O_12  and  C_51
REMARK   11  A    between atoms: O_13  and  C_53
REMARK   12  A    between atoms: C_17  and  C_29
REMARK   13  A    between atoms: C_18  and  C_30
REMARK   14  A    between atoms: C_22  and  C_33
REMARK   15  A    between atoms: C_40  and  C_42
REMARK   16  A    between atoms: C_46  and  C_48
REMARK   17  A    between atoms: C_52  and  C_54
REMARK                            x       y       z     vdW  Elec       q    Type
REMARK                         _______ _______ _______ _____ _____    ______ ____
ROOT
ATOM      1  O   UNL     1      36.208  -4.301  45.251  0.00  0.00    +0.000 OA
ATOM      2  C   UNL     1      37.164  -5.351  45.369  0.00  0.00    +0.000 C 
ATOM      3  C   UNL     1      36.593  -6.709  44.951  0.00  0.00    +0.000 C 
ATOM      4  C   UNL     1      35.231  -6.559  44.289  0.00  0.00    +0.000 C 
ATOM      5  C   UNL     1      35.776  -4.101  43.899  0.00  0.00    +0.000 C 
ATOM      6  C   UNL     1      35.145  -5.380  43.298  0.00  0.00    +0.000 C 
ATOM      7  C   UNL     1      34.772  -2.950  43.924  0.00  0.00    +0.000 C 
ENDROOT
BRANCH   4   8
ATOM      8  O   UNL     1      34.777  -7.791  43.741  0.00  0.00    +0.000 OA
ATOM      9  H   UNL     1      35.547  -8.398  43.750  0.00  0.00    +0.000 HD
ENDBRANCH   4   8
BRANCH   2  10
ATOM     10  O   UNL     1      37.735  -5.413  46.676  0.00  0.00    +0.000 OA
BRANCH  10  29
ATOM     11  C   UNL     1      44.781  -2.205  47.459  0.00  0.00    +0.000 C 
ATOM     12  C   UNL     1      43.359  -2.821  47.359  0.00  0.00    +0.000 C 
ATOM     13  C   UNL     1      42.247  -1.773  47.098  0.00  0.00    +0.000 C 
ATOM     14  C   UNL     1      45.138  -1.233  46.298  0.00  0.00    +0.000 C 
ATOM     15  C   UNL     1      40.800  -2.407  46.991  0.00  0.00    +0.000 C 
ATOM     16  C   UNL     1      40.538  -3.353  48.210  0.00  0.00    +0.000 C 
ATOM     17  C   UNL     1      42.629  -0.896  45.888  0.00  0.00    +0.000 C 
ATOM     18  C   UNL     1      43.988  -0.221  46.072  0.00  0.00    +0.000 C 
ATOM     19  C   UNL     1      46.423  -0.546  46.861  0.00  0.00    +0.000 C 
ATOM     20  C   UNL     1      43.024  -3.661  48.602  0.00  0.00    +0.000 C 
ATOM     21  C   UNL     1      45.035  -1.370  48.727  0.00  0.00    +0.000 C 
ATOM     22  C   UNL     1      41.681  -4.356  48.446  0.00  0.00    +0.000 C 
ATOM     23  C   UNL     1      46.113  -0.344  48.358  0.00  0.00    +0.000 C 
ATOM     24  C   UNL     1      40.602  -3.194  45.666  0.00  0.00    +0.000 C 
ATOM     25  C   UNL     1      39.204  -4.119  48.096  0.00  0.00    +0.000 C 
ATOM     26  C   UNL     1      45.438  -1.977  44.981  0.00  0.00    +0.000 C 
ATOM     27  C   UNL     1      39.767  -1.245  47.037  0.00  0.00    +0.000 C 
ATOM     28  C   UNL     1      39.271  -3.942  45.588  0.00  0.00    +0.000 C 
ATOM     29  C   UNL     1      39.061  -4.880  46.775  0.00  0.00    +0.000 C 
BRANCH  19  32
ATOM     30  O   UNL     1      48.243   1.915  44.708  0.00  0.00    +0.000 OA
ATOM     31  O   UNL     1      47.336   3.952  45.258  0.00  0.00    +0.000 OA
ATOM     32  C   UNL     1      46.924   0.673  46.134  0.00  0.00    +0.000 C 
ATOM     33  C   UNL     1      48.009   0.572  45.126  0.00  0.00    +0.000 C 
ATOM     34  C   UNL     1      46.579   1.951  46.293  0.00  0.00    +0.000 C 
ATOM     35  C   UNL     1      47.403   2.743  45.382  0.00  0.00    +0.000 C 
ENDBRANCH  19  32
BRANCH  11  36
ATOM     36  O   UNL     1      45.742  -3.273  47.497  0.00  0.00    +0.000 OA
ATOM     37  H   UNL     1      45.467  -3.960  46.866  0.00  0.00    +0.000 HD
ENDBRANCH  11  36
ENDBRANCH  10  29
ENDBRANCH   2  10
BRANCH   6  38
ATOM     38  O   UNL     1      35.497  -5.564  41.924  0.00  0.00    +0.000 OA
BRANCH  38  40
ATOM     39  O   UNL     1      33.803  -4.200  40.973  0.00  0.00    +0.000 OA
ATOM     40  C   UNL     1      35.129  -4.699  40.859  0.00  0.00    +0.000 C 
ATOM     41  C   UNL     1      35.412  -5.221  39.453  0.00  0.00    +0.000 C 
ATOM     42  C   UNL     1      34.405  -4.709  38.428  0.00  0.00    +0.000 C 
ATOM     43  C   UNL     1      33.626  -3.011  40.179  0.00  0.00    +0.000 C 
ATOM     44  C   UNL     1      33.896  -3.274  38.676  0.00  0.00    +0.000 C 
ATOM     45  C   UNL     1      32.191  -2.541  40.407  0.00  0.00    +0.000 C 
BRANCH  42  46
ATOM     46  O   UNL     1      34.900  -4.879  37.101  0.00  0.00    +0.000 OA
ATOM     47  H   UNL     1      34.366  -5.564  36.661  0.00  0.00    +0.000 HD
ENDBRANCH  42  46
BRANCH  44  48
ATOM     48  O   UNL     1      34.615  -2.194  38.069  0.00  0.00    +0.000 OA
BRANCH  48  50
ATOM     49  O   UNL     1      36.070  -0.706  39.156  0.00  0.00    +0.000 OA
ATOM     50  C   UNL     1      35.957  -1.949  38.473  0.00  0.00    +0.000 C 
ATOM     51  C   UNL     1      36.798  -1.895  37.193  0.00  0.00    +0.000 C 
ATOM     52  C   UNL     1      38.024  -0.998  37.344  0.00  0.00    +0.000 C 
ATOM     53  C   UNL     1      37.376  -0.497  39.725  0.00  0.00    +0.000 C 
ATOM     54  C   UNL     1      38.509  -0.965  38.795  0.00  0.00    +0.000 C 
ATOM     55  C   UNL     1      37.477   0.997  40.015  0.00  0.00    +0.000 C 
BRANCH  52  56
ATOM     56  O   UNL     1      39.073  -1.506  36.509  0.00  0.00    +0.000 OA
ATOM     57  H   UNL     1      39.413  -0.761  35.981  0.00  0.00    +0.000 HD
ENDBRANCH  52  56
BRANCH  54  58
ATOM     58  O   UNL     1      38.905  -2.297  39.166  0.00  0.00    +0.000 OA
ATOM     59  H   UNL     1      38.291  -2.898  38.695  0.00  0.00    +0.000 HD
ENDBRANCH  54  58
ENDBRANCH  48  50
ENDBRANCH  44  48
ENDBRANCH  38  40
ENDBRANCH   6  38
TORSDOF 12
ENDMDL
MODEL 3
REMARK VINA RESULT:      -9.3     34.377     40.480
REMARK  Name = 
REMARK  17 active torsions:
REMARK  status: ('A' for Active; 'I' for Inactive)
REMARK    1  A    between atoms: O_1  and  C_14
REMARK    2  A    between atoms: O_2  and  C_32
REMARK    3  A    between atoms: O_2  and  C_36
REMARK    4  A    between atoms: O_6  and  C_39
REMARK    5  A    between atoms: O_7  and  C_41
REMARK    6  A    between atoms: O_7  and  C_43
REMARK    7  A    between atoms: O_9  and  C_47
REMARK    8  A    between atoms: O_9  and  C_49
REMARK    9  A    between atoms: O_10  and  C_45
REMARK   10  A    between atoms: O_12  and  C_51
REMARK   11  A    between atoms: O_13  and  C_53
REMARK   12  A    between atoms: C_17  and  C_29
REMARK   13  A    between atoms: C_18  and  C_30
REMARK   14  A    between atoms: C_22  and  C_33
REMARK   15  A    between atoms: C_40  and  C_42
REMARK   16  A    between atoms: C_46  and  C_48
REMARK   17  A    between atoms: C_52  and  C_54
REMARK                            x       y       z     vdW  Elec       q    Type
REMARK                         _______ _______ _______ _____ _____    ______ ____
ROOT
ATOM      1  O   UNL     1      19.592  -1.419   7.578  0.00  0.00    +0.000 OA
ATOM      2  C   UNL     1      20.665  -2.352   7.489  0.00  0.00    +0.000 C 
ATOM      3  C   UNL     1      21.778  -2.057   8.497  0.00  0.00    +0.000 C 
ATOM      4  C   UNL     1      21.354  -0.994   9.500  0.00  0.00    +0.000 C 
ATOM      5  C   UNL     1      18.935  -1.458   8.851  0.00  0.00    +0.000 C 
ATOM      6  C   UNL     1      19.911  -1.165  10.015  0.00  0.00    +0.000 C 
ATOM      7  C   UNL     1      17.811  -0.424   8.799  0.00  0.00    +0.000 C 
ENDROOT
BRANCH   4   8
ATOM      8  O   UNL     1      22.312  -0.845  10.542  0.00  0.00    +0.000 OA
ATOM      9  H   UNL     1      22.995  -0.229  10.201  0.00  0.00    +0.000 HD
ENDBRANCH   4   8
BRANCH   2  10
ATOM     10  O   UNL     1      21.184  -2.447   6.162  0.00  0.00    +0.000 OA
BRANCH  10  29
ATOM     11  C   UNL     1      27.683   1.553   4.646  0.00  0.00    +0.000 C 
ATOM     12  C   UNL     1      26.353   0.800   4.918  0.00  0.00    +0.000 C 
ATOM     13  C   UNL     1      25.759   0.119   3.659  0.00  0.00    +0.000 C 
ATOM     14  C   UNL     1      28.739   0.722   3.863  0.00  0.00    +0.000 C 
ATOM     15  C   UNL     1      24.406  -0.653   3.942  0.00  0.00    +0.000 C 
ATOM     16  C   UNL     1      23.413   0.274   4.718  0.00  0.00    +0.000 C 
ATOM     17  C   UNL     1      26.836  -0.750   2.976  0.00  0.00    +0.000 C 
ATOM     18  C   UNL     1      28.088   0.054   2.628  0.00  0.00    +0.000 C 
ATOM     19  C   UNL     1      29.763   1.832   3.461  0.00  0.00    +0.000 C 
ATOM     20  C   UNL     1      25.312   1.720   5.574  0.00  0.00    +0.000 C 
ATOM     21  C   UNL     1      27.538   2.839   3.813  0.00  0.00    +0.000 C 
ATOM     22  C   UNL     1      24.056   0.948   5.943  0.00  0.00    +0.000 C 
ATOM     23  C   UNL     1      28.877   3.041   3.094  0.00  0.00    +0.000 C 
ATOM     24  C   UNL     1      24.637  -1.963   4.746  0.00  0.00    +0.000 C 
ATOM     25  C   UNL     1      22.129  -0.461   5.157  0.00  0.00    +0.000 C 
ATOM     26  C   UNL     1      29.407  -0.356   4.741  0.00  0.00    +0.000 C 
ATOM     27  C   UNL     1      23.771  -1.019   2.570  0.00  0.00    +0.000 C 
ATOM     28  C   UNL     1      23.345  -2.663   5.165  0.00  0.00    +0.000 C 
ATOM     29  C   UNL     1      22.411  -1.742   5.948  0.00  0.00    +0.000 C 
BRANCH  19  32
ATOM     30  O   UNL     1      31.789   1.269   0.365  0.00  0.00    +0.000 OA
ATOM     31  O   UNL     1      33.605   0.054   1.072  0.00  0.00    +0.000 OA
ATOM     32  C   UNL     1      30.809   1.464   2.443  0.00  0.00    +0.000 C 
ATOM     33  C   UNL     1      30.648   1.829   1.013  0.00  0.00    +0.000 C 
ATOM     34  C   UNL     1      31.923   0.748   2.600  0.00  0.00    +0.000 C 
ATOM     35  C   UNL     1      32.556   0.633   1.288  0.00  0.00    +0.000 C 
ENDBRANCH  19  32
BRANCH  11  36
ATOM     36  O   UNL     1      28.242   1.966   5.905  0.00  0.00    +0.000 OA
ATOM     37  H   UNL     1      28.714   2.806   5.774  0.00  0.00    +0.000 HD
ENDBRANCH  11  36
ENDBRANCH  10  29
ENDBRANCH   2  10
BRANCH   6  38
ATOM     38  O   UNL     1      19.644  -1.975  11.164  0.00  0.00    +0.000 OA
BRANCH  38  40
ATOM     39  O   UNL     1      17.813  -2.427  12.605  0.00  0.00    +0.000 OA
ATOM     40  C   UNL     1      18.903  -1.565  12.304  0.00  0.00    +0.000 C 
ATOM     41  C   UNL     1      18.482  -0.099  12.330  0.00  0.00    +0.000 C 
ATOM     42  C   UNL     1      17.162   0.116  13.066  0.00  0.00    +0.000 C 
ATOM     43  C   UNL     1      17.389  -2.269  13.972  0.00  0.00    +0.000 C 
ATOM     44  C   UNL     1      16.931  -0.818  14.271  0.00  0.00    +0.000 C 
ATOM     45  C   UNL     1      16.251  -3.262  14.196  0.00  0.00    +0.000 C 
BRANCH  42  46
ATOM     46  O   UNL     1      16.992   1.489  13.413  0.00  0.00    +0.000 OA
ATOM     47  H   UNL     1      16.236   1.559  14.022  0.00  0.00    +0.000 HD
ENDBRANCH  42  46
BRANCH  44  48
ATOM     48  O   UNL     1      17.380  -0.375  15.558  0.00  0.00    +0.000 OA
BRANCH  48  50
ATOM     49  O   UNL     1      16.992   0.393  17.743  0.00  0.00    +0.000 OA
ATOM     50  C   UNL     1      16.443   0.231  16.441  0.00  0.00    +0.000 C 
ATOM     51  C   UNL     1      15.238  -0.714  16.519  0.00  0.00    +0.000 C 
ATOM     52  C   UNL     1      14.509  -0.612  17.856  0.00  0.00    +0.000 C 
ATOM     53  C   UNL     1      16.138   1.150  18.621  0.00  0.00    +0.000 C 
ATOM     54  C   UNL     1      14.651   0.789  18.457  0.00  0.00    +0.000 C 
ATOM     55  C   UNL     1      16.625   0.863  20.037  0.00  0.00    +0.000 C 
BRANCH  52  56
ATOM     56  O   UNL     1      13.119  -0.894  17.646  0.00  0.00    +0.000 OA
ATOM     57  H   UNL     1      12.929  -1.753  18.064  0.00  0.00    +0.000 HD
ENDBRANCH  52  56
BRANCH  54  58
ATOM     58  O   UNL     1      14.033   1.728  17.558  0.00  0.00    +0.000 OA
ATOM     59  H   UNL     1      13.861   1.231  16.732  0.00  0.00    +0.000 HD
ENDBRANCH  54  58
ENDBRANCH  48  50
ENDBRANCH  44  48
ENDBRANCH  38  40
ENDBRANCH   6  38
TORSDOF 12
ENDMDL
MODEL 4
REMARK VINA RESULT:      -9.1     36.178     40.729
REMARK  Name = 
REMARK  17 active torsions:
REMARK  status: ('A' for Active; 'I' for Inactive)
REMARK    1  A    between atoms: O_1  and  C_14
REMARK    2  A    between atoms: O_2  and  C_32
REMARK    3  A    between atoms: O_2  and  C_36
REMARK    4  A    between atoms: O_6  and  C_39
REMARK    5  A    between atoms: O_7  and  C_41
REMARK    6  A    between atoms: O_7  and  C_43
REMARK    7  A    between atoms: O_9  and  C_47
REMARK    8  A    between atoms: O_9  and  C_49
REMARK    9  A    between atoms: O_10  and  C_45
REMARK   10  A    between atoms: O_12  and  C_51
REMARK   11  A    between atoms: O_13  and  C_53
REMARK   12  A    between atoms: C_17  and  C_29
REMARK   13  A    between atoms: C_18  and  C_30
REMARK   14  A    between atoms: C_22  and  C_33
REMARK   15  A    between atoms: C_40  and  C_42
REMARK   16  A    between atoms: C_46  and  C_48
REMARK   17  A    between atoms: C_52  and  C_54
REMARK                            x       y       z     vdW  Elec       q    Type
REMARK                         _______ _______ _______ _____ _____    ______ ____
ROOT
ATOM      1  O   UNL     1      19.414  -0.666   8.873  0.00  0.00    +0.000 OA
ATOM      2  C   UNL     1      20.186  -1.809   8.515  0.00  0.00    +0.000 C 
ATOM      3  C   UNL     1      21.481  -1.913   9.326  0.00  0.00    +0.000 C 
ATOM      4  C   UNL     1      21.502  -0.913  10.472  0.00  0.00    +0.000 C 
ATOM      5  C   UNL     1      18.974  -0.707  10.236  0.00  0.00    +0.000 C 
ATOM      6  C   UNL     1      20.161  -0.799  11.225  0.00  0.00    +0.000 C 
ATOM      7  C   UNL     1      18.156   0.563  10.472  0.00  0.00    +0.000 C 
ENDROOT
BRANCH   4   8
ATOM      8  O   UNL     1      22.616  -1.125  11.332  0.00  0.00    +0.000 OA
ATOM      9  H   UNL     1      23.069  -0.259  11.414  0.00  0.00    +0.000 HD
ENDBRANCH   4   8
BRANCH   2  10
ATOM     10  O   UNL     1      20.452  -1.859   7.113  0.00  0.00    +0.000 OA
BRANCH  10  29
ATOM     11  C   UNL     1      27.080   1.372   4.627  0.00  0.00    +0.000 C 
ATOM     12  C   UNL     1      25.724   0.771   5.090  0.00  0.00    +0.000 C 
ATOM     13  C   UNL     1      24.973   0.005   3.972  0.00  0.00    +0.000 C 
ATOM     14  C   UNL     1      27.997   0.370   3.870  0.00  0.00    +0.000 C 
ATOM     15  C   UNL     1      23.595  -0.611   4.450  0.00  0.00    +0.000 C 
ATOM     16  C   UNL     1      22.746   0.480   5.184  0.00  0.00    +0.000 C 
ATOM     17  C   UNL     1      25.917  -1.024   3.317  0.00  0.00    +0.000 C 
ATOM     18  C   UNL     1      27.192  -0.375   2.777  0.00  0.00    +0.000 C 
ATOM     19  C   UNL     1      29.063   1.336   3.258  0.00  0.00    +0.000 C 
ATOM     20  C   UNL     1      24.818   1.845   5.710  0.00  0.00    +0.000 C 
ATOM     21  C   UNL     1      26.960   2.563   3.660  0.00  0.00    +0.000 C 
ATOM     22  C   UNL     1      23.543   1.231   6.266  0.00  0.00    +0.000 C 
ATOM     23  C   UNL     1      28.243   2.566   2.820  0.00  0.00    +0.000 C 
ATOM     24  C   UNL     1      23.795  -1.836   5.384  0.00  0.00    +0.000 C 
ATOM     25  C   UNL     1      21.454  -0.088   5.806  0.00  0.00    +0.000 C 
ATOM     26  C   UNL     1      28.654  -0.655   4.816  0.00  0.00    +0.000 C 
ATOM     27  C   UNL     1      22.816  -1.074   3.186  0.00  0.00    +0.000 C 
ATOM     28  C   UNL     1      22.494  -2.371   5.984  0.00  0.00    +0.000 C 
ATOM     29  C   UNL     1      21.706  -1.290   6.721  0.00  0.00    +0.000 C 
BRANCH  19  32
ATOM     30  O   UNL     1      31.964   0.032   1.286  0.00  0.00    +0.000 OA
ATOM     31  O   UNL     1      31.117  -0.346  -0.814  0.00  0.00    +0.000 OA
ATOM     32  C   UNL     1      29.985   0.766   2.214  0.00  0.00    +0.000 C 
ATOM     33  C   UNL     1      31.414   0.504   2.515  0.00  0.00    +0.000 C 
ATOM     34  C   UNL     1      29.739   0.490   0.933  0.00  0.00    +0.000 C 
ATOM     35  C   UNL     1      30.987   0.011   0.342  0.00  0.00    +0.000 C 
ENDBRANCH  19  32
BRANCH  11  36
ATOM     36  O   UNL     1      27.776   1.875   5.780  0.00  0.00    +0.000 OA
ATOM     37  H   UNL     1      28.702   2.042   5.535  0.00  0.00    +0.000 HD
ENDBRANCH  11  36
ENDBRANCH  10  29
ENDBRANCH   2  10
BRANCH   6  38
ATOM     38  O   UNL     1      19.878  -1.659  12.333  0.00  0.00    +0.000 OA
BRANCH  38  40
ATOM     39  O   UNL     1      18.592  -3.139  10.996  0.00  0.00    +0.000 OA
ATOM     40  C   UNL     1      18.987  -2.764  12.309  0.00  0.00    +0.000 C 
ATOM     41  C   UNL     1      17.790  -2.672  13.250  0.00  0.00    +0.000 C 
ATOM     42  C   UNL     1      16.562  -3.393  12.704  0.00  0.00    +0.000 C 
ATOM     43  C   UNL     1      18.094  -4.490  10.970  0.00  0.00    +0.000 C 
ATOM     44  C   UNL     1      16.864  -4.672  11.896  0.00  0.00    +0.000 C 
ATOM     45  C   UNL     1      17.739  -4.799   9.517  0.00  0.00    +0.000 C 
BRANCH  42  46
ATOM     46  O   UNL     1      15.608  -3.627  13.739  0.00  0.00    +0.000 OA
ATOM     47  H   UNL     1      14.720  -3.453  13.380  0.00  0.00    +0.000 HD
ENDBRANCH  42  46
BRANCH  44  48
ATOM     48  O   UNL     1      16.913  -5.916  12.605  0.00  0.00    +0.000 OA
BRANCH  48  50
ATOM     49  O   UNL     1      17.946  -8.025  12.642  0.00  0.00    +0.000 OA
ATOM     50  C   UNL     1      18.148  -6.617  12.679  0.00  0.00    +0.000 C 
ATOM     51  C   UNL     1      18.788  -6.238  14.020  0.00  0.00    +0.000 C 
ATOM     52  C   UNL     1      19.685  -7.346  14.566  0.00  0.00    +0.000 C 
ATOM     53  C   UNL     1      19.176  -8.765  12.548  0.00  0.00    +0.000 C 
ATOM     54  C   UNL     1      20.291  -8.176  13.432  0.00  0.00    +0.000 C 
ATOM     55  C   UNL     1      18.842 -10.195  12.958  0.00  0.00    +0.000 C 
BRANCH  52  56
ATOM     56  O   UNL     1      20.742  -6.750  15.328  0.00  0.00    +0.000 OA
ATOM     57  H   UNL     1      21.583  -7.114  14.997  0.00  0.00    +0.000 HD
ENDBRANCH  52  56
BRANCH  54  58
ATOM     58  O   UNL     1      21.117  -7.309  12.634  0.00  0.00    +0.000 OA
ATOM     59  H   UNL     1      22.026  -7.668  12.705  0.00  0.00    +0.000 HD
ENDBRANCH  54  58
ENDBRANCH  48  50
ENDBRANCH  44  48
ENDBRANCH  38  40
ENDBRANCH   6  38
TORSDOF 12
ENDMDL
MODEL 5
REMARK VINA RESULT:      -8.9     35.380     40.556
REMARK  Name = 
REMARK  17 active torsions:
REMARK  status: ('A' for Active; 'I' for Inactive)
REMARK    1  A    between atoms: O_1  and  C_14
REMARK    2  A    between atoms: O_2  and  C_32
REMARK    3  A    between atoms: O_2  and  C_36
REMARK    4  A    between atoms: O_6  and  C_39
REMARK    5  A    between atoms: O_7  and  C_41
REMARK    6  A    between atoms: O_7  and  C_43
REMARK    7  A    between atoms: O_9  and  C_47
REMARK    8  A    between atoms: O_9  and  C_49
REMARK    9  A    between atoms: O_10  and  C_45
REMARK   10  A    between atoms: O_12  and  C_51
REMARK   11  A    between atoms: O_13  and  C_53
REMARK   12  A    between atoms: C_17  and  C_29
REMARK   13  A    between atoms: C_18  and  C_30
REMARK   14  A    between atoms: C_22  and  C_33
REMARK   15  A    between atoms: C_40  and  C_42
REMARK   16  A    between atoms: C_46  and  C_48
REMARK   17  A    between atoms: C_52  and  C_54
REMARK                            x       y       z     vdW  Elec       q    Type
REMARK                         _______ _______ _______ _____ _____    ______ ____
ROOT
ATOM      1  O   UNL     1      20.562  -2.209   8.334  0.00  0.00    +0.000 OA
ATOM      2  C   UNL     1      20.214  -1.283   7.308  0.00  0.00    +0.000 C 
ATOM      3  C   UNL     1      18.739  -0.876   7.367  0.00  0.00    +0.000 C 
ATOM      4  C   UNL     1      18.076  -1.371   8.643  0.00  0.00    +0.000 C 
ATOM      5  C   UNL     1      20.400  -1.661   9.647  0.00  0.00    +0.000 C 
ATOM      6  C   UNL     1      18.946  -1.199   9.905  0.00  0.00    +0.000 C 
ATOM      7  C   UNL     1      20.816  -2.751  10.634  0.00  0.00    +0.000 C 
ENDROOT
BRANCH   4   8
ATOM      8  O   UNL     1      16.761  -0.847   8.788  0.00  0.00    +0.000 OA
ATOM      9  H   UNL     1      16.739  -0.013   8.273  0.00  0.00    +0.000 HD
ENDBRANCH   4   8
BRANCH   2  10
ATOM     10  O   UNL     1      20.565  -1.762   6.010  0.00  0.00    +0.000 OA
BRANCH  10  29
ATOM     11  C   UNL     1      27.089   1.035   2.825  0.00  0.00    +0.000 C 
ATOM     12  C   UNL     1      25.783   0.436   3.412  0.00  0.00    +0.000 C 
ATOM     13  C   UNL     1      25.973  -0.973   4.032  0.00  0.00    +0.000 C 
ATOM     14  C   UNL     1      28.312   0.965   3.783  0.00  0.00    +0.000 C 
ATOM     15  C   UNL     1      24.639  -1.578   4.635  0.00  0.00    +0.000 C 
ATOM     16  C   UNL     1      23.481  -1.470   3.588  0.00  0.00    +0.000 C 
ATOM     17  C   UNL     1      27.149  -0.951   5.029  0.00  0.00    +0.000 C 
ATOM     18  C   UNL     1      28.443  -0.456   4.383  0.00  0.00    +0.000 C 
ATOM     19  C   UNL     1      29.484   1.302   2.807  0.00  0.00    +0.000 C 
ATOM     20  C   UNL     1      24.656   0.416   2.368  0.00  0.00    +0.000 C 
ATOM     21  C   UNL     1      27.592   0.353   1.540  0.00  0.00    +0.000 C 
ATOM     22  C   UNL     1      23.350  -0.062   2.981  0.00  0.00    +0.000 C 
ATOM     23  C   UNL     1      29.111   0.562   1.506  0.00  0.00    +0.000 C 
ATOM     24  C   UNL     1      24.220  -0.871   5.954  0.00  0.00    +0.000 C 
ATOM     25  C   UNL     1      22.117  -1.907   4.161  0.00  0.00    +0.000 C 
ATOM     26  C   UNL     1      28.224   2.000   4.923  0.00  0.00    +0.000 C 
ATOM     27  C   UNL     1      24.894  -3.082   4.938  0.00  0.00    +0.000 C 
ATOM     28  C   UNL     1      22.864  -1.325   6.491  0.00  0.00    +0.000 C 
ATOM     29  C   UNL     1      21.749  -1.178   5.457  0.00  0.00    +0.000 C 
BRANCH  19  32
ATOM     30  O   UNL     1      33.093   0.409   3.237  0.00  0.00    +0.000 OA
ATOM     31  O   UNL     1      33.520   0.767   5.464  0.00  0.00    +0.000 OA
ATOM     32  C   UNL     1      30.884   1.063   3.308  0.00  0.00    +0.000 C 
ATOM     33  C   UNL     1      31.947   0.562   2.402  0.00  0.00    +0.000 C 
ATOM     34  C   UNL     1      31.366   1.172   4.547  0.00  0.00    +0.000 C 
ATOM     35  C   UNL     1      32.770   0.771   4.505  0.00  0.00    +0.000 C 
ENDBRANCH  19  32
BRANCH  11  36
ATOM     36  O   UNL     1      26.844   2.406   2.467  0.00  0.00    +0.000 OA
ATOM     37  H   UNL     1      27.567   2.710   1.891  0.00  0.00    +0.000 HD
ENDBRANCH  11  36
ENDBRANCH  10  29
ENDBRANCH   2  10
BRANCH   6  38
ATOM     38  O   UNL     1      18.888   0.014  10.663  0.00  0.00    +0.000 OA
BRANCH  38  40
ATOM     39  O   UNL     1      17.029  -0.626  11.991  0.00  0.00    +0.000 OA
ATOM     40  C   UNL     1      18.191   0.185  11.888  0.00  0.00    +0.000 C 
ATOM     41  C   UNL     1      17.905   1.628  12.292  0.00  0.00    +0.000 C 
ATOM     42  C   UNL     1      16.613   1.764  13.093  0.00  0.00    +0.000 C 
ATOM     43  C   UNL     1      16.624  -0.782  13.365  0.00  0.00    +0.000 C 
ATOM     44  C   UNL     1      16.302   0.580  14.030  0.00  0.00    +0.000 C 
ATOM     45  C   UNL     1      15.402  -1.696  13.362  0.00  0.00    +0.000 C 
BRANCH  42  46
ATOM     46  O   UNL     1      16.569   3.015  13.777  0.00  0.00    +0.000 OA
ATOM     47  H   UNL     1      16.742   3.723  13.132  0.00  0.00    +0.000 HD
ENDBRANCH  42  46
BRANCH  44  48
ATOM     48  O   UNL     1      16.793   0.644  15.375  0.00  0.00    +0.000 OA
BRANCH  48  50
ATOM     49  O   UNL     1      16.377   2.425  16.848  0.00  0.00    +0.000 OA
ATOM     50  C   UNL     1      15.939   1.149  16.395  0.00  0.00    +0.000 C 
ATOM     51  C   UNL     1      16.008   0.154  17.558  0.00  0.00    +0.000 C 
ATOM     52  C   UNL     1      15.760   0.824  18.908  0.00  0.00    +0.000 C 
ATOM     53  C   UNL     1      15.450   3.044  17.759  0.00  0.00    +0.000 C 
ATOM     54  C   UNL     1      14.846   2.042  18.760  0.00  0.00    +0.000 C 
ATOM     55  C   UNL     1      16.229   4.141  18.475  0.00  0.00    +0.000 C 
BRANCH  52  56
ATOM     56  O   UNL     1      15.141  -0.124  19.787  0.00  0.00    +0.000 OA
ATOM     57  H   UNL     1      14.751  -0.824  19.233  0.00  0.00    +0.000 HD
ENDBRANCH  52  56
BRANCH  54  58
ATOM     58  O   UNL     1      13.573   1.590  18.266  0.00  0.00    +0.000 OA
ATOM     59  H   UNL     1      13.116   1.190  19.034  0.00  0.00    +0.000 HD
ENDBRANCH  54  58
ENDBRANCH  48  50
ENDBRANCH  44  48
ENDBRANCH  38  40
ENDBRANCH   6  38
TORSDOF 12
ENDMDL
MODEL 6
REMARK VINA RESULT:      -8.8     11.064     15.305
REMARK  Name = 
REMARK  17 active torsions:
REMARK  status: ('A' for Active; 'I' for Inactive)
REMARK    1  A    between atoms: O_1  and  C_14
REMARK    2  A    between atoms: O_2  and  C_32
REMARK    3  A    between atoms: O_2  and  C_36
REMARK    4  A    between atoms: O_6  and  C_39
REMARK    5  A    between atoms: O_7  and  C_41
REMARK    6  A    between atoms: O_7  and  C_43
REMARK    7  A    between atoms: O_9  and  C_47
REMARK    8  A    between atoms: O_9  and  C_49
REMARK    9  A    between atoms: O_10  and  C_45
REMARK   10  A    between atoms: O_12  and  C_51
REMARK   11  A    between atoms: O_13  and  C_53
REMARK   12  A    between atoms: C_17  and  C_29
REMARK   13  A    between atoms: C_18  and  C_30
REMARK   14  A    between atoms: C_22  and  C_33
REMARK   15  A    between atoms: C_40  and  C_42
REMARK   16  A    between atoms: C_46  and  C_48
REMARK   17  A    between atoms: C_52  and  C_54
REMARK                            x       y       z     vdW  Elec       q    Type
REMARK                         _______ _______ _______ _____ _____    ______ ____
ROOT
ATOM      1  O   UNL     1      51.429   3.084  30.884  0.00  0.00    +0.000 OA
ATOM      2  C   UNL     1      50.817   2.571  32.065  0.00  0.00    +0.000 C 
ATOM      3  C   UNL     1      49.309   2.367  31.897  0.00  0.00    +0.000 C 
ATOM      4  C   UNL     1      48.884   2.531  30.445  0.00  0.00    +0.000 C 
ATOM      5  C   UNL     1      51.317   2.186  29.773  0.00  0.00    +0.000 C 
ATOM      6  C   UNL     1      49.841   1.866  29.436  0.00  0.00    +0.000 C 
ATOM      7  C   UNL     1      52.020   2.856  28.594  0.00  0.00    +0.000 C 
ENDROOT
BRANCH   4   8
ATOM      8  O   UNL     1      47.521   2.168  30.255  0.00  0.00    +0.000 OA
ATOM      9  H   UNL     1      46.986   2.921  30.586  0.00  0.00    +0.000 HD
ENDBRANCH   4   8
BRANCH   2  10
ATOM     10  O   UNL     1      51.103   3.374  33.210  0.00  0.00    +0.000 OA
BRANCH  10  29
ATOM     11  C   UNL     1      52.306  -0.972  39.551  0.00  0.00    +0.000 C 
ATOM     12  C   UNL     1      52.063  -0.158  38.251  0.00  0.00    +0.000 C 
ATOM     13  C   UNL     1      50.608  -0.253  37.725  0.00  0.00    +0.000 C 
ATOM     14  C   UNL     1      51.251  -0.724  40.667  0.00  0.00    +0.000 C 
ATOM     15  C   UNL     1      50.363   0.583  36.403  0.00  0.00    +0.000 C 
ATOM     16  C   UNL     1      51.468   0.250  35.346  0.00  0.00    +0.000 C 
ATOM     17  C   UNL     1      49.618   0.081  38.860  0.00  0.00    +0.000 C 
ATOM     18  C   UNL     1      49.821  -0.815  40.082  0.00  0.00    +0.000 C 
ATOM     19  C   UNL     1      51.562  -1.901  41.647  0.00  0.00    +0.000 C 
ATOM     20  C   UNL     1      53.060  -0.550  37.150  0.00  0.00    +0.000 C 
ATOM     21  C   UNL     1      52.293  -2.500  39.368  0.00  0.00    +0.000 C 
ATOM     22  C   UNL     1      52.893   0.330  35.922  0.00  0.00    +0.000 C 
ATOM     23  C   UNL     1      51.863  -3.092  40.715  0.00  0.00    +0.000 C 
ATOM     24  C   UNL     1      50.343   2.113  36.674  0.00  0.00    +0.000 C 
ATOM     25  C   UNL     1      51.377   1.137  34.087  0.00  0.00    +0.000 C 
ATOM     26  C   UNL     1      51.439   0.640  41.360  0.00  0.00    +0.000 C 
ATOM     27  C   UNL     1      48.982   0.164  35.823  0.00  0.00    +0.000 C 
ATOM     28  C   UNL     1      50.254   2.962  35.405  0.00  0.00    +0.000 C 
ATOM     29  C   UNL     1      51.365   2.635  34.408  0.00  0.00    +0.000 C 
BRANCH  19  32
ATOM     30  O   UNL     1      49.629  -2.098  44.845  0.00  0.00    +0.000 OA
ATOM     31  O   UNL     1      47.879  -3.510  44.381  0.00  0.00    +0.000 OA
ATOM     32  C   UNL     1      50.559  -2.168  42.736  0.00  0.00    +0.000 C 
ATOM     33  C   UNL     1      50.722  -1.579  44.089  0.00  0.00    +0.000 C 
ATOM     34  C   UNL     1      49.488  -2.963  42.720  0.00  0.00    +0.000 C 
ATOM     35  C   UNL     1      48.887  -2.912  44.051  0.00  0.00    +0.000 C 
ENDBRANCH  19  32
BRANCH  11  36
ATOM     36  O   UNL     1      53.614  -0.651  40.055  0.00  0.00    +0.000 OA
ATOM     37  H   UNL     1      53.514  -0.094  40.846  0.00  0.00    +0.000 HD
ENDBRANCH  11  36
ENDBRANCH  10  29
ENDBRANCH   2  10
BRANCH   6  38
ATOM     38  O   UNL     1      49.656   0.498  29.057  0.00  0.00    +0.000 OA
BRANCH  38  40
ATOM     39  O   UNL     1      50.639  -1.223  30.361  0.00  0.00    +0.000 OA
ATOM     40  C   UNL     1      49.438  -0.581  29.953  0.00  0.00    +0.000 C 
ATOM     41  C   UNL     1      48.378  -1.592  29.529  0.00  0.00    +0.000 C 
ATOM     42  C   UNL     1      48.681  -3.001  30.031  0.00  0.00    +0.000 C 
ATOM     43  C   UNL     1      50.441  -1.969  31.578  0.00  0.00    +0.000 C 
ATOM     44  C   UNL     1      49.359  -3.065  31.415  0.00  0.00    +0.000 C 
ATOM     45  C   UNL     1      51.792  -2.579  31.943  0.00  0.00    +0.000 C 
BRANCH  42  46
ATOM     46  O   UNL     1      47.518  -3.824  29.966  0.00  0.00    +0.000 OA
ATOM     47  H   UNL     1      47.710  -4.578  29.380  0.00  0.00    +0.000 HD
ENDBRANCH  42  46
BRANCH  44  48
ATOM     48  O   UNL     1      48.516  -3.155  32.570  0.00  0.00    +0.000 OA
BRANCH  48  50
ATOM     49  O   UNL     1      49.871  -3.509  34.455  0.00  0.00    +0.000 OA
ATOM     50  C   UNL     1      48.868  -4.060  33.609  0.00  0.00    +0.000 C 
ATOM     51  C   UNL     1      49.423  -5.316  32.928  0.00  0.00    +0.000 C 
ATOM     52  C   UNL     1      50.442  -6.045  33.801  0.00  0.00    +0.000 C 
ATOM     53  C   UNL     1      50.137  -4.322  35.613  0.00  0.00    +0.000 C 
ATOM     54  C   UNL     1      50.153  -5.827  35.287  0.00  0.00    +0.000 C 
ATOM     55  C   UNL     1      51.484  -3.858  36.155  0.00  0.00    +0.000 C 
BRANCH  52  56
ATOM     56  O   UNL     1      50.379  -7.447  33.510  0.00  0.00    +0.000 OA
ATOM     57  H   UNL     1      49.884  -7.551  32.678  0.00  0.00    +0.000 HD
ENDBRANCH  52  56
BRANCH  54  58
ATOM     58  O   UNL     1      48.860  -6.387  35.580  0.00  0.00    +0.000 OA
ATOM     59  H   UNL     1      48.983  -6.933  36.383  0.00  0.00    +0.000 HD
ENDBRANCH  54  58
ENDBRANCH  48  50
ENDBRANCH  44  48
ENDBRANCH  38  40
ENDBRANCH   6  38
TORSDOF 12
ENDMDL
MODEL 7
REMARK VINA RESULT:      -8.6      5.165      8.113
REMARK  Name = 
REMARK  17 active torsions:
REMARK  status: ('A' for Active; 'I' for Inactive)
REMARK    1  A    between atoms: O_1  and  C_14
REMARK    2  A    between atoms: O_2  and  C_32
REMARK    3  A    between atoms: O_2  and  C_36
REMARK    4  A    between atoms: O_6  and  C_39
REMARK    5  A    between atoms: O_7  and  C_41
REMARK    6  A    between atoms: O_7  and  C_43
REMARK    7  A    between atoms: O_9  and  C_47
REMARK    8  A    between atoms: O_9  and  C_49
REMARK    9  A    between atoms: O_10  and  C_45
REMARK   10  A    between atoms: O_12  and  C_51
REMARK   11  A    between atoms: O_13  and  C_53
REMARK   12  A    between atoms: C_17  and  C_29
REMARK   13  A    between atoms: C_18  and  C_30
REMARK   14  A    between atoms: C_22  and  C_33
REMARK   15  A    between atoms: C_40  and  C_42
REMARK   16  A    between atoms: C_46  and  C_48
REMARK   17  A    between atoms: C_52  and  C_54
REMARK                            x       y       z     vdW  Elec       q    Type
REMARK                         _______ _______ _______ _____ _____    ______ ____
ROOT
ATOM      1  O   UNL     1      36.554  -2.988  44.693  0.00  0.00    +0.000 OA
ATOM      2  C   UNL     1      37.355  -4.142  44.935  0.00  0.00    +0.000 C 
ATOM      3  C   UNL     1      36.511  -5.404  45.133  0.00  0.00    +0.000 C 
ATOM      4  C   UNL     1      35.051  -5.158  44.785  0.00  0.00    +0.000 C 
ATOM      5  C   UNL     1      35.789  -3.094  43.486  0.00  0.00    +0.000 C 
ATOM      6  C   UNL     1      34.848  -4.322  43.505  0.00  0.00    +0.000 C 
ATOM      7  C   UNL     1      34.997  -1.793  43.352  0.00  0.00    +0.000 C 
ENDROOT
BRANCH   4   8
ATOM      8  O   UNL     1      34.298  -6.366  44.796  0.00  0.00    +0.000 OA
ATOM      9  H   UNL     1      33.371  -6.111  44.985  0.00  0.00    +0.000 HD
ENDBRANCH   4   8
BRANCH   2  10
ATOM     10  O   UNL     1      38.258  -3.950  46.023  0.00  0.00    +0.000 OA
BRANCH  10  29
ATOM     11  C   UNL     1      36.251  -7.009  52.890  0.00  0.00    +0.000 C 
ATOM     12  C   UNL     1      36.647  -6.341  51.546  0.00  0.00    +0.000 C 
ATOM     13  C   UNL     1      38.076  -5.741  51.550  0.00  0.00    +0.000 C 
ATOM     14  C   UNL     1      37.312  -8.001  53.447  0.00  0.00    +0.000 C 
ATOM     15  C   UNL     1      38.477  -5.066  50.175  0.00  0.00    +0.000 C 
ATOM     16  C   UNL     1      37.352  -4.081  49.714  0.00  0.00    +0.000 C 
ATOM     17  C   UNL     1      39.087  -6.800  52.037  0.00  0.00    +0.000 C 
ATOM     18  C   UNL     1      38.719  -7.356  53.413  0.00  0.00    +0.000 C 
ATOM     19  C   UNL     1      36.797  -8.210  54.907  0.00  0.00    +0.000 C 
ATOM     20  C   UNL     1      35.620  -5.279  51.125  0.00  0.00    +0.000 C 
ATOM     21  C   UNL     1      36.019  -6.029  54.054  0.00  0.00    +0.000 C 
ATOM     22  C   UNL     1      35.949  -4.713  49.753  0.00  0.00    +0.000 C 
ATOM     23  C   UNL     1      36.323  -6.808  55.340  0.00  0.00    +0.000 C 
ATOM     24  C   UNL     1      38.741  -6.118  49.062  0.00  0.00    +0.000 C 
ATOM     25  C   UNL     1      37.609  -3.498  48.309  0.00  0.00    +0.000 C 
ATOM     26  C   UNL     1      37.336  -9.333  52.671  0.00  0.00    +0.000 C 
ATOM     27  C   UNL     1      39.782  -4.252  50.407  0.00  0.00    +0.000 C 
ATOM     28  C   UNL     1      38.989  -5.505  47.683  0.00  0.00    +0.000 C 
ATOM     29  C   UNL     1      37.859  -4.575  47.248  0.00  0.00    +0.000 C 
BRANCH  19  32
ATOM     30  O   UNL     1      39.221  -9.126  57.608  0.00  0.00    +0.000 OA
ATOM     31  O   UNL     1      39.628 -11.363  57.290  0.00  0.00    +0.000 OA
ATOM     32  C   UNL     1      37.723  -8.906  55.868  0.00  0.00    +0.000 C 
ATOM     33  C   UNL     1      38.397  -8.158  56.960  0.00  0.00    +0.000 C 
ATOM     34  C   UNL     1      38.133 -10.174  55.875  0.00  0.00    +0.000 C 
ATOM     35  C   UNL     1      39.073 -10.324  56.985  0.00  0.00    +0.000 C 
ENDBRANCH  19  32
BRANCH  11  36
ATOM     36  O   UNL     1      35.004  -7.701  52.709  0.00  0.00    +0.000 OA
ATOM     37  H   UNL     1      34.281  -7.115  52.992  0.00  0.00    +0.000 HD
ENDBRANCH  11  36
ENDBRANCH  10  29
ENDBRANCH   2  10
BRANCH   6  38
ATOM     38  O   UNL     1      34.767  -4.962  42.228  0.00  0.00    +0.000 OA
BRANCH  38  40
ATOM     39  O   UNL     1      33.320  -3.751  40.789  0.00  0.00    +0.000 OA
ATOM     40  C   UNL     1      34.618  -4.297  40.982  0.00  0.00    +0.000 C 
ATOM     41  C   UNL     1      35.088  -5.073  39.755  0.00  0.00    +0.000 C 
ATOM     42  C   UNL     1      34.282  -4.730  38.505  0.00  0.00    +0.000 C 
ATOM     43  C   UNL     1      33.334  -2.722  39.781  0.00  0.00    +0.000 C 
ATOM     44  C   UNL     1      33.820  -3.262  38.412  0.00  0.00    +0.000 C 
ATOM     45  C   UNL     1      31.909  -2.182  39.685  0.00  0.00    +0.000 C 
BRANCH  42  46
ATOM     46  O   UNL     1      34.968  -5.152  37.328  0.00  0.00    +0.000 OA
ATOM     47  H   UNL     1      35.761  -5.648  37.598  0.00  0.00    +0.000 HD
ENDBRANCH  42  46
BRANCH  44  48
ATOM     48  O   UNL     1      34.683  -2.329  37.750  0.00  0.00    +0.000 OA
BRANCH  48  50
ATOM     49  O   UNL     1      35.665  -0.452  38.764  0.00  0.00    +0.000 OA
ATOM     50  C   UNL     1      35.819  -1.831  38.446  0.00  0.00    +0.000 C 
ATOM     51  C   UNL     1      37.018  -1.997  37.507  0.00  0.00    +0.000 C 
ATOM     52  C   UNL     1      38.100  -0.950  37.758  0.00  0.00    +0.000 C 
ATOM     53  C   UNL     1      36.717   0.048  39.611  0.00  0.00    +0.000 C 
ATOM     54  C   UNL     1      38.102  -0.497  39.220  0.00  0.00    +0.000 C 
ATOM     55  C   UNL     1      36.666   1.567  39.495  0.00  0.00    +0.000 C 
BRANCH  52  56
ATOM     56  O   UNL     1      39.377  -1.519  37.441  0.00  0.00    +0.000 OA
ATOM     57  H   UNL     1      39.917  -0.818  37.033  0.00  0.00    +0.000 HD
ENDBRANCH  52  56
BRANCH  54  58
ATOM     58  O   UNL     1      38.410  -1.637  40.042  0.00  0.00    +0.000 OA
ATOM     59  H   UNL     1      39.301  -1.934  39.762  0.00  0.00    +0.000 HD
ENDBRANCH  54  58
ENDBRANCH  48  50
ENDBRANCH  44  48
ENDBRANCH  38  40
ENDBRANCH   6  38
TORSDOF 12
ENDMDL
MODEL 8
REMARK VINA RESULT:      -8.5     36.107     40.754
REMARK  Name = 
REMARK  17 active torsions:
REMARK  status: ('A' for Active; 'I' for Inactive)
REMARK    1  A    between atoms: O_1  and  C_14
REMARK    2  A    between atoms: O_2  and  C_32
REMARK    3  A    between atoms: O_2  and  C_36
REMARK    4  A    between atoms: O_6  and  C_39
REMARK    5  A    between atoms: O_7  and  C_41
REMARK    6  A    between atoms: O_7  and  C_43
REMARK    7  A    between atoms: O_9  and  C_47
REMARK    8  A    between atoms: O_9  and  C_49
REMARK    9  A    between atoms: O_10  and  C_45
REMARK   10  A    between atoms: O_12  and  C_51
REMARK   11  A    between atoms: O_13  and  C_53
REMARK   12  A    between atoms: C_17  and  C_29
REMARK   13  A    between atoms: C_18  and  C_30
REMARK   14  A    between atoms: C_22  and  C_33
REMARK   15  A    between atoms: C_40  and  C_42
REMARK   16  A    between atoms: C_46  and  C_48
REMARK   17  A    between atoms: C_52  and  C_54
REMARK                            x       y       z     vdW  Elec       q    Type
REMARK                         _______ _______ _______ _____ _____    ______ ____
ROOT
ATOM      1  O   UNL     1      21.182  -1.259   5.682  0.00  0.00    +0.000 OA
ATOM      2  C   UNL     1      21.557  -1.872   6.913  0.00  0.00    +0.000 C 
ATOM      3  C   UNL     1      22.937  -2.532   6.837  0.00  0.00    +0.000 C 
ATOM      4  C   UNL     1      23.661  -2.162   5.552  0.00  0.00    +0.000 C 
ATOM      5  C   UNL     1      22.064  -0.193   5.309  0.00  0.00    +0.000 C 
ATOM      6  C   UNL     1      23.527  -0.675   5.167  0.00  0.00    +0.000 C 
ATOM      7  C   UNL     1      21.537   0.372   3.991  0.00  0.00    +0.000 C 
ENDROOT
BRANCH   4   8
ATOM      8  O   UNL     1      25.007  -2.625   5.557  0.00  0.00    +0.000 OA
ATOM      9  H   UNL     1      24.970  -3.577   5.787  0.00  0.00    +0.000 HD
ENDBRANCH   4   8
BRANCH   2  10
ATOM     10  O   UNL     1      20.570  -2.794   7.376  0.00  0.00    +0.000 OA
BRANCH  10  29
ATOM     11  C   UNL     1      15.918   0.367  12.753  0.00  0.00    +0.000 C 
ATOM     12  C   UNL     1      16.881  -0.210  11.680  0.00  0.00    +0.000 C 
ATOM     13  C   UNL     1      18.273  -0.596  12.242  0.00  0.00    +0.000 C 
ATOM     14  C   UNL     1      15.823  -0.484  14.050  0.00  0.00    +0.000 C 
ATOM     15  C   UNL     1      19.250  -1.189  11.146  0.00  0.00    +0.000 C 
ATOM     16  C   UNL     1      19.283  -0.252   9.893  0.00  0.00    +0.000 C 
ATOM     17  C   UNL     1      18.106  -1.503  13.478  0.00  0.00    +0.000 C 
ATOM     18  C   UNL     1      17.239  -0.853  14.556  0.00  0.00    +0.000 C 
ATOM     19  C   UNL     1      15.094   0.507  15.013  0.00  0.00    +0.000 C 
ATOM     20  C   UNL     1      17.029   0.746  10.487  0.00  0.00    +0.000 C 
ATOM     21  C   UNL     1      16.288   1.772  13.263  0.00  0.00    +0.000 C 
ATOM     22  C   UNL     1      17.878   0.125   9.390  0.00  0.00    +0.000 C 
ATOM     23  C   UNL     1      15.724   1.876  14.685  0.00  0.00    +0.000 C 
ATOM     24  C   UNL     1      18.841  -2.625  10.715  0.00  0.00    +0.000 C 
ATOM     25  C   UNL     1      20.100  -0.843   8.726  0.00  0.00    +0.000 C 
ATOM     26  C   UNL     1      14.996  -1.771  13.848  0.00  0.00    +0.000 C 
ATOM     27  C   UNL     1      20.678  -1.244  11.760  0.00  0.00    +0.000 C 
ATOM     28  C   UNL     1      19.670  -3.179   9.555  0.00  0.00    +0.000 C 
ATOM     29  C   UNL     1      19.655  -2.257   8.337  0.00  0.00    +0.000 C 
BRANCH  19  32
ATOM     30  O   UNL     1      15.680   0.168  18.694  0.00  0.00    +0.000 OA
ATOM     31  O   UNL     1      14.248  -1.499  19.359  0.00  0.00    +0.000 OA
ATOM     32  C   UNL     1      15.059   0.144  16.473  0.00  0.00    +0.000 C 
ATOM     33  C   UNL     1      15.960   0.806  17.449  0.00  0.00    +0.000 C 
ATOM     34  C   UNL     1      14.343  -0.796  17.091  0.00  0.00    +0.000 C 
ATOM     35  C   UNL     1      14.722  -0.777  18.502  0.00  0.00    +0.000 C 
ENDBRANCH  19  32
BRANCH  11  36
ATOM     36  O   UNL     1      14.609   0.496  12.172  0.00  0.00    +0.000 OA
ATOM     37  H   UNL     1      13.947   0.266  12.846  0.00  0.00    +0.000 HD
ENDBRANCH  11  36
ENDBRANCH  10  29
ENDBRANCH   2  10
BRANCH   6  38
ATOM     38  O   UNL     1      24.465   0.287   5.658  0.00  0.00    +0.000 OA
BRANCH  38  40
ATOM     39  O   UNL     1      26.732  -0.407   5.548  0.00  0.00    +0.000 OA
ATOM     40  C   UNL     1      25.755   0.529   5.115  0.00  0.00    +0.000 C 
ATOM     41  C   UNL     1      26.263   1.963   5.228  0.00  0.00    +0.000 C 
ATOM     42  C   UNL     1      27.782   2.035   5.358  0.00  0.00    +0.000 C 
ATOM     43  C   UNL     1      27.863  -0.427   4.657  0.00  0.00    +0.000 C 
ATOM     44  C   UNL     1      28.553   0.958   4.567  0.00  0.00    +0.000 C 
ATOM     45  C   UNL     1      28.824  -1.487   5.190  0.00  0.00    +0.000 C 
BRANCH  42  46
ATOM     46  O   UNL     1      28.255   3.350   5.072  0.00  0.00    +0.000 OA
ATOM     47  H   UNL     1      27.487   3.912   4.866  0.00  0.00    +0.000 HD
ENDBRANCH  42  46
BRANCH  44  48
ATOM     48  O   UNL     1      28.950   1.268   3.226  0.00  0.00    +0.000 OA
BRANCH  48  50
ATOM     49  O   UNL     1      31.126   0.860   4.009  0.00  0.00    +0.000 OA
ATOM     50  C   UNL     1      30.337   1.304   2.911  0.00  0.00    +0.000 C 
ATOM     51  C   UNL     1      30.680   2.766   2.606  0.00  0.00    +0.000 C 
ATOM     52  C   UNL     1      32.135   3.099   2.932  0.00  0.00    +0.000 C 
ATOM     53  C   UNL     1      32.521   0.724   3.677  0.00  0.00    +0.000 C 
ATOM     54  C   UNL     1      33.030   1.868   2.781  0.00  0.00    +0.000 C 
ATOM     55  C   UNL     1      33.269   0.685   5.004  0.00  0.00    +0.000 C 
BRANCH  52  56
ATOM     56  O   UNL     1      32.586   4.121   2.035  0.00  0.00    +0.000 OA
ATOM     57  H   UNL     1      32.691   3.714   1.156  0.00  0.00    +0.000 HD
ENDBRANCH  52  56
BRANCH  54  58
ATOM     58  O   UNL     1      32.985   1.446   1.406  0.00  0.00    +0.000 OA
ATOM     59  H   UNL     1      32.401   2.087   0.950  0.00  0.00    +0.000 HD
ENDBRANCH  54  58
ENDBRANCH  48  50
ENDBRANCH  44  48
ENDBRANCH  38  40
ENDBRANCH   6  38
TORSDOF 12
ENDMDL
MODEL 9
REMARK VINA RESULT:      -8.5     30.033     36.818
REMARK  Name = 
REMARK  17 active torsions:
REMARK  status: ('A' for Active; 'I' for Inactive)
REMARK    1  A    between atoms: O_1  and  C_14
REMARK    2  A    between atoms: O_2  and  C_32
REMARK    3  A    between atoms: O_2  and  C_36
REMARK    4  A    between atoms: O_6  and  C_39
REMARK    5  A    between atoms: O_7  and  C_41
REMARK    6  A    between atoms: O_7  and  C_43
REMARK    7  A    between atoms: O_9  and  C_47
REMARK    8  A    between atoms: O_9  and  C_49
REMARK    9  A    between atoms: O_10  and  C_45
REMARK   10  A    between atoms: O_12  and  C_51
REMARK   11  A    between atoms: O_13  and  C_53
REMARK   12  A    between atoms: C_17  and  C_29
REMARK   13  A    between atoms: C_18  and  C_30
REMARK   14  A    between atoms: C_22  and  C_33
REMARK   15  A    between atoms: C_40  and  C_42
REMARK   16  A    between atoms: C_46  and  C_48
REMARK   17  A    between atoms: C_52  and  C_54
REMARK                            x       y       z     vdW  Elec       q    Type
REMARK                         _______ _______ _______ _____ _____    ______ ____
ROOT
ATOM      1  O   UNL     1      48.819  -2.833   4.761  0.00  0.00    +0.000 OA
ATOM      2  C   UNL     1      47.422  -2.829   5.040  0.00  0.00    +0.000 C 
ATOM      3  C   UNL     1      46.730  -4.109   4.564  0.00  0.00    +0.000 C 
ATOM      4  C   UNL     1      47.741  -5.161   4.135  0.00  0.00    +0.000 C 
ATOM      5  C   UNL     1      49.512  -3.884   5.446  0.00  0.00    +0.000 C 
ATOM      6  C   UNL     1      48.956  -5.279   5.077  0.00  0.00    +0.000 C 
ATOM      7  C   UNL     1      50.987  -3.759   5.066  0.00  0.00    +0.000 C 
ENDROOT
BRANCH   4   8
ATOM      8  O   UNL     1      47.114  -6.410   3.862  0.00  0.00    +0.000 OA
ATOM      9  H   UNL     1      46.234  -6.199   3.484  0.00  0.00    +0.000 HD
ENDBRANCH   4   8
BRANCH   2  10
ATOM     10  O   UNL     1      46.774  -1.669   4.517  0.00  0.00    +0.000 OA
BRANCH  10  29
ATOM     11  C   UNL     1      40.033   0.346   7.841  0.00  0.00    +0.000 C 
ATOM     12  C   UNL     1      41.386   0.004   7.159  0.00  0.00    +0.000 C 
ATOM     13  C   UNL     1      42.619   0.537   7.932  0.00  0.00    +0.000 C 
ATOM     14  C   UNL     1      39.978   0.007   9.358  0.00  0.00    +0.000 C 
ATOM     15  C   UNL     1      43.997   0.181   7.237  0.00  0.00    +0.000 C 
ATOM     16  C   UNL     1      43.950   0.574   5.723  0.00  0.00    +0.000 C 
ATOM     17  C   UNL     1      42.541   0.098   9.409  0.00  0.00    +0.000 C 
ATOM     18  C   UNL     1      41.239   0.547  10.074  0.00  0.00    +0.000 C 
ATOM     19  C   UNL     1      38.684   0.766   9.793  0.00  0.00    +0.000 C 
ATOM     20  C   UNL     1      41.416   0.486   5.701  0.00  0.00    +0.000 C 
ATOM     21  C   UNL     1      39.638   1.832   7.783  0.00  0.00    +0.000 C 
ATOM     22  C   UNL     1      42.694   0.047   5.006  0.00  0.00    +0.000 C 
ATOM     23  C   UNL     1      38.743   2.088   9.002  0.00  0.00    +0.000 C 
ATOM     24  C   UNL     1      44.351  -1.326   7.376  0.00  0.00    +0.000 C 
ATOM     25  C   UNL     1      45.205   0.121   4.950  0.00  0.00    +0.000 C 
ATOM     26  C   UNL     1      39.847  -1.508   9.616  0.00  0.00    +0.000 C 
ATOM     27  C   UNL     1      45.110   1.017   7.930  0.00  0.00    +0.000 C 
ATOM     28  C   UNL     1      45.598  -1.739   6.596  0.00  0.00    +0.000 C 
ATOM     29  C   UNL     1      45.507  -1.371   5.116  0.00  0.00    +0.000 C 
BRANCH  19  32
ATOM     30  O   UNL     1      38.494   1.877  13.362  0.00  0.00    +0.000 OA
ATOM     31  O   UNL     1      37.561   0.099  14.476  0.00  0.00    +0.000 OA
ATOM     32  C   UNL     1      38.436   0.907  11.271  0.00  0.00    +0.000 C 
ATOM     33  C   UNL     1      38.830   2.138  12.000  0.00  0.00    +0.000 C 
ATOM     34  C   UNL     1      37.939   0.017  12.131  0.00  0.00    +0.000 C 
ATOM     35  C   UNL     1      37.960   0.632  13.457  0.00  0.00    +0.000 C 
ENDBRANCH  19  32
BRANCH  11  36
ATOM     36  O   UNL     1      38.984  -0.362   7.158  0.00  0.00    +0.000 OA
ATOM     37  H   UNL     1      39.373  -1.128   6.702  0.00  0.00    +0.000 HD
ENDBRANCH  11  36
ENDBRANCH  10  29
ENDBRANCH   2  10
BRANCH   6  38
ATOM     38  O   UNL     1      48.915  -6.162   6.203  0.00  0.00    +0.000 OA
BRANCH  38  40
ATOM     39  O   UNL     1      49.339  -6.711   8.472  0.00  0.00    +0.000 OA
ATOM     40  C   UNL     1      48.810  -5.758   7.560  0.00  0.00    +0.000 C 
ATOM     41  C   UNL     1      47.435  -5.264   8.000  0.00  0.00    +0.000 C 
ATOM     42  C   UNL     1      47.152  -5.561   9.470  0.00  0.00    +0.000 C 
ATOM     43  C   UNL     1      49.640  -6.102   9.743  0.00  0.00    +0.000 C 
ATOM     44  C   UNL     1      48.381  -5.480  10.398  0.00  0.00    +0.000 C 
ATOM     45  C   UNL     1      50.235  -7.197  10.624  0.00  0.00    +0.000 C 
BRANCH  42  46
ATOM     46  O   UNL     1      46.066  -4.768   9.948  0.00  0.00    +0.000 OA
ATOM     47  H   UNL     1      45.513  -4.517   9.187  0.00  0.00    +0.000 HD
ENDBRANCH  42  46
BRANCH  44  48
ATOM     48  O   UNL     1      48.671  -4.220  11.015  0.00  0.00    +0.000 OA
BRANCH  48  50
ATOM     49  O   UNL     1      49.848  -4.059  13.041  0.00  0.00    +0.000 OA
ATOM     50  C   UNL     1      48.564  -4.107  12.429  0.00  0.00    +0.000 C 
ATOM     51  C   UNL     1      47.824  -5.357  12.915  0.00  0.00    +0.000 C 
ATOM     52  C   UNL     1      48.217  -5.747  14.338  0.00  0.00    +0.000 C 
ATOM     53  C   UNL     1      49.786  -3.780  14.452  0.00  0.00    +0.000 C 
ATOM     54  C   UNL     1      48.631  -4.519  15.152  0.00  0.00    +0.000 C 
ATOM     55  C   UNL     1      51.136  -4.193  15.025  0.00  0.00    +0.000 C 
BRANCH  52  56
ATOM     56  O   UNL     1      47.095  -6.374  14.971  0.00  0.00    +0.000 OA
ATOM     57  H   UNL     1      47.311  -7.318  15.081  0.00  0.00    +0.000 HD
ENDBRANCH  52  56
BRANCH  54  58
ATOM     58  O   UNL     1      47.496  -3.640  15.246  0.00  0.00    +0.000 OA
ATOM     59  H   UNL     1      47.072  -3.844  16.105  0.00  0.00    +0.000 HD
ENDBRANCH  54  58
ENDBRANCH  48  50
ENDBRANCH  44  48
ENDBRANCH  38  40
ENDBRANCH   6  38
TORSDOF 12
ENDMDL
