MODEL 1
REMARK VINA RESULT:      -8.7      0.000      0.000
REMARK  Name = Cdk12_Inhibitor.pdbqt.pdb
REMARK  6 active torsions:
REMARK  status: ('A' for Active; 'I' for Inactive)
REMARK    1  A    between atoms: N_1  and  C_23
REMARK    2  A    between atoms: N_9  and  C_11
REMARK    3  A    between atoms: C_14  and  S_17
REMARK    4  A    between atoms: S_17  and  N_20
REMARK    5  A    between atoms: C_23  and  N_25
REMARK    6  A    between atoms: N_25  and  C_27
REMARK                            x       y       z     vdW  Elec       q    Type
REMARK                         _______ _______ _______ _____ _____    ______ ____
ROOT
ATOM      1  N   UNL     1      37.545   3.668  16.173  0.00  0.00    +0.000 N 
ATOM      2  N   UNL     1      37.553   3.042  14.968  0.00  0.00    +0.000 NA
ATOM      3  N   UNL     1      39.230   4.567  15.054  0.00  0.00    +0.000 NA
ATOM      4  N   UNL     1      38.775   5.539  17.160  0.00  0.00    +0.000 N 
ATOM      5  C   UNL     1      38.596   3.587  14.348  0.00  0.00    +0.000 A 
ATOM      6  C   UNL     1      38.546   4.644  16.166  0.00  0.00    +0.000 A 
ATOM      7  H   UNL     1      37.959   6.036  17.520  0.00  0.00    +0.000 HD
ATOM      8  H   UNL     1      39.493   6.220  16.912  0.00  0.00    +0.000 HD
ATOM      9  N   UNL     1      39.092   3.312  13.130  0.00  0.00    +0.000 N 
ATOM     10  H   UNL     1      39.902   3.854  12.857  0.00  0.00    +0.000 HD
ENDROOT
BRANCH   9  11
ATOM     11  C   UNL     1      38.680   2.368  12.173  0.00  0.00    +0.000 A 
ATOM     12  C   UNL     1      37.867   2.785  11.110  0.00  0.00    +0.000 A 
ATOM     13  C   UNL     1      37.421   1.886  10.145  0.00  0.00    +0.000 A 
ATOM     14  C   UNL     1      37.778   0.549  10.255  0.00  0.00    +0.000 A 
ATOM     15  C   UNL     1      38.599   0.103  11.284  0.00  0.00    +0.000 A 
ATOM     16  C   UNL     1      39.034   1.015  12.241  0.00  0.00    +0.000 A 
BRANCH  14  17
ATOM     17  S   UNL     1      37.278  -0.577   9.016  0.00  0.00    +0.000 S 
ATOM     18  O   UNL     1      35.852  -0.461   8.813  0.00  0.00    +0.000 OA
ATOM     19  O   UNL     1      38.215  -0.533   7.920  0.00  0.00    +0.000 OA
BRANCH  17  20
ATOM     20  N   UNL     1      37.508  -2.062   9.767  0.00  0.00    +0.000 NA
ATOM     21  H   UNL     1      36.877  -2.146  10.564  0.00  0.00    +0.000 HD
ATOM     22  H   UNL     1      37.408  -2.812   9.082  0.00  0.00    +0.000 HD
ENDBRANCH  17  20
ENDBRANCH  14  17
ENDBRANCH   9  11
BRANCH   1  23
ATOM     23  C   UNL     1      36.625   3.278  17.190  0.00  0.00    +0.000 C 
ATOM     24  S   UNL     1      36.920   3.386  18.848  0.00  0.00    +0.000 S 
BRANCH  23  25
ATOM     25  N   UNL     1      35.404   2.922  16.605  0.00  0.00    +0.000 N 
ATOM     26  H   UNL     1      34.711   3.674  16.525  0.00  0.00    +0.000 HD
BRANCH  25  27
ATOM     27  C   UNL     1      34.872   1.634  16.331  0.00  0.00    +0.000 A 
ATOM     28  C   UNL     1      33.981   1.527  15.256  0.00  0.00    +0.000 A 
ATOM     29  F   UNL     1      33.662   2.628  14.556  0.00  0.00    +0.000 F 
ATOM     30  C   UNL     1      33.407   0.311  14.896  0.00  0.00    +0.000 A 
ATOM     31  C   UNL     1      33.742  -0.838  15.603  0.00  0.00    +0.000 A 
ATOM     32  C   UNL     1      34.676  -0.771  16.632  0.00  0.00    +0.000 A 
ATOM     33  C   UNL     1      35.240   0.456  16.985  0.00  0.00    +0.000 A 
ATOM     34  F   UNL     1      36.261   0.440  17.854  0.00  0.00    +0.000 F 
ENDBRANCH  25  27
ENDBRANCH  23  25
ENDBRANCH   1  23
TORSDOF 6
ENDMDL
MODEL 2
REMARK VINA RESULT:      -7.9      4.875      7.967
REMARK  Name = Cdk12_Inhibitor.pdbqt.pdb
REMARK  6 active torsions:
REMARK  status: ('A' for Active; 'I' for Inactive)
REMARK    1  A    between atoms: N_1  and  C_23
REMARK    2  A    between atoms: N_9  and  C_11
REMARK    3  A    between atoms: C_14  and  S_17
REMARK    4  A    between atoms: S_17  and  N_20
REMARK    5  A    between atoms: C_23  and  N_25
REMARK    6  A    between atoms: N_25  and  C_27
REMARK                            x       y       z     vdW  Elec       q    Type
REMARK                         _______ _______ _______ _____ _____    ______ ____
ROOT
ATOM      1  N   UNL     1      39.712   1.957  10.476  0.00  0.00    +0.000 N 
ATOM      2  N   UNL     1      38.931   1.863  11.583  0.00  0.00    +0.000 NA
ATOM      3  N   UNL     1      37.826   2.993   9.955  0.00  0.00    +0.000 NA
ATOM      4  N   UNL     1      39.531   3.103   8.322  0.00  0.00    +0.000 N 
ATOM      5  C   UNL     1      37.804   2.465  11.213  0.00  0.00    +0.000 A 
ATOM      6  C   UNL     1      39.027   2.713   9.520  0.00  0.00    +0.000 A 
ATOM      7  H   UNL     1      40.463   3.520   8.335  0.00  0.00    +0.000 HD
ATOM      8  H   UNL     1      38.899   3.725   7.818  0.00  0.00    +0.000 HD
ATOM      9  N   UNL     1      36.668   2.632  11.911  0.00  0.00    +0.000 N 
ATOM     10  H   UNL     1      35.928   3.124  11.426  0.00  0.00    +0.000 HD
ENDROOT
BRANCH   9  11
ATOM     11  C   UNL     1      36.327   2.207  13.207  0.00  0.00    +0.000 A 
ATOM     12  C   UNL     1      35.586   1.028  13.364  0.00  0.00    +0.000 A 
ATOM     13  C   UNL     1      35.211   0.573  14.625  0.00  0.00    +0.000 A 
ATOM     14  C   UNL     1      35.567   1.316  15.743  0.00  0.00    +0.000 A 
ATOM     15  C   UNL     1      36.318   2.479  15.626  0.00  0.00    +0.000 A 
ATOM     16  C   UNL     1      36.683   2.921  14.358  0.00  0.00    +0.000 A 
BRANCH  14  17
ATOM     17  S   UNL     1      35.158   0.723  17.334  0.00  0.00    +0.000 S 
ATOM     18  O   UNL     1      36.080  -0.327  17.703  0.00  0.00    +0.000 OA
ATOM     19  O   UNL     1      34.877   1.839  18.205  0.00  0.00    +0.000 OA
BRANCH  17  20
ATOM     20  N   UNL     1      33.687  -0.041  17.065  0.00  0.00    +0.000 NA
ATOM     21  H   UNL     1      33.703  -0.508  16.158  0.00  0.00    +0.000 HD
ATOM     22  H   UNL     1      33.476  -0.664  17.846  0.00  0.00    +0.000 HD
ENDBRANCH  17  20
ENDBRANCH  14  17
ENDBRANCH   9  11
BRANCH   1  23
ATOM     23  C   UNL     1      40.988   1.321  10.429  0.00  0.00    +0.000 C 
ATOM     24  S   UNL     1      42.435   2.096  10.040  0.00  0.00    +0.000 S 
BRANCH  23  25
ATOM     25  N   UNL     1      40.870   0.001  10.881  0.00  0.00    +0.000 N 
ATOM     26  H   UNL     1      40.054  -0.199  11.468  0.00  0.00    +0.000 HD
BRANCH  25  27
ATOM     27  C   UNL     1      41.825  -1.050  10.866  0.00  0.00    +0.000 A 
ATOM     28  C   UNL     1      41.749  -1.967   9.811  0.00  0.00    +0.000 A 
ATOM     29  F   UNL     1      40.787  -1.823   8.885  0.00  0.00    +0.000 F 
ATOM     30  C   UNL     1      42.640  -3.030   9.696  0.00  0.00    +0.000 A 
ATOM     31  C   UNL     1      43.651  -3.179  10.639  0.00  0.00    +0.000 A 
ATOM     32  C   UNL     1      43.789  -2.244  11.660  0.00  0.00    +0.000 A 
ATOM     33  C   UNL     1      42.886  -1.184  11.765  0.00  0.00    +0.000 A 
ATOM     34  F   UNL     1      43.167  -0.217  12.649  0.00  0.00    +0.000 F 
ENDBRANCH  25  27
ENDBRANCH  23  25
ENDBRANCH   1  23
TORSDOF 6
ENDMDL
MODEL 3
REMARK VINA RESULT:      -7.7      5.566      8.866
REMARK  Name = Cdk12_Inhibitor.pdbqt.pdb
REMARK  6 active torsions:
REMARK  status: ('A' for Active; 'I' for Inactive)
REMARK    1  A    between atoms: N_1  and  C_23
REMARK    2  A    between atoms: N_9  and  C_11
REMARK    3  A    between atoms: C_14  and  S_17
REMARK    4  A    between atoms: S_17  and  N_20
REMARK    5  A    between atoms: C_23  and  N_25
REMARK    6  A    between atoms: N_25  and  C_27
REMARK                            x       y       z     vdW  Elec       q    Type
REMARK                         _______ _______ _______ _____ _____    ______ ____
ROOT
ATOM      1  N   UNL     1      41.221  -0.175  10.694  0.00  0.00    +0.000 N 
ATOM      2  N   UNL     1      40.160   0.190  11.460  0.00  0.00    +0.000 NA
ATOM      3  N   UNL     1      39.567  -1.515  10.087  0.00  0.00    +0.000 NA
ATOM      4  N   UNL     1      41.559  -1.725   8.832  0.00  0.00    +0.000 N 
ATOM      5  C   UNL     1      39.208  -0.659  11.087  0.00  0.00    +0.000 A 
ATOM      6  C   UNL     1      40.802  -1.180   9.817  0.00  0.00    +0.000 A 
ATOM      7  H   UNL     1      42.056  -1.070   8.226  0.00  0.00    +0.000 HD
ATOM      8  H   UNL     1      41.030  -2.375   8.250  0.00  0.00    +0.000 HD
ATOM      9  N   UNL     1      37.951  -0.774  11.549  0.00  0.00    +0.000 N 
ATOM     10  H   UNL     1      37.393  -1.500  11.116  0.00  0.00    +0.000 HD
ENDROOT
BRANCH   9  11
ATOM     11  C   UNL     1      37.287  -0.062  12.563  0.00  0.00    +0.000 A 
ATOM     12  C   UNL     1      36.504   1.047  12.215  0.00  0.00    +0.000 A 
ATOM     13  C   UNL     1      35.838   1.794  13.183  0.00  0.00    +0.000 A 
ATOM     14  C   UNL     1      35.971   1.437  14.518  0.00  0.00    +0.000 A 
ATOM     15  C   UNL     1      36.723   0.332  14.898  0.00  0.00    +0.000 A 
ATOM     16  C   UNL     1      37.384  -0.403  13.917  0.00  0.00    +0.000 A 
BRANCH  14  17
ATOM     17  S   UNL     1      35.090   2.327  15.737  0.00  0.00    +0.000 S 
ATOM     18  O   UNL     1      34.355   1.400  16.566  0.00  0.00    +0.000 OA
ATOM     19  O   UNL     1      35.943   3.347  16.297  0.00  0.00    +0.000 OA
BRANCH  17  20
ATOM     20  N   UNL     1      33.933   3.134  14.825  0.00  0.00    +0.000 NA
ATOM     21  H   UNL     1      34.100   4.139  14.870  0.00  0.00    +0.000 HD
ATOM     22  H   UNL     1      33.924   2.760  13.875  0.00  0.00    +0.000 HD
ENDBRANCH  17  20
ENDBRANCH  14  17
ENDBRANCH   9  11
BRANCH   1  23
ATOM     23  C   UNL     1      42.496   0.436  10.878  0.00  0.00    +0.000 C 
ATOM     24  S   UNL     1      43.064   1.760  10.000  0.00  0.00    +0.000 S 
BRANCH  23  25
ATOM     25  N   UNL     1      43.139  -0.145  11.978  0.00  0.00    +0.000 N 
ATOM     26  H   UNL     1      42.737   0.071  12.896  0.00  0.00    +0.000 HD
BRANCH  25  27
ATOM     27  C   UNL     1      44.406  -0.782  12.053  0.00  0.00    +0.000 A 
ATOM     28  C   UNL     1      45.422  -0.104  12.737  0.00  0.00    +0.000 A 
ATOM     29  F   UNL     1      45.164   1.102  13.268  0.00  0.00    +0.000 F 
ATOM     30  C   UNL     1      46.699  -0.640  12.877  0.00  0.00    +0.000 A 
ATOM     31  C   UNL     1      46.974  -1.896  12.346  0.00  0.00    +0.000 A 
ATOM     32  C   UNL     1      45.964  -2.620  11.720  0.00  0.00    +0.000 A 
ATOM     33  C   UNL     1      44.689  -2.067  11.584  0.00  0.00    +0.000 A 
ATOM     34  F   UNL     1      43.712  -2.869  11.139  0.00  0.00    +0.000 F 
ENDBRANCH  25  27
ENDBRANCH  23  25
ENDBRANCH   1  23
TORSDOF 6
ENDMDL
MODEL 4
REMARK VINA RESULT:      -7.6      2.736      3.802
REMARK  Name = Cdk12_Inhibitor.pdbqt.pdb
REMARK  6 active torsions:
REMARK  status: ('A' for Active; 'I' for Inactive)
REMARK    1  A    between atoms: N_1  and  C_23
REMARK    2  A    between atoms: N_9  and  C_11
REMARK    3  A    between atoms: C_14  and  S_17
REMARK    4  A    between atoms: S_17  and  N_20
REMARK    5  A    between atoms: C_23  and  N_25
REMARK    6  A    between atoms: N_25  and  C_27
REMARK                            x       y       z     vdW  Elec       q    Type
REMARK                         _______ _______ _______ _____ _____    ______ ____
ROOT
ATOM      1  N   UNL     1      38.094   4.239  15.962  0.00  0.00    +0.000 N 
ATOM      2  N   UNL     1      38.045   3.546  14.795  0.00  0.00    +0.000 NA
ATOM      3  N   UNL     1      39.614   5.179  14.655  0.00  0.00    +0.000 NA
ATOM      4  N   UNL     1      39.269   6.240  16.739  0.00  0.00    +0.000 N 
ATOM      5  C   UNL     1      38.993   4.120  14.060  0.00  0.00    +0.000 A 
ATOM      6  C   UNL     1      39.021   5.275  15.817  0.00  0.00    +0.000 A 
ATOM      7  H   UNL     1      38.453   6.703  17.142  0.00  0.00    +0.000 HD
ATOM      8  H   UNL     1      39.914   6.951  16.394  0.00  0.00    +0.000 HD
ATOM      9  N   UNL     1      39.403   3.808  12.818  0.00  0.00    +0.000 N 
ATOM     10  H   UNL     1      40.149   4.384  12.449  0.00  0.00    +0.000 HD
ENDROOT
BRANCH   9  11
ATOM     11  C   UNL     1      38.979   2.785  11.952  0.00  0.00    +0.000 A 
ATOM     12  C   UNL     1      37.692   2.849  11.402  0.00  0.00    +0.000 A 
ATOM     13  C   UNL     1      37.221   1.853  10.550  0.00  0.00    +0.000 A 
ATOM     14  C   UNL     1      38.042   0.772  10.258  0.00  0.00    +0.000 A 
ATOM     15  C   UNL     1      39.331   0.686  10.769  0.00  0.00    +0.000 A 
ATOM     16  C   UNL     1      39.786   1.689  11.621  0.00  0.00    +0.000 A 
BRANCH  14  17
ATOM     17  S   UNL     1      37.486  -0.451   9.141  0.00  0.00    +0.000 S 
ATOM     18  O   UNL     1      36.042  -0.435   9.095  0.00  0.00    +0.000 OA
ATOM     19  O   UNL     1      38.292  -0.410   7.944  0.00  0.00    +0.000 OA
BRANCH  17  20
ATOM     20  N   UNL     1      37.898  -1.874   9.932  0.00  0.00    +0.000 NA
ATOM     21  H   UNL     1      37.247  -2.041  10.699  0.00  0.00    +0.000 HD
ATOM     22  H   UNL     1      37.947  -2.639   9.259  0.00  0.00    +0.000 HD
ENDBRANCH  17  20
ENDBRANCH  14  17
ENDBRANCH   9  11
BRANCH   1  23
ATOM     23  C   UNL     1      37.292   3.850  17.075  0.00  0.00    +0.000 C 
ATOM     24  S   UNL     1      35.703   3.293  16.968  0.00  0.00    +0.000 S 
BRANCH  23  25
ATOM     25  N   UNL     1      38.066   3.875  18.241  0.00  0.00    +0.000 N 
ATOM     26  H   UNL     1      39.061   3.656  18.123  0.00  0.00    +0.000 HD
BRANCH  25  27
ATOM     27  C   UNL     1      37.655   3.911  19.600  0.00  0.00    +0.000 A 
ATOM     28  C   UNL     1      37.230   2.705  20.170  0.00  0.00    +0.000 A 
ATOM     29  F   UNL     1      37.216   1.593  19.418  0.00  0.00    +0.000 F 
ATOM     30  C   UNL     1      36.813   2.625  21.496  0.00  0.00    +0.000 A 
ATOM     31  C   UNL     1      36.839   3.767  22.289  0.00  0.00    +0.000 A 
ATOM     32  C   UNL     1      37.319   4.964  21.767  0.00  0.00    +0.000 A 
ATOM     33  C   UNL     1      37.731   5.029  20.435  0.00  0.00    +0.000 A 
ATOM     34  F   UNL     1      38.350   6.147  20.033  0.00  0.00    +0.000 F 
ENDBRANCH  25  27
ENDBRANCH  23  25
ENDBRANCH   1  23
TORSDOF 6
ENDMDL
MODEL 5
REMARK VINA RESULT:      -7.4     18.551     20.677
REMARK  Name = Cdk12_Inhibitor.pdbqt.pdb
REMARK  6 active torsions:
REMARK  status: ('A' for Active; 'I' for Inactive)
REMARK    1  A    between atoms: N_1  and  C_23
REMARK    2  A    between atoms: N_9  and  C_11
REMARK    3  A    between atoms: C_14  and  S_17
REMARK    4  A    between atoms: S_17  and  N_20
REMARK    5  A    between atoms: C_23  and  N_25
REMARK    6  A    between atoms: N_25  and  C_27
REMARK                            x       y       z     vdW  Elec       q    Type
REMARK                         _______ _______ _______ _____ _____    ______ ____
ROOT
ATOM      1  N   UNL     1      18.470  11.797  18.576  0.00  0.00    +0.000 N 
ATOM      2  N   UNL     1      18.405  10.449  18.734  0.00  0.00    +0.000 NA
ATOM      3  N   UNL     1      18.653  11.450  20.755  0.00  0.00    +0.000 NA
ATOM      4  N   UNL     1      18.909  13.694  20.057  0.00  0.00    +0.000 N 
ATOM      5  C   UNL     1      18.483  10.293  20.053  0.00  0.00    +0.000 A 
ATOM      6  C   UNL     1      18.689  12.375  19.830  0.00  0.00    +0.000 A 
ATOM      7  H   UNL     1      19.602  14.148  19.461  0.00  0.00    +0.000 HD
ATOM      8  H   UNL     1      19.137  13.888  21.033  0.00  0.00    +0.000 HD
ATOM      9  N   UNL     1      18.433   9.159  20.772  0.00  0.00    +0.000 N 
ATOM     10  H   UNL     1      18.512   9.277  21.775  0.00  0.00    +0.000 HD
ENDROOT
BRANCH   9  11
ATOM     11  C   UNL     1      18.260   7.827  20.358  0.00  0.00    +0.000 A 
ATOM     12  C   UNL     1      19.373   7.105  19.906  0.00  0.00    +0.000 A 
ATOM     13  C   UNL     1      19.251   5.788  19.471  0.00  0.00    +0.000 A 
ATOM     14  C   UNL     1      17.997   5.191  19.474  0.00  0.00    +0.000 A 
ATOM     15  C   UNL     1      16.876   5.870  19.934  0.00  0.00    +0.000 A 
ATOM     16  C   UNL     1      17.015   7.187  20.363  0.00  0.00    +0.000 A 
BRANCH  14  17
ATOM     17  S   UNL     1      17.842   3.519  18.991  0.00  0.00    +0.000 S 
ATOM     18  O   UNL     1      19.147   2.899  18.992  0.00  0.00    +0.000 OA
ATOM     19  O   UNL     1      16.711   2.928  19.665  0.00  0.00    +0.000 OA
BRANCH  17  20
ATOM     20  N   UNL     1      17.405   3.651  17.375  0.00  0.00    +0.000 NA
ATOM     21  H   UNL     1      17.755   2.845  16.857  0.00  0.00    +0.000 HD
ATOM     22  H   UNL     1      16.395   3.780  17.302  0.00  0.00    +0.000 HD
ENDBRANCH  17  20
ENDBRANCH  14  17
ENDBRANCH   9  11
BRANCH   1  23
ATOM     23  C   UNL     1      18.306  12.388  17.289  0.00  0.00    +0.000 C 
ATOM     24  S   UNL     1      16.820  12.660  16.537  0.00  0.00    +0.000 S 
BRANCH  23  25
ATOM     25  N   UNL     1      19.548  12.825  16.813  0.00  0.00    +0.000 N 
ATOM     26  H   UNL     1      19.617  13.825  16.594  0.00  0.00    +0.000 HD
BRANCH  25  27
ATOM     27  C   UNL     1      20.656  12.069  16.346  0.00  0.00    +0.000 A 
ATOM     28  C   UNL     1      21.731  11.901  17.226  0.00  0.00    +0.000 A 
ATOM     29  F   UNL     1      21.676  12.464  18.444  0.00  0.00    +0.000 F 
ATOM     30  C   UNL     1      22.864  11.173  16.874  0.00  0.00    +0.000 A 
ATOM     31  C   UNL     1      22.925  10.571  15.621  0.00  0.00    +0.000 A 
ATOM     32  C   UNL     1      21.843  10.666  14.753  0.00  0.00    +0.000 A 
ATOM     33  C   UNL     1      20.715  11.403  15.119  0.00  0.00    +0.000 A 
ATOM     34  F   UNL     1      19.635  11.315  14.330  0.00  0.00    +0.000 F 
ENDBRANCH  25  27
ENDBRANCH  23  25
ENDBRANCH   1  23
TORSDOF 6
ENDMDL
MODEL 6
REMARK VINA RESULT:      -7.4      4.215      6.896
REMARK  Name = Cdk12_Inhibitor.pdbqt.pdb
REMARK  6 active torsions:
REMARK  status: ('A' for Active; 'I' for Inactive)
REMARK    1  A    between atoms: N_1  and  C_23
REMARK    2  A    between atoms: N_9  and  C_11
REMARK    3  A    between atoms: C_14  and  S_17
REMARK    4  A    between atoms: S_17  and  N_20
REMARK    5  A    between atoms: C_23  and  N_25
REMARK    6  A    between atoms: N_25  and  C_27
REMARK                            x       y       z     vdW  Elec       q    Type
REMARK                         _______ _______ _______ _____ _____    ______ ____
ROOT
ATOM      1  N   UNL     1      40.291   3.174  12.033  0.00  0.00    +0.000 N 
ATOM      2  N   UNL     1      39.260   2.570  12.678  0.00  0.00    +0.000 NA
ATOM      3  N   UNL     1      39.766   1.420  10.790  0.00  0.00    +0.000 NA
ATOM      4  N   UNL     1      41.421   2.846   9.888  0.00  0.00    +0.000 N 
ATOM      5  C   UNL     1      39.004   1.510  11.917  0.00  0.00    +0.000 A 
ATOM      6  C   UNL     1      40.532   2.479  10.845  0.00  0.00    +0.000 A 
ATOM      7  H   UNL     1      41.393   3.823   9.592  0.00  0.00    +0.000 HD
ATOM      8  H   UNL     1      41.371   2.250   9.061  0.00  0.00    +0.000 HD
ATOM      9  N   UNL     1      38.095   0.537  12.104  0.00  0.00    +0.000 N 
ATOM     10  H   UNL     1      38.074  -0.181  11.391  0.00  0.00    +0.000 HD
ENDROOT
BRANCH   9  11
ATOM     11  C   UNL     1      37.178   0.339  13.151  0.00  0.00    +0.000 A 
ATOM     12  C   UNL     1      35.988   1.079  13.164  0.00  0.00    +0.000 A 
ATOM     13  C   UNL     1      35.055   0.930  14.186  0.00  0.00    +0.000 A 
ATOM     14  C   UNL     1      35.324   0.040  15.218  0.00  0.00    +0.000 A 
ATOM     15  C   UNL     1      36.483  -0.725  15.227  0.00  0.00    +0.000 A 
ATOM     16  C   UNL     1      37.407  -0.562  14.199  0.00  0.00    +0.000 A 
BRANCH  14  17
ATOM     17  S   UNL     1      34.133  -0.204  16.473  0.00  0.00    +0.000 S 
ATOM     18  O   UNL     1      34.365   0.741  17.541  0.00  0.00    +0.000 OA
ATOM     19  O   UNL     1      32.833  -0.379  15.873  0.00  0.00    +0.000 OA
BRANCH  17  20
ATOM     20  N   UNL     1      34.567  -1.703  17.093  0.00  0.00    +0.000 NA
ATOM     21  H   UNL     1      35.532  -1.673  17.423  0.00  0.00    +0.000 HD
ATOM     22  H   UNL     1      33.896  -1.986  17.808  0.00  0.00    +0.000 HD
ENDBRANCH  17  20
ENDBRANCH  14  17
ENDBRANCH   9  11
BRANCH   1  23
ATOM     23  C   UNL     1      40.941   4.309  12.601  0.00  0.00    +0.000 C 
ATOM     24  S   UNL     1      41.282   5.738  11.772  0.00  0.00    +0.000 S 
BRANCH  23  25
ATOM     25  N   UNL     1      41.127   4.104  13.974  0.00  0.00    +0.000 N 
ATOM     26  H   UNL     1      41.335   3.141  14.258  0.00  0.00    +0.000 HD
BRANCH  25  27
ATOM     27  C   UNL     1      40.831   4.962  15.066  0.00  0.00    +0.000 A 
ATOM     28  C   UNL     1      41.901   5.659  15.639  0.00  0.00    +0.000 A 
ATOM     29  F   UNL     1      43.138   5.479  15.149  0.00  0.00    +0.000 F 
ATOM     30  C   UNL     1      41.722   6.531  16.709  0.00  0.00    +0.000 A 
ATOM     31  C   UNL     1      40.443   6.738  17.214  0.00  0.00    +0.000 A 
ATOM     32  C   UNL     1      39.353   6.108  16.621  0.00  0.00    +0.000 A 
ATOM     33  C   UNL     1      39.549   5.234  15.550  0.00  0.00    +0.000 A 
ATOM     34  F   UNL     1      38.460   4.797  14.902  0.00  0.00    +0.000 F 
ENDBRANCH  25  27
ENDBRANCH  23  25
ENDBRANCH   1  23
TORSDOF 6
ENDMDL
MODEL 7
REMARK VINA RESULT:      -7.4     20.875     23.198
REMARK  Name = Cdk12_Inhibitor.pdbqt.pdb
REMARK  6 active torsions:
REMARK  status: ('A' for Active; 'I' for Inactive)
REMARK    1  A    between atoms: N_1  and  C_23
REMARK    2  A    between atoms: N_9  and  C_11
REMARK    3  A    between atoms: C_14  and  S_17
REMARK    4  A    between atoms: S_17  and  N_20
REMARK    5  A    between atoms: C_23  and  N_25
REMARK    6  A    between atoms: N_25  and  C_27
REMARK                            x       y       z     vdW  Elec       q    Type
REMARK                         _______ _______ _______ _____ _____    ______ ____
ROOT
ATOM      1  N   UNL     1      49.203  -0.514  30.400  0.00  0.00    +0.000 N 
ATOM      2  N   UNL     1      49.479  -1.553  31.231  0.00  0.00    +0.000 NA
ATOM      3  N   UNL     1      48.319  -2.296  29.429  0.00  0.00    +0.000 NA
ATOM      4  N   UNL     1      47.883  -0.234  28.359  0.00  0.00    +0.000 N 
ATOM      5  C   UNL     1      48.962  -2.599  30.593  0.00  0.00    +0.000 A 
ATOM      6  C   UNL     1      48.433  -0.997  29.337  0.00  0.00    +0.000 A 
ATOM      7  H   UNL     1      47.376   0.598  28.663  0.00  0.00    +0.000 HD
ATOM      8  H   UNL     1      47.282  -0.775  27.735  0.00  0.00    +0.000 HD
ATOM      9  N   UNL     1      48.977  -3.895  30.947  0.00  0.00    +0.000 N 
ATOM     10  H   UNL     1      48.519  -4.528  30.304  0.00  0.00    +0.000 HD
ENDROOT
BRANCH   9  11
ATOM     11  C   UNL     1      49.555  -4.525  32.064  0.00  0.00    +0.000 A 
ATOM     12  C   UNL     1      50.922  -4.832  32.040  0.00  0.00    +0.000 A 
ATOM     13  C   UNL     1      51.538  -5.469  33.115  0.00  0.00    +0.000 A 
ATOM     14  C   UNL     1      50.773  -5.818  34.220  0.00  0.00    +0.000 A 
ATOM     15  C   UNL     1      49.419  -5.511  34.286  0.00  0.00    +0.000 A 
ATOM     16  C   UNL     1      48.819  -4.877  33.202  0.00  0.00    +0.000 A 
BRANCH  14  17
ATOM     17  S   UNL     1      51.546  -6.559  35.600  0.00  0.00    +0.000 S 
ATOM     18  O   UNL     1      52.902  -6.073  35.705  0.00  0.00    +0.000 OA
ATOM     19  O   UNL     1      50.638  -6.549  36.721  0.00  0.00    +0.000 OA
BRANCH  17  20
ATOM     20  N   UNL     1      51.676  -8.163  35.119  0.00  0.00    +0.000 NA
ATOM     21  H   UNL     1      51.665  -8.219  34.101  0.00  0.00    +0.000 HD
ATOM     22  H   UNL     1      52.503  -8.583  35.546  0.00  0.00    +0.000 HD
ENDBRANCH  17  20
ENDBRANCH  14  17
ENDBRANCH   9  11
BRANCH   1  23
ATOM     23  C   UNL     1      49.698   0.793  30.678  0.00  0.00    +0.000 C 
ATOM     24  S   UNL     1      51.310   1.160  31.016  0.00  0.00    +0.000 S 
BRANCH  23  25
ATOM     25  N   UNL     1      48.674   1.730  30.497  0.00  0.00    +0.000 N 
ATOM     26  H   UNL     1      47.774   1.354  30.181  0.00  0.00    +0.000 HD
BRANCH  25  27
ATOM     27  C   UNL     1      48.742   3.148  30.440  0.00  0.00    +0.000 A 
ATOM     28  C   UNL     1      48.233   3.856  31.535  0.00  0.00    +0.000 A 
ATOM     29  F   UNL     1      47.700   3.179  32.564  0.00  0.00    +0.000 F 
ATOM     30  C   UNL     1      48.257   5.247  31.585  0.00  0.00    +0.000 A 
ATOM     31  C   UNL     1      48.822   5.959  30.533  0.00  0.00    +0.000 A 
ATOM     32  C   UNL     1      49.394   5.277  29.463  0.00  0.00    +0.000 A 
ATOM     33  C   UNL     1      49.360   3.883  29.425  0.00  0.00    +0.000 A 
ATOM     34  F   UNL     1      50.079   3.272  28.472  0.00  0.00    +0.000 F 
ENDBRANCH  25  27
ENDBRANCH  23  25
ENDBRANCH   1  23
TORSDOF 6
ENDMDL
MODEL 8
REMARK VINA RESULT:      -7.3      4.395      7.163
REMARK  Name = Cdk12_Inhibitor.pdbqt.pdb
REMARK  6 active torsions:
REMARK  status: ('A' for Active; 'I' for Inactive)
REMARK    1  A    between atoms: N_1  and  C_23
REMARK    2  A    between atoms: N_9  and  C_11
REMARK    3  A    between atoms: C_14  and  S_17
REMARK    4  A    between atoms: S_17  and  N_20
REMARK    5  A    between atoms: C_23  and  N_25
REMARK    6  A    between atoms: N_25  and  C_27
REMARK                            x       y       z     vdW  Elec       q    Type
REMARK                         _______ _______ _______ _____ _____    ______ ____
ROOT
ATOM      1  N   UNL     1      40.443   1.828  10.906  0.00  0.00    +0.000 N 
ATOM      2  N   UNL     1      39.413   1.479  11.721  0.00  0.00    +0.000 NA
ATOM      3  N   UNL     1      40.593  -0.368  11.135  0.00  0.00    +0.000 NA
ATOM      4  N   UNL     1      42.125   0.603   9.620  0.00  0.00    +0.000 N 
ATOM      5  C   UNL     1      39.565   0.165  11.856  0.00  0.00    +0.000 A 
ATOM      6  C   UNL     1      41.105   0.662  10.513  0.00  0.00    +0.000 A 
ATOM      7  H   UNL     1      41.989   1.108   8.743  0.00  0.00    +0.000 HD
ATOM      8  H   UNL     1      42.401  -0.357   9.407  0.00  0.00    +0.000 HD
ATOM      9  N   UNL     1      38.838  -0.697  12.588  0.00  0.00    +0.000 N 
ATOM     10  H   UNL     1      39.136  -1.664  12.545  0.00  0.00    +0.000 HD
ENDROOT
BRANCH   9  11
ATOM     11  C   UNL     1      37.739  -0.469  13.434  0.00  0.00    +0.000 A 
ATOM     12  C   UNL     1      36.807   0.518  13.088  0.00  0.00    +0.000 A 
ATOM     13  C   UNL     1      35.709   0.792  13.900  0.00  0.00    +0.000 A 
ATOM     14  C   UNL     1      35.551   0.080  15.081  0.00  0.00    +0.000 A 
ATOM     15  C   UNL     1      36.444  -0.920  15.446  0.00  0.00    +0.000 A 
ATOM     16  C   UNL     1      37.537  -1.179  14.624  0.00  0.00    +0.000 A 
BRANCH  14  17
ATOM     17  S   UNL     1      34.144   0.369  16.076  0.00  0.00    +0.000 S 
ATOM     18  O   UNL     1      34.481   1.314  17.116  0.00  0.00    +0.000 OA
ATOM     19  O   UNL     1      32.986   0.538  15.232  0.00  0.00    +0.000 OA
BRANCH  17  20
ATOM     20  N   UNL     1      33.944  -1.106  16.853  0.00  0.00    +0.000 NA
ATOM     21  H   UNL     1      33.705  -0.950  17.832  0.00  0.00    +0.000 HD
ATOM     22  H   UNL     1      33.261  -1.671  16.347  0.00  0.00    +0.000 HD
ENDBRANCH  17  20
ENDBRANCH  14  17
ENDBRANCH   9  11
BRANCH   1  23
ATOM     23  C   UNL     1      40.700   3.198  10.604  0.00  0.00    +0.000 C 
ATOM     24  S   UNL     1      39.835   4.115   9.483  0.00  0.00    +0.000 S 
BRANCH  23  25
ATOM     25  N   UNL     1      41.683   3.692  11.470  0.00  0.00    +0.000 N 
ATOM     26  H   UNL     1      42.630   3.755  11.082  0.00  0.00    +0.000 HD
BRANCH  25  27
ATOM     27  C   UNL     1      41.636   3.887  12.876  0.00  0.00    +0.000 A 
ATOM     28  C   UNL     1      40.922   4.997  13.343  0.00  0.00    +0.000 A 
ATOM     29  F   UNL     1      40.338   5.820  12.458  0.00  0.00    +0.000 F 
ATOM     30  C   UNL     1      40.806   5.278  14.702  0.00  0.00    +0.000 A 
ATOM     31  C   UNL     1      41.393   4.423  15.628  0.00  0.00    +0.000 A 
ATOM     32  C   UNL     1      42.052   3.277  15.193  0.00  0.00    +0.000 A 
ATOM     33  C   UNL     1      42.162   3.010  13.828  0.00  0.00    +0.000 A 
ATOM     34  F   UNL     1      42.643   1.811  13.469  0.00  0.00    +0.000 F 
ENDBRANCH  25  27
ENDBRANCH  23  25
ENDBRANCH   1  23
TORSDOF 6
ENDMDL
MODEL 9
REMARK VINA RESULT:      -7.3     28.303     30.786
REMARK  Name = Cdk12_Inhibitor.pdbqt.pdb
REMARK  6 active torsions:
REMARK  status: ('A' for Active; 'I' for Inactive)
REMARK    1  A    between atoms: N_1  and  C_23
REMARK    2  A    between atoms: N_9  and  C_11
REMARK    3  A    between atoms: C_14  and  S_17
REMARK    4  A    between atoms: S_17  and  N_20
REMARK    5  A    between atoms: C_23  and  N_25
REMARK    6  A    between atoms: N_25  and  C_27
REMARK                            x       y       z     vdW  Elec       q    Type
REMARK                         _______ _______ _______ _____ _____    ______ ____
ROOT
ATOM      1  N   UNL     1      33.123 -11.314  43.068  0.00  0.00    +0.000 N 
ATOM      2  N   UNL     1      33.700 -11.514  41.855  0.00  0.00    +0.000 NA
ATOM      3  N   UNL     1      34.860  -9.944  43.010  0.00  0.00    +0.000 NA
ATOM      4  N   UNL     1      33.478  -9.751  44.917  0.00  0.00    +0.000 N 
ATOM      5  C   UNL     1      34.752 -10.701  41.880  0.00  0.00    +0.000 A 
ATOM      6  C   UNL     1      33.822 -10.296  43.723  0.00  0.00    +0.000 A 
ATOM      7  H   UNL     1      32.500  -9.478  45.026  0.00  0.00    +0.000 HD
ATOM      8  H   UNL     1      34.071  -8.960  45.169  0.00  0.00    +0.000 HD
ATOM      9  N   UNL     1      35.700 -10.519  40.945  0.00  0.00    +0.000 N 
ATOM     10  H   UNL     1      36.417  -9.842  41.178  0.00  0.00    +0.000 HD
ENDROOT
BRANCH   9  11
ATOM     11  C   UNL     1      35.876 -11.140  39.696  0.00  0.00    +0.000 A 
ATOM     12  C   UNL     1      35.765 -10.369  38.531  0.00  0.00    +0.000 A 
ATOM     13  C   UNL     1      35.916 -10.939  37.270  0.00  0.00    +0.000 A 
ATOM     14  C   UNL     1      36.165 -12.302  37.173  0.00  0.00    +0.000 A 
ATOM     15  C   UNL     1      36.301 -13.093  38.307  0.00  0.00    +0.000 A 
ATOM     16  C   UNL     1      36.145 -12.507  39.560  0.00  0.00    +0.000 A 
BRANCH  14  17
ATOM     17  S   UNL     1      36.420 -13.018  35.600  0.00  0.00    +0.000 S 
ATOM     18  O   UNL     1      36.712 -11.975  34.643  0.00  0.00    +0.000 OA
ATOM     19  O   UNL     1      37.250 -14.190  35.735  0.00  0.00    +0.000 OA
BRANCH  17  20
ATOM     20  N   UNL     1      34.885 -13.575  35.207  0.00  0.00    +0.000 NA
ATOM     21  H   UNL     1      34.611 -14.314  35.855  0.00  0.00    +0.000 HD
ATOM     22  H   UNL     1      34.233 -12.791  35.176  0.00  0.00    +0.000 HD
ENDBRANCH  17  20
ENDBRANCH  14  17
ENDBRANCH   9  11
BRANCH   1  23
ATOM     23  C   UNL     1      32.006 -12.098  43.482  0.00  0.00    +0.000 C 
ATOM     24  S   UNL     1      32.107 -13.502  44.411  0.00  0.00    +0.000 S 
BRANCH  23  25
ATOM     25  N   UNL     1      30.819 -11.452  43.114  0.00  0.00    +0.000 N 
ATOM     26  H   UNL     1      30.920 -10.671  42.458  0.00  0.00    +0.000 HD
BRANCH  25  27
ATOM     27  C   UNL     1      29.524 -11.541  43.690  0.00  0.00    +0.000 A 
ATOM     28  C   UNL     1      28.560 -12.272  42.985  0.00  0.00    +0.000 A 
ATOM     29  F   UNL     1      28.892 -12.833  41.812  0.00  0.00    +0.000 F 
ATOM     30  C   UNL     1      27.262 -12.428  43.462  0.00  0.00    +0.000 A 
ATOM     31  C   UNL     1      26.912 -11.865  44.684  0.00  0.00    +0.000 A 
ATOM     32  C   UNL     1      27.868 -11.190  45.436  0.00  0.00    +0.000 A 
ATOM     33  C   UNL     1      29.165 -11.039  44.943  0.00  0.00    +0.000 A 
ATOM     34  F   UNL     1      30.090 -10.544  45.778  0.00  0.00    +0.000 F 
ENDBRANCH  25  27
ENDBRANCH  23  25
ENDBRANCH   1  23
TORSDOF 6
ENDMDL
