MODEL 1
REMARK VINA RESULT:      -8.2      0.000      0.000
REMARK  Name = CHEMBL35349.pdbqt.pdb
REMARK  2 active torsions:
REMARK  status: ('A' for Active; 'I' for Inactive)
REMARK    1  A    between atoms: C_2  and  C_11
REMARK    2  A    between atoms: C_5  and  O_21
REMARK                            x       y       z     vdW  Elec       q    Type
REMARK                         _______ _______ _______ _____ _____    ______ ____
ROOT
ATOM      1  N   UNL     1      39.532   1.841  11.309  0.00  0.00    +0.000 N 
ATOM      2  C   UNL     1      37.973   0.738  12.467  0.00  0.00    +0.000 A 
ATOM      3  C   UNL     1      37.744   0.547  11.060  0.00  0.00    +0.000 A 
ATOM      4  C   UNL     1      38.730   1.247  10.369  0.00  0.00    +0.000 A 
ATOM      5  C   UNL     1      39.095   1.549  12.573  0.00  0.00    +0.000 A 
ATOM      6  C   UNL     1      36.782  -0.159  10.311  0.00  0.00    +0.000 A 
ATOM      7  C   UNL     1      38.811   1.282   8.972  0.00  0.00    +0.000 A 
ATOM      8  C   UNL     1      36.843  -0.140   8.916  0.00  0.00    +0.000 A 
ATOM      9  C   UNL     1      37.844   0.570   8.262  0.00  0.00    +0.000 A 
ATOM     10  H   UNL     1      40.337   2.418  11.111  0.00  0.00    +0.000 HD
ENDROOT
BRANCH   2  11
ATOM     11  C   UNL     1      37.192   0.194  13.554  0.00  0.00    +0.000 C 
ATOM     12  N   UNL     1      37.610  -0.805  14.288  0.00  0.00    +0.000 NA
ATOM     13  C   UNL     1      36.597  -1.056  15.234  0.00  0.00    +0.000 A 
ATOM     14  C   UNL     1      35.496  -0.211  15.122  0.00  0.00    +0.000 A 
ATOM     15  C   UNL     1      36.610  -2.028  16.217  0.00  0.00    +0.000 A 
ATOM     16  C   UNL     1      35.815   0.665  14.013  0.00  0.00    +0.000 C 
ATOM     17  C   UNL     1      34.387  -0.270  15.938  0.00  0.00    +0.000 A 
ATOM     18  O   UNL     1      35.165   1.566  13.536  0.00  0.00    +0.000 OA
ATOM     19  C   UNL     1      34.405  -1.251  16.927  0.00  0.00    +0.000 A 
ATOM     20  C   UNL     1      35.502  -2.120  17.066  0.00  0.00    +0.000 A 
ENDBRANCH   2  11
BRANCH   5  21
ATOM     21  O   UNL     1      39.778   2.059  13.591  0.00  0.00    +0.000 OA
ATOM     22  H   UNL     1      39.298   1.897  14.436  0.00  0.00    +0.000 HD
ENDBRANCH   5  21
TORSDOF 2
ENDMDL
MODEL 2
REMARK VINA RESULT:      -6.4     14.336     15.395
REMARK  Name = CHEMBL35349.pdbqt.pdb
REMARK  2 active torsions:
REMARK  status: ('A' for Active; 'I' for Inactive)
REMARK    1  A    between atoms: C_2  and  C_11
REMARK    2  A    between atoms: C_5  and  O_21
REMARK                            x       y       z     vdW  Elec       q    Type
REMARK                         _______ _______ _______ _____ _____    ______ ____
ROOT
ATOM      1  N   UNL     1      23.585   2.036   5.429  0.00  0.00    +0.000 N 
ATOM      2  C   UNL     1      23.120   0.372   6.844  0.00  0.00    +0.000 A 
ATOM      3  C   UNL     1      24.299   0.039   6.090  0.00  0.00    +0.000 A 
ATOM      4  C   UNL     1      24.560   1.095   5.219  0.00  0.00    +0.000 A 
ATOM      5  C   UNL     1      22.712   1.621   6.399  0.00  0.00    +0.000 A 
ATOM      6  C   UNL     1      25.169  -1.069   6.070  0.00  0.00    +0.000 A 
ATOM      7  C   UNL     1      25.639   1.107   4.330  0.00  0.00    +0.000 A 
ATOM      8  C   UNL     1      26.254  -1.079   5.191  0.00  0.00    +0.000 A 
ATOM      9  C   UNL     1      26.481  -0.005   4.337  0.00  0.00    +0.000 A 
ATOM     10  H   UNL     1      23.508   2.917   4.943  0.00  0.00    +0.000 HD
ENDROOT
BRANCH   2  11
ATOM     11  C   UNL     1      22.487  -0.434   7.863  0.00  0.00    +0.000 C 
ATOM     12  N   UNL     1      22.392  -0.044   9.108  0.00  0.00    +0.000 NA
ATOM     13  C   UNL     1      21.724  -1.075   9.799  0.00  0.00    +0.000 A 
ATOM     14  C   UNL     1      21.374  -2.158   8.997  0.00  0.00    +0.000 A 
ATOM     15  C   UNL     1      21.404  -1.093  11.144  0.00  0.00    +0.000 A 
ATOM     16  C   UNL     1      21.851  -1.808   7.675  0.00  0.00    +0.000 C 
ATOM     17  C   UNL     1      20.715  -3.279   9.453  0.00  0.00    +0.000 A 
ATOM     18  O   UNL     1      21.781  -2.435   6.643  0.00  0.00    +0.000 OA
ATOM     19  C   UNL     1      20.395  -3.293  10.809  0.00  0.00    +0.000 A 
ATOM     20  C   UNL     1      20.735  -2.215  11.645  0.00  0.00    +0.000 A 
ENDBRANCH   2  11
BRANCH   5  21
ATOM     21  O   UNL     1      21.710   2.435   6.711  0.00  0.00    +0.000 OA
ATOM     22  H   UNL     1      21.413   2.928   5.913  0.00  0.00    +0.000 HD
ENDBRANCH   5  21
TORSDOF 2
ENDMDL
MODEL 3
REMARK VINA RESULT:      -6.1     27.605     28.874
REMARK  Name = CHEMBL35349.pdbqt.pdb
REMARK  2 active torsions:
REMARK  status: ('A' for Active; 'I' for Inactive)
REMARK    1  A    between atoms: C_2  and  C_11
REMARK    2  A    between atoms: C_5  and  O_21
REMARK                            x       y       z     vdW  Elec       q    Type
REMARK                         _______ _______ _______ _____ _____    ______ ____
ROOT
ATOM      1  N   UNL     1      34.148 -15.359  38.060  0.00  0.00    +0.000 N 
ATOM      2  C   UNL     1      35.129 -13.388  38.432  0.00  0.00    +0.000 A 
ATOM      3  C   UNL     1      36.012 -14.219  37.659  0.00  0.00    +0.000 A 
ATOM      4  C   UNL     1      35.371 -15.438  37.446  0.00  0.00    +0.000 A 
ATOM      5  C   UNL     1      33.984 -14.138  38.658  0.00  0.00    +0.000 A 
ATOM      6  C   UNL     1      37.302 -14.044  37.120  0.00  0.00    +0.000 A 
ATOM      7  C   UNL     1      35.945 -16.491  36.726  0.00  0.00    +0.000 A 
ATOM      8  C   UNL     1      37.895 -15.081  36.397  0.00  0.00    +0.000 A 
ATOM      9  C   UNL     1      37.223 -16.283  36.206  0.00  0.00    +0.000 A 
ATOM     10  H   UNL     1      33.455 -16.092  38.079  0.00  0.00    +0.000 HD
ENDROOT
BRANCH   2  11
ATOM     11  C   UNL     1      35.384 -12.039  38.884  0.00  0.00    +0.000 C 
ATOM     12  N   UNL     1      35.307 -11.694  40.144  0.00  0.00    +0.000 NA
ATOM     13  C   UNL     1      35.616 -10.320  40.201  0.00  0.00    +0.000 A 
ATOM     14  C   UNL     1      35.901  -9.753  38.962  0.00  0.00    +0.000 A 
ATOM     15  C   UNL     1      35.658  -9.532  41.335  0.00  0.00    +0.000 A 
ATOM     16  C   UNL     1      35.767 -10.843  38.017  0.00  0.00    +0.000 C 
ATOM     17  C   UNL     1      36.229  -8.428  38.773  0.00  0.00    +0.000 A 
ATOM     18  O   UNL     1      35.916 -10.841  36.817  0.00  0.00    +0.000 OA
ATOM     19  C   UNL     1      36.269  -7.637  39.919  0.00  0.00    +0.000 A 
ATOM     20  C   UNL     1      35.987  -8.180  41.185  0.00  0.00    +0.000 A 
ENDBRANCH   2  11
BRANCH   5  21
ATOM     21  O   UNL     1      32.840 -13.917  39.295  0.00  0.00    +0.000 OA
ATOM     22  H   UNL     1      32.221 -14.669  39.153  0.00  0.00    +0.000 HD
ENDBRANCH   5  21
TORSDOF 2
ENDMDL
MODEL 4
REMARK VINA RESULT:      -6.1     14.831     16.176
REMARK  Name = CHEMBL35349.pdbqt.pdb
REMARK  2 active torsions:
REMARK  status: ('A' for Active; 'I' for Inactive)
REMARK    1  A    between atoms: C_2  and  C_11
REMARK    2  A    between atoms: C_5  and  O_21
REMARK                            x       y       z     vdW  Elec       q    Type
REMARK                         _______ _______ _______ _____ _____    ______ ____
ROOT
ATOM      1  N   UNL     1      22.271  -2.247   4.068  0.00  0.00    +0.000 N 
ATOM      2  C   UNL     1      22.217  -2.027   6.289  0.00  0.00    +0.000 A 
ATOM      3  C   UNL     1      23.514  -1.640   5.805  0.00  0.00    +0.000 A 
ATOM      4  C   UNL     1      23.514  -1.789   4.419  0.00  0.00    +0.000 A 
ATOM      5  C   UNL     1      21.478  -2.397   5.174  0.00  0.00    +0.000 A 
ATOM      6  C   UNL     1      24.693  -1.175   6.422  0.00  0.00    +0.000 A 
ATOM      7  C   UNL     1      24.622  -1.501   3.616  0.00  0.00    +0.000 A 
ATOM      8  C   UNL     1      25.811  -0.880   5.640  0.00  0.00    +0.000 A 
ATOM      9  C   UNL     1      25.772  -1.042   4.260  0.00  0.00    +0.000 A 
ATOM     10  H   UNL     1      21.967  -2.451   3.126  0.00  0.00    +0.000 HD
ENDROOT
BRANCH   2  11
ATOM     11  C   UNL     1      21.770  -2.031   7.664  0.00  0.00    +0.000 C 
ATOM     12  N   UNL     1      21.227  -3.082   8.223  0.00  0.00    +0.000 NA
ATOM     13  C   UNL     1      20.924  -2.715   9.549  0.00  0.00    +0.000 A 
ATOM     14  C   UNL     1      21.272  -1.405   9.868  0.00  0.00    +0.000 A 
ATOM     15  C   UNL     1      20.337  -3.516  10.512  0.00  0.00    +0.000 A 
ATOM     16  C   UNL     1      21.850  -0.871   8.652  0.00  0.00    +0.000 C 
ATOM     17  C   UNL     1      21.072  -0.828  11.103  0.00  0.00    +0.000 A 
ATOM     18  O   UNL     1      22.300   0.231   8.436  0.00  0.00    +0.000 OA
ATOM     19  C   UNL     1      20.479  -1.639  12.069  0.00  0.00    +0.000 A 
ATOM     20  C   UNL     1      20.116  -2.966  11.779  0.00  0.00    +0.000 A 
ENDBRANCH   2  11
BRANCH   5  21
ATOM     21  O   UNL     1      20.239  -2.836   4.986  0.00  0.00    +0.000 OA
ATOM     22  H   UNL     1      20.151  -3.757   5.323  0.00  0.00    +0.000 HD
ENDBRANCH   5  21
TORSDOF 2
ENDMDL
MODEL 5
REMARK VINA RESULT:      -6.0     14.956     17.237
REMARK  Name = CHEMBL35349.pdbqt.pdb
REMARK  2 active torsions:
REMARK  status: ('A' for Active; 'I' for Inactive)
REMARK    1  A    between atoms: C_2  and  C_11
REMARK    2  A    between atoms: C_5  and  O_21
REMARK                            x       y       z     vdW  Elec       q    Type
REMARK                         _______ _______ _______ _____ _____    ______ ____
ROOT
ATOM      1  N   UNL     1      18.746   0.018   9.293  0.00  0.00    +0.000 N 
ATOM      2  C   UNL     1      20.745  -0.570   8.490  0.00  0.00    +0.000 A 
ATOM      3  C   UNL     1      20.749  -0.706   9.922  0.00  0.00    +0.000 A 
ATOM      4  C   UNL     1      19.491  -0.332  10.389  0.00  0.00    +0.000 A 
ATOM      5  C   UNL     1      19.480  -0.117   8.145  0.00  0.00    +0.000 A 
ATOM      6  C   UNL     1      21.713  -1.114  10.866  0.00  0.00    +0.000 A 
ATOM      7  C   UNL     1      19.140  -0.342  11.743  0.00  0.00    +0.000 A 
ATOM      8  C   UNL     1      21.385  -1.133  12.223  0.00  0.00    +0.000 A 
ATOM      9  C   UNL     1      20.118  -0.753  12.650  0.00  0.00    +0.000 A 
ATOM     10  H   UNL     1      17.787   0.335   9.313  0.00  0.00    +0.000 HD
ENDROOT
BRANCH   2  11
ATOM     11  C   UNL     1      21.841  -0.849   7.590  0.00  0.00    +0.000 C 
ATOM     12  N   UNL     1      22.133  -2.061   7.195  0.00  0.00    +0.000 NA
ATOM     13  C   UNL     1      23.245  -1.944   6.337  0.00  0.00    +0.000 A 
ATOM     14  C   UNL     1      23.691  -0.636   6.165  0.00  0.00    +0.000 A 
ATOM     15  C   UNL     1      23.894  -2.975   5.684  0.00  0.00    +0.000 A 
ATOM     16  C   UNL     1      22.800   0.168   6.977  0.00  0.00    +0.000 C 
ATOM     17  C   UNL     1      24.761  -0.279   5.373  0.00  0.00    +0.000 A 
ATOM     18  O   UNL     1      22.789   1.364   7.150  0.00  0.00    +0.000 OA
ATOM     19  C   UNL     1      25.413  -1.322   4.718  0.00  0.00    +0.000 A 
ATOM     20  C   UNL     1      24.986  -2.653   4.870  0.00  0.00    +0.000 A 
ENDBRANCH   2  11
BRANCH   5  21
ATOM     21  O   UNL     1      18.885   0.188   6.997  0.00  0.00    +0.000 OA
ATOM     22  H   UNL     1      19.008   1.143   6.795  0.00  0.00    +0.000 HD
ENDBRANCH   5  21
TORSDOF 2
ENDMDL
MODEL 6
REMARK VINA RESULT:      -5.8      5.145      7.170
REMARK  Name = CHEMBL35349.pdbqt.pdb
REMARK  2 active torsions:
REMARK  status: ('A' for Active; 'I' for Inactive)
REMARK    1  A    between atoms: C_2  and  C_11
REMARK    2  A    between atoms: C_5  and  O_21
REMARK                            x       y       z     vdW  Elec       q    Type
REMARK                         _______ _______ _______ _____ _____    ______ ____
ROOT
ATOM      1  N   UNL     1      44.739  -0.567  12.643  0.00  0.00    +0.000 N 
ATOM      2  C   UNL     1      42.944  -0.995  11.386  0.00  0.00    +0.000 A 
ATOM      3  C   UNL     1      43.973  -1.954  11.086  0.00  0.00    +0.000 A 
ATOM      4  C   UNL     1      45.076  -1.659  11.886  0.00  0.00    +0.000 A 
ATOM      5  C   UNL     1      43.465  -0.153  12.358  0.00  0.00    +0.000 A 
ATOM      6  C   UNL     1      44.066  -3.049  10.204  0.00  0.00    +0.000 A 
ATOM      7  C   UNL     1      46.265  -2.395  11.854  0.00  0.00    +0.000 A 
ATOM      8  C   UNL     1      45.243  -3.799  10.156  0.00  0.00    +0.000 A 
ATOM      9  C   UNL     1      46.322  -3.473  10.970  0.00  0.00    +0.000 A 
ATOM     10  H   UNL     1      45.337  -0.119  13.321  0.00  0.00    +0.000 HD
ENDROOT
BRANCH   2  11
ATOM     11  C   UNL     1      41.628  -0.922  10.792  0.00  0.00    +0.000 C 
ATOM     12  N   UNL     1      40.534  -0.909  11.509  0.00  0.00    +0.000 NA
ATOM     13  C   UNL     1      39.462  -0.832  10.598  0.00  0.00    +0.000 A 
ATOM     14  C   UNL     1      39.855  -0.795   9.262  0.00  0.00    +0.000 A 
ATOM     15  C   UNL     1      38.116  -0.793  10.911  0.00  0.00    +0.000 A 
ATOM     16  C   UNL     1      41.302  -0.851   9.303  0.00  0.00    +0.000 C 
ATOM     17  C   UNL     1      38.982  -0.720   8.199  0.00  0.00    +0.000 A 
ATOM     18  O   UNL     1      42.095  -0.846   8.390  0.00  0.00    +0.000 OA
ATOM     19  C   UNL     1      37.627  -0.681   8.520  0.00  0.00    +0.000 A 
ATOM     20  C   UNL     1      37.197  -0.718   9.858  0.00  0.00    +0.000 A 
ENDBRANCH   2  11
BRANCH   5  21
ATOM     21  O   UNL     1      43.000   0.900  13.020  0.00  0.00    +0.000 OA
ATOM     22  H   UNL     1      43.742   1.390  13.442  0.00  0.00    +0.000 HD
ENDBRANCH   5  21
TORSDOF 2
ENDMDL
MODEL 7
REMARK VINA RESULT:      -5.8     15.614     17.933
REMARK  Name = CHEMBL35349.pdbqt.pdb
REMARK  2 active torsions:
REMARK  status: ('A' for Active; 'I' for Inactive)
REMARK    1  A    between atoms: C_2  and  C_11
REMARK    2  A    between atoms: C_5  and  O_21
REMARK                            x       y       z     vdW  Elec       q    Type
REMARK                         _______ _______ _______ _____ _____    ______ ____
ROOT
ATOM      1  N   UNL     1      18.513  -1.382  11.231  0.00  0.00    +0.000 N 
ATOM      2  C   UNL     1      20.077  -1.857   9.709  0.00  0.00    +0.000 A 
ATOM      3  C   UNL     1      19.868  -3.005  10.550  0.00  0.00    +0.000 A 
ATOM      4  C   UNL     1      18.890  -2.675  11.486  0.00  0.00    +0.000 A 
ATOM      5  C   UNL     1      19.213  -0.873  10.170  0.00  0.00    +0.000 A 
ATOM      6  C   UNL     1      20.426  -4.298  10.601  0.00  0.00    +0.000 A 
ATOM      7  C   UNL     1      18.437  -3.562  12.468  0.00  0.00    +0.000 A 
ATOM      8  C   UNL     1      19.989  -5.201  11.572  0.00  0.00    +0.000 A 
ATOM      9  C   UNL     1      19.010  -4.834  12.488  0.00  0.00    +0.000 A 
ATOM     10  H   UNL     1      17.817  -0.863  11.746  0.00  0.00    +0.000 HD
ENDROOT
BRANCH   2  11
ATOM     11  C   UNL     1      21.002  -1.749   8.604  0.00  0.00    +0.000 C 
ATOM     12  N   UNL     1      20.922  -2.513   7.545  0.00  0.00    +0.000 NA
ATOM     13  C   UNL     1      21.975  -2.125   6.693  0.00  0.00    +0.000 A 
ATOM     14  C   UNL     1      22.759  -1.090   7.198  0.00  0.00    +0.000 A 
ATOM     15  C   UNL     1      22.276  -2.663   5.456  0.00  0.00    +0.000 A 
ATOM     16  C   UNL     1      22.171  -0.776   8.484  0.00  0.00    +0.000 C 
ATOM     17  C   UNL     1      23.842  -0.546   6.542  0.00  0.00    +0.000 A 
ATOM     18  O   UNL     1      22.504   0.055   9.298  0.00  0.00    +0.000 OA
ATOM     19  C   UNL     1      24.141  -1.093   5.296  0.00  0.00    +0.000 A 
ATOM     20  C   UNL     1      23.370  -2.139   4.759  0.00  0.00    +0.000 A 
ENDBRANCH   2  11
BRANCH   5  21
ATOM     21  O   UNL     1      18.952   0.377   9.805  0.00  0.00    +0.000 OA
ATOM     22  H   UNL     1      18.518   0.389   8.922  0.00  0.00    +0.000 HD
ENDBRANCH   5  21
TORSDOF 2
ENDMDL
MODEL 8
REMARK VINA RESULT:      -5.8     15.332     17.557
REMARK  Name = CHEMBL35349.pdbqt.pdb
REMARK  2 active torsions:
REMARK  status: ('A' for Active; 'I' for Inactive)
REMARK    1  A    between atoms: C_2  and  C_11
REMARK    2  A    between atoms: C_5  and  O_21
REMARK                            x       y       z     vdW  Elec       q    Type
REMARK                         _______ _______ _______ _____ _____    ______ ____
ROOT
ATOM      1  N   UNL     1      18.780  -0.799   9.174  0.00  0.00    +0.000 N 
ATOM      2  C   UNL     1      20.710  -1.406   8.230  0.00  0.00    +0.000 A 
ATOM      3  C   UNL     1      20.364  -2.355   9.254  0.00  0.00    +0.000 A 
ATOM      4  C   UNL     1      19.158  -1.947   9.822  0.00  0.00    +0.000 A 
ATOM      5  C   UNL     1      19.698  -0.458   8.217  0.00  0.00    +0.000 A 
ATOM      6  C   UNL     1      20.969  -3.526   9.752  0.00  0.00    +0.000 A 
ATOM      7  C   UNL     1      18.523  -2.641  10.857  0.00  0.00    +0.000 A 
ATOM      8  C   UNL     1      20.353  -4.236  10.784  0.00  0.00    +0.000 A 
ATOM      9  C   UNL     1      19.150  -3.797  11.324  0.00  0.00    +0.000 A 
ATOM     10  H   UNL     1      17.944  -0.267   9.366  0.00  0.00    +0.000 HD
ENDROOT
BRANCH   2  11
ATOM     11  C   UNL     1      21.881  -1.436   7.383  0.00  0.00    +0.000 C 
ATOM     12  N   UNL     1      22.945  -0.716   7.631  0.00  0.00    +0.000 NA
ATOM     13  C   UNL     1      23.867  -1.002   6.604  0.00  0.00    +0.000 A 
ATOM     14  C   UNL     1      23.404  -1.923   5.668  0.00  0.00    +0.000 A 
ATOM     15  C   UNL     1      25.134  -0.466   6.462  0.00  0.00    +0.000 A 
ATOM     16  C   UNL     1      22.071  -2.267   6.118  0.00  0.00    +0.000 C 
ATOM     17  C   UNL     1      24.131  -2.354   4.579  0.00  0.00    +0.000 A 
ATOM     18  O   UNL     1      21.270  -3.030   5.629  0.00  0.00    +0.000 OA
ATOM     19  C   UNL     1      25.407  -1.810   4.440  0.00  0.00    +0.000 A 
ATOM     20  C   UNL     1      25.903  -0.878   5.368  0.00  0.00    +0.000 A 
ENDBRANCH   2  11
BRANCH   5  21
ATOM     21  O   UNL     1      19.462   0.638   7.505  0.00  0.00    +0.000 OA
ATOM     22  H   UNL     1      20.157   0.751   6.817  0.00  0.00    +0.000 HD
ENDBRANCH   5  21
TORSDOF 2
ENDMDL
MODEL 9
REMARK VINA RESULT:      -5.6      4.599      6.112
REMARK  Name = CHEMBL35349.pdbqt.pdb
REMARK  2 active torsions:
REMARK  status: ('A' for Active; 'I' for Inactive)
REMARK    1  A    between atoms: C_2  and  C_11
REMARK    2  A    between atoms: C_5  and  O_21
REMARK                            x       y       z     vdW  Elec       q    Type
REMARK                         _______ _______ _______ _____ _____    ______ ____
ROOT
ATOM      1  N   UNL     1      43.185  -1.277   7.794  0.00  0.00    +0.000 N 
ATOM      2  C   UNL     1      41.833  -0.842   9.517  0.00  0.00    +0.000 A 
ATOM      3  C   UNL     1      42.885  -1.723   9.949  0.00  0.00    +0.000 A 
ATOM      4  C   UNL     1      43.708  -1.974   8.853  0.00  0.00    +0.000 A 
ATOM      5  C   UNL     1      42.061  -0.593   8.171  0.00  0.00    +0.000 A 
ATOM      6  C   UNL     1      43.212  -2.332  11.177  0.00  0.00    +0.000 A 
ATOM      7  C   UNL     1      44.837  -2.797   8.913  0.00  0.00    +0.000 A 
ATOM      8  C   UNL     1      44.335  -3.157  11.261  0.00  0.00    +0.000 A 
ATOM      9  C   UNL     1      45.132  -3.383  10.145  0.00  0.00    +0.000 A 
ATOM     10  H   UNL     1      43.565  -1.262   6.859  0.00  0.00    +0.000 HD
ENDROOT
BRANCH   2  11
ATOM     11  C   UNL     1      40.754  -0.321  10.324  0.00  0.00    +0.000 C 
ATOM     12  N   UNL     1      40.913   0.690  11.140  0.00  0.00    +0.000 NA
ATOM     13  C   UNL     1      39.660   0.912  11.747  0.00  0.00    +0.000 A 
ATOM     14  C   UNL     1      38.664   0.036  11.326  0.00  0.00    +0.000 A 
ATOM     15  C   UNL     1      39.359   1.885  12.683  0.00  0.00    +0.000 A 
ATOM     16  C   UNL     1      39.316  -0.830  10.365  0.00  0.00    +0.000 C 
ATOM     17  C   UNL     1      37.364   0.064  11.781  0.00  0.00    +0.000 A 
ATOM     18  O   UNL     1      38.859  -1.749   9.727  0.00  0.00    +0.000 OA
ATOM     19  C   UNL     1      37.065   1.045  12.724  0.00  0.00    +0.000 A 
ATOM     20  C   UNL     1      38.049   1.945  13.171  0.00  0.00    +0.000 A 
ENDBRANCH   2  11
BRANCH   5  21
ATOM     21  O   UNL     1      41.443   0.131   7.245  0.00  0.00    +0.000 OA
ATOM     22  H   UNL     1      42.074   0.766   6.835  0.00  0.00    +0.000 HD
ENDBRANCH   5  21
TORSDOF 2
ENDMDL
