MODEL 1
REMARK VINA RESULT:      -7.6      0.000      0.000
REMARK  Name = Chlortetracycline.pdbqt.pdb
REMARK  7 active torsions:
REMARK  status: ('A' for Active; 'I' for Inactive)
REMARK    1  A    between atoms: C_7  and  O_30
REMARK    2  A    between atoms: C_8  and  N_32
REMARK    3  A    between atoms: C_9  and  O_37
REMARK    4  A    between atoms: C_12  and  O_28
REMARK    5  A    between atoms: C_15  and  O_35
REMARK    6  A    between atoms: C_16  and  C_23
REMARK    7  A    between atoms: C_20  and  O_39
REMARK                            x       y       z     vdW  Elec       q    Type
REMARK                         _______ _______ _______ _____ _____    ______ ____
ROOT
ATOM      1 CL   UNL     1      17.015  16.279  12.552  0.00  0.00    +0.000 Cl
ATOM      2  O   UNL     1      21.883  10.436  14.413  0.00  0.00    +0.000 OA
ATOM      3  O   UNL     1      18.610  11.841  19.443  0.00  0.00    +0.000 OA
ATOM      4  C   UNL     1      21.037  12.783  17.188  0.00  0.00    +0.000 C 
ATOM      5  C   UNL     1      19.797  13.392  14.939  0.00  0.00    +0.000 C 
ATOM      6  C   UNL     1      20.285  13.526  16.255  0.00  0.00    +0.000 C 
ATOM      7  C   UNL     1      21.546  11.478  16.623  0.00  0.00    +0.000 C 
ATOM      8  C   UNL     1      20.623  12.758  18.580  0.00  0.00    +0.000 C 
ATOM      9  C   UNL     1      19.117  14.442  14.106  0.00  0.00    +0.000 C 
ATOM     10  C   UNL     1      20.222  12.146  14.338  0.00  0.00    +0.000 C 
ATOM     11  C   UNL     1      21.262  11.293  15.057  0.00  0.00    +0.000 C 
ATOM     12  C   UNL     1      20.974  10.250  17.337  0.00  0.00    +0.000 C 
ATOM     13  C   UNL     1      18.380  13.880  12.900  0.00  0.00    +0.000 A 
ATOM     14  C   UNL     1      19.689  11.643  18.902  0.00  0.00    +0.000 C 
ATOM     15  C   UNL     1      19.732  11.761  13.145  0.00  0.00    +0.000 C 
ATOM     16  C   UNL     1      20.101  10.306  18.370  0.00  0.00    +0.000 C 
ATOM     17  C   UNL     1      18.666  12.553  12.456  0.00  0.00    +0.000 A 
ATOM     18  C   UNL     1      20.172  15.487  13.689  0.00  0.00    +0.000 C 
ATOM     19  C   UNL     1      17.418  14.637  12.190  0.00  0.00    +0.000 A 
ATOM     20  C   UNL     1      17.920  12.033  11.374  0.00  0.00    +0.000 A 
ATOM     21  C   UNL     1      16.729  14.099  11.106  0.00  0.00    +0.000 A 
ATOM     22  C   UNL     1      16.966  12.798  10.708  0.00  0.00    +0.000 A 
ENDROOT
BRANCH  16  23
ATOM     23  C   UNL     1      19.606   9.090  19.076  0.00  0.00    +0.000 C 
ATOM     24  O   UNL     1      20.347   8.163  19.373  0.00  0.00    +0.000 OA
ATOM     25  N   UNL     1      18.277   9.042  19.364  0.00  0.00    +0.000 N 
ATOM     26  H   UNL     1      17.629   9.655  18.881  0.00  0.00    +0.000 HD
ATOM     27  H   UNL     1      17.922   8.170  19.734  0.00  0.00    +0.000 HD
ENDBRANCH  16  23
BRANCH   8  28
ATOM     28  N   UNL     1      21.451  13.303  19.622  0.00  0.00    +0.000 NA
ATOM     29  C   UNL     1      22.171  14.508  19.238  0.00  0.00    +0.000 C 
ATOM     30  C   UNL     1      20.738  13.580  20.852  0.00  0.00    +0.000 C 
ENDBRANCH   8  28
BRANCH  12  31
ATOM     31  O   UNL     1      21.477   9.021  16.899  0.00  0.00    +0.000 OA
ATOM     32  H   UNL     1      22.144   8.709  17.554  0.00  0.00    +0.000 HD
ENDBRANCH  12  31
BRANCH   7  33
ATOM     33  O   UNL     1      22.953  11.412  16.859  0.00  0.00    +0.000 OA
ATOM     34  H   UNL     1      23.224  12.232  17.311  0.00  0.00    +0.000 HD
ENDBRANCH   7  33
BRANCH  15  35
ATOM     35  O   UNL     1      20.182  10.644  12.474  0.00  0.00    +0.000 OA
ATOM     36  H   UNL     1      20.969  10.864  11.933  0.00  0.00    +0.000 HD
ENDBRANCH  15  35
BRANCH   9  37
ATOM     37  O   UNL     1      18.217  15.105  14.972  0.00  0.00    +0.000 OA
ATOM     38  H   UNL     1      17.618  14.376  15.217  0.00  0.00    +0.000 HD
ENDBRANCH   9  37
BRANCH  20  39
ATOM     39  O   UNL     1      18.067  10.737  10.961  0.00  0.00    +0.000 OA
ATOM     40  H   UNL     1      18.502  10.722  10.091  0.00  0.00    +0.000 HD
ENDBRANCH  20  39
TORSDOF 7
ENDMDL
MODEL 2
REMARK VINA RESULT:      -7.1     29.903     31.823
REMARK  Name = Chlortetracycline.pdbqt.pdb
REMARK  7 active torsions:
REMARK  status: ('A' for Active; 'I' for Inactive)
REMARK    1  A    between atoms: C_7  and  O_30
REMARK    2  A    between atoms: C_8  and  N_32
REMARK    3  A    between atoms: C_9  and  O_37
REMARK    4  A    between atoms: C_12  and  O_28
REMARK    5  A    between atoms: C_15  and  O_35
REMARK    6  A    between atoms: C_16  and  C_23
REMARK    7  A    between atoms: C_20  and  O_39
REMARK                            x       y       z     vdW  Elec       q    Type
REMARK                         _______ _______ _______ _____ _____    ______ ____
ROOT
ATOM      1 CL   UNL     1      45.751   0.244   7.256  0.00  0.00    +0.000 Cl
ATOM      2  O   UNL     1      44.134  -5.077  12.768  0.00  0.00    +0.000 OA
ATOM      3  O   UNL     1      50.256  -4.859  12.092  0.00  0.00    +0.000 OA
ATOM      4  C   UNL     1      47.205  -5.721  10.748  0.00  0.00    +0.000 C 
ATOM      5  C   UNL     1      46.005  -3.471  10.068  0.00  0.00    +0.000 C 
ATOM      6  C   UNL     1      46.887  -4.568  10.000  0.00  0.00    +0.000 C 
ATOM      7  C   UNL     1      46.308  -5.905  11.949  0.00  0.00    +0.000 C 
ATOM      8  C   UNL     1      48.597  -6.094  10.927  0.00  0.00    +0.000 C 
ATOM      9  C   UNL     1      45.772  -2.421   9.018  0.00  0.00    +0.000 C 
ATOM     10  C   UNL     1      45.128  -3.562  11.215  0.00  0.00    +0.000 C 
ATOM     11  C   UNL     1      45.103  -4.853  12.028  0.00  0.00    +0.000 C 
ATOM     12  C   UNL     1      47.063  -5.832  13.280  0.00  0.00    +0.000 C 
ATOM     13  C   UNL     1      45.059  -1.183   9.541  0.00  0.00    +0.000 A 
ATOM     14  C   UNL     1      49.219  -5.503  12.145  0.00  0.00    +0.000 C 
ATOM     15  C   UNL     1      44.320  -2.536  11.542  0.00  0.00    +0.000 C 
ATOM     16  C   UNL     1      48.396  -5.624  13.390  0.00  0.00    +0.000 C 
ATOM     17  C   UNL     1      44.378  -1.241  10.795  0.00  0.00    +0.000 A 
ATOM     18  C   UNL     1      44.999  -3.068   7.850  0.00  0.00    +0.000 C 
ATOM     19  C   UNL     1      45.041   0.033   8.818  0.00  0.00    +0.000 A 
ATOM     20  C   UNL     1      43.781  -0.059  11.288  0.00  0.00    +0.000 A 
ATOM     21  C   UNL     1      44.411   1.167   9.323  0.00  0.00    +0.000 A 
ATOM     22  C   UNL     1      43.796   1.128  10.560  0.00  0.00    +0.000 A 
ENDROOT
BRANCH  16  23
ATOM     23  C   UNL     1      49.106  -5.610  14.701  0.00  0.00    +0.000 C 
ATOM     24  O   UNL     1      48.732  -4.914  15.635  0.00  0.00    +0.000 OA
ATOM     25  N   UNL     1      50.210  -6.397  14.814  0.00  0.00    +0.000 N 
ATOM     26  H   UNL     1      50.676  -6.743  13.982  0.00  0.00    +0.000 HD
ATOM     27  H   UNL     1      50.757  -6.297  15.658  0.00  0.00    +0.000 HD
ENDBRANCH  16  23
BRANCH   8  28
ATOM     28  N   UNL     1      49.121  -7.325  10.398  0.00  0.00    +0.000 NA
ATOM     29  C   UNL     1      49.921  -7.160   9.193  0.00  0.00    +0.000 C 
ATOM     30  C   UNL     1      49.901  -8.087  11.352  0.00  0.00    +0.000 C 
ENDBRANCH   8  28
BRANCH  12  31
ATOM     31  O   UNL     1      46.286  -6.075  14.417  0.00  0.00    +0.000 OA
ATOM     32  H   UNL     1      46.891  -6.193  15.185  0.00  0.00    +0.000 HD
ENDBRANCH  12  31
BRANCH   7  33
ATOM     33  O   UNL     1      45.777  -7.231  11.907  0.00  0.00    +0.000 OA
ATOM     34  H   UNL     1      45.930  -7.646  12.776  0.00  0.00    +0.000 HD
ENDBRANCH   7  33
BRANCH  15  35
ATOM     35  O   UNL     1      43.387  -2.608  12.554  0.00  0.00    +0.000 OA
ATOM     36  H   UNL     1      43.519  -1.877  13.193  0.00  0.00    +0.000 HD
ENDBRANCH  15  35
BRANCH   9  37
ATOM     37  O   UNL     1      47.049  -2.082   8.515  0.00  0.00    +0.000 OA
ATOM     38  H   UNL     1      46.813  -1.460   7.802  0.00  0.00    +0.000 HD
ENDBRANCH   9  37
BRANCH  20  39
ATOM     39  O   UNL     1      43.200  -0.013  12.526  0.00  0.00    +0.000 OA
ATOM     40  H   UNL     1      43.872   0.214  13.192  0.00  0.00    +0.000 HD
ENDBRANCH  20  39
TORSDOF 7
ENDMDL
MODEL 3
REMARK VINA RESULT:      -6.9     37.071     40.124
REMARK  Name = Chlortetracycline.pdbqt.pdb
REMARK  7 active torsions:
REMARK  status: ('A' for Active; 'I' for Inactive)
REMARK    1  A    between atoms: C_7  and  O_30
REMARK    2  A    between atoms: C_8  and  N_32
REMARK    3  A    between atoms: C_9  and  O_37
REMARK    4  A    between atoms: C_12  and  O_28
REMARK    5  A    between atoms: C_15  and  O_35
REMARK    6  A    between atoms: C_16  and  C_23
REMARK    7  A    between atoms: C_20  and  O_39
REMARK                            x       y       z     vdW  Elec       q    Type
REMARK                         _______ _______ _______ _____ _____    ______ ____
ROOT
ATOM      1 CL   UNL     1      50.409   0.690  38.462  0.00  0.00    +0.000 Cl
ATOM      2  O   UNL     1      48.232  -6.073  35.173  0.00  0.00    +0.000 OA
ATOM      3  O   UNL     1      53.286  -4.094  32.252  0.00  0.00    +0.000 OA
ATOM      4  C   UNL     1      49.935  -3.646  32.907  0.00  0.00    +0.000 C 
ATOM      5  C   UNL     1      49.751  -2.754  35.383  0.00  0.00    +0.000 C 
ATOM      6  C   UNL     1      49.975  -2.746  33.992  0.00  0.00    +0.000 C 
ATOM      7  C   UNL     1      49.446  -5.019  33.302  0.00  0.00    +0.000 C 
ATOM      8  C   UNL     1      50.989  -3.606  31.908  0.00  0.00    +0.000 C 
ATOM      9  C   UNL     1      49.727  -1.571  36.311  0.00  0.00    +0.000 C 
ATOM     10  C   UNL     1      49.306  -4.051  35.845  0.00  0.00    +0.000 C 
ATOM     11  C   UNL     1      48.934  -5.116  34.817  0.00  0.00    +0.000 C 
ATOM     12  C   UNL     1      50.502  -6.112  33.109  0.00  0.00    +0.000 C 
ATOM     13  C   UNL     1      49.844  -1.947  37.780  0.00  0.00    +0.000 A 
ATOM     14  C   UNL     1      52.135  -4.505  32.217  0.00  0.00    +0.000 C 
ATOM     15  C   UNL     1      49.189  -4.306  37.161  0.00  0.00    +0.000 C 
ATOM     16  C   UNL     1      51.751  -5.891  32.635  0.00  0.00    +0.000 C 
ATOM     17  C   UNL     1      49.609  -3.297  38.183  0.00  0.00    +0.000 A 
ATOM     18  C   UNL     1      48.443  -0.764  36.032  0.00  0.00    +0.000 C 
ATOM     19  C   UNL     1      50.171  -0.994  38.774  0.00  0.00    +0.000 A 
ATOM     20  C   UNL     1      49.788  -3.631  39.543  0.00  0.00    +0.000 A 
ATOM     21  C   UNL     1      50.305  -1.357  40.111  0.00  0.00    +0.000 A 
ATOM     22  C   UNL     1      50.129  -2.673  40.494  0.00  0.00    +0.000 A 
ENDROOT
BRANCH  16  23
ATOM     23  C   UNL     1      52.736  -6.986  32.411  0.00  0.00    +0.000 C 
ATOM     24  O   UNL     1      52.506  -7.924  31.659  0.00  0.00    +0.000 OA
ATOM     25  N   UNL     1      53.908  -6.913  33.097  0.00  0.00    +0.000 N 
ATOM     26  H   UNL     1      53.985  -6.313  33.912  0.00  0.00    +0.000 HD
ATOM     27  H   UNL     1      54.523  -7.713  33.037  0.00  0.00    +0.000 HD
ENDBRANCH  16  23
BRANCH   8  28
ATOM     28  N   UNL     1      50.715  -3.264  30.537  0.00  0.00    +0.000 NA
ATOM     29  C   UNL     1      49.309  -3.015  30.258  0.00  0.00    +0.000 C 
ATOM     30  C   UNL     1      51.476  -2.130  30.054  0.00  0.00    +0.000 C 
ENDBRANCH   8  28
BRANCH  12  31
ATOM     31  O   UNL     1      50.070  -7.411  33.389  0.00  0.00    +0.000 OA
ATOM     32  H   UNL     1      49.192  -7.544  32.963  0.00  0.00    +0.000 HD
ENDBRANCH  12  31
BRANCH   7  33
ATOM     33  O   UNL     1      48.384  -5.384  32.419  0.00  0.00    +0.000 OA
ATOM     34  H   UNL     1      47.542  -5.284  32.901  0.00  0.00    +0.000 HD
ENDBRANCH   7  33
BRANCH  15  35
ATOM     35  O   UNL     1      48.665  -5.482  37.655  0.00  0.00    +0.000 OA
ATOM     36  H   UNL     1      48.341  -5.353  38.571  0.00  0.00    +0.000 HD
ENDBRANCH  15  35
BRANCH   9  37
ATOM     37  O   UNL     1      50.809  -0.749  35.922  0.00  0.00    +0.000 OA
ATOM     38  H   UNL     1      50.607  -0.602  34.980  0.00  0.00    +0.000 HD
ENDBRANCH   9  37
BRANCH  20  39
ATOM     39  O   UNL     1      49.681  -4.922  39.984  0.00  0.00    +0.000 OA
ATOM     40  H   UNL     1      50.218  -5.037  40.786  0.00  0.00    +0.000 HD
ENDBRANCH  20  39
TORSDOF 7
ENDMDL
MODEL 4
REMARK VINA RESULT:      -6.8     40.567     42.061
REMARK  Name = Chlortetracycline.pdbqt.pdb
REMARK  7 active torsions:
REMARK  status: ('A' for Active; 'I' for Inactive)
REMARK    1  A    between atoms: C_7  and  O_30
REMARK    2  A    between atoms: C_8  and  N_32
REMARK    3  A    between atoms: C_9  and  O_37
REMARK    4  A    between atoms: C_12  and  O_28
REMARK    5  A    between atoms: C_15  and  O_35
REMARK    6  A    between atoms: C_16  and  C_23
REMARK    7  A    between atoms: C_20  and  O_39
REMARK                            x       y       z     vdW  Elec       q    Type
REMARK                         _______ _______ _______ _____ _____    ______ ____
ROOT
ATOM      1 CL   UNL     1      50.091   1.727  39.626  0.00  0.00    +0.000 Cl
ATOM      2  O   UNL     1      49.019  -3.594  45.269  0.00  0.00    +0.000 OA
ATOM      3  O   UNL     1      43.810  -0.346  44.723  0.00  0.00    +0.000 OA
ATOM      4  C   UNL     1      47.121  -0.406  45.669  0.00  0.00    +0.000 C 
ATOM      5  C   UNL     1      48.550  -0.457  43.451  0.00  0.00    +0.000 C 
ATOM      6  C   UNL     1      47.759   0.056  44.499  0.00  0.00    +0.000 C 
ATOM      7  C   UNL     1      47.400  -1.863  45.952  0.00  0.00    +0.000 C 
ATOM      8  C   UNL     1      45.781   0.060  45.982  0.00  0.00    +0.000 C 
ATOM      9  C   UNL     1      49.242   0.320  42.366  0.00  0.00    +0.000 C 
ATOM     10  C   UNL     1      48.837  -1.863  43.638  0.00  0.00    +0.000 C 
ATOM     11  C   UNL     1      48.475  -2.523  44.965  0.00  0.00    +0.000 C 
ATOM     12  C   UNL     1      46.143  -2.737  45.904  0.00  0.00    +0.000 C 
ATOM     13  C   UNL     1      49.684  -0.538  41.190  0.00  0.00    +0.000 A 
ATOM     14  C   UNL     1      44.705  -0.803  45.419  0.00  0.00    +0.000 C 
ATOM     15  C   UNL     1      49.445  -2.571  42.668  0.00  0.00    +0.000 C 
ATOM     16  C   UNL     1      44.900  -2.271  45.637  0.00  0.00    +0.000 C 
ATOM     17  C   UNL     1      49.750  -1.957  41.339  0.00  0.00    +0.000 A 
ATOM     18  C   UNL     1      50.430   1.076  42.995  0.00  0.00    +0.000 C 
ATOM     19  C   UNL     1      50.044   0.028  39.944  0.00  0.00    +0.000 A 
ATOM     20  C   UNL     1      50.100  -2.733  40.212  0.00  0.00    +0.000 A 
ATOM     21  C   UNL     1      50.418  -0.771  38.866  0.00  0.00    +0.000 A 
ATOM     22  C   UNL     1      50.432  -2.147  38.993  0.00  0.00    +0.000 A 
ENDROOT
BRANCH  16  23
ATOM     23  C   UNL     1      43.691  -3.142  45.650  0.00  0.00    +0.000 C 
ATOM     24  O   UNL     1      43.735  -4.320  45.318  0.00  0.00    +0.000 OA
ATOM     25  N   UNL     1      42.519  -2.567  46.031  0.00  0.00    +0.000 N 
ATOM     26  H   UNL     1      42.423  -1.557  46.029  0.00  0.00    +0.000 HD
ATOM     27  H   UNL     1      41.682  -3.124  45.925  0.00  0.00    +0.000 HD
ENDBRANCH  16  23
BRANCH   8  28
ATOM     28  N   UNL     1      45.511   0.840  47.160  0.00  0.00    +0.000 NA
ATOM     29  C   UNL     1      45.011   2.179  46.883  0.00  0.00    +0.000 C 
ATOM     30  C   UNL     1      44.597   0.204  48.087  0.00  0.00    +0.000 C 
ENDBRANCH   8  28
BRANCH  12  31
ATOM     31  O   UNL     1      46.341  -4.080  46.237  0.00  0.00    +0.000 OA
ATOM     32  H   UNL     1      47.259  -4.330  45.984  0.00  0.00    +0.000 HD
ENDBRANCH  12  31
BRANCH   7  33
ATOM     33  O   UNL     1      47.865  -1.972  47.299  0.00  0.00    +0.000 OA
ATOM     34  H   UNL     1      47.091  -1.929  47.891  0.00  0.00    +0.000 HD
ENDBRANCH   7  33
BRANCH  15  35
ATOM     35  O   UNL     1      49.843  -3.881  42.833  0.00  0.00    +0.000 OA
ATOM     36  H   UNL     1      49.401  -4.457  42.174  0.00  0.00    +0.000 HD
ENDBRANCH  15  35
BRANCH   9  37
ATOM     37  O   UNL     1      48.320   1.305  41.943  0.00  0.00    +0.000 OA
ATOM     38  H   UNL     1      48.030   0.938  41.087  0.00  0.00    +0.000 HD
ENDBRANCH   9  37
BRANCH  20  39
ATOM     39  O   UNL     1      50.085  -4.101  40.252  0.00  0.00    +0.000 OA
ATOM     40  H   UNL     1      49.381  -4.434  39.669  0.00  0.00    +0.000 HD
ENDBRANCH  20  39
TORSDOF 7
ENDMDL
MODEL 5
REMARK VINA RESULT:      -6.7     41.352     43.760
REMARK  Name = Chlortetracycline.pdbqt.pdb
REMARK  7 active torsions:
REMARK  status: ('A' for Active; 'I' for Inactive)
REMARK    1  A    between atoms: C_7  and  O_30
REMARK    2  A    between atoms: C_8  and  N_32
REMARK    3  A    between atoms: C_9  and  O_37
REMARK    4  A    between atoms: C_12  and  O_28
REMARK    5  A    between atoms: C_15  and  O_35
REMARK    6  A    between atoms: C_16  and  C_23
REMARK    7  A    between atoms: C_20  and  O_39
REMARK                            x       y       z     vdW  Elec       q    Type
REMARK                         _______ _______ _______ _____ _____    ______ ____
ROOT
ATOM      1 CL   UNL     1      52.734 -15.904  18.394  0.00  0.00    +0.000 Cl
ATOM      2  O   UNL     1      48.554 -20.287  13.432  0.00  0.00    +0.000 OA
ATOM      3  O   UNL     1      47.064 -21.985  19.166  0.00  0.00    +0.000 OA
ATOM      4  C   UNL     1      49.439 -21.910  16.673  0.00  0.00    +0.000 C 
ATOM      5  C   UNL     1      50.310 -19.424  16.521  0.00  0.00    +0.000 C 
ATOM      6  C   UNL     1      50.156 -20.740  16.999  0.00  0.00    +0.000 C 
ATOM      7  C   UNL     1      48.638 -21.770  15.401  0.00  0.00    +0.000 C 
ATOM      8  C   UNL     1      48.822 -22.687  17.734  0.00  0.00    +0.000 C 
ATOM      9  C   UNL     1      51.289 -18.387  16.997  0.00  0.00    +0.000 C 
ATOM     10  C   UNL     1      49.545 -19.203  15.312  0.00  0.00    +0.000 C 
ATOM     11  C   UNL     1      48.895 -20.397  14.618  0.00  0.00    +0.000 C 
ATOM     12  C   UNL     1      47.127 -21.889  15.625  0.00  0.00    +0.000 C 
ATOM     13  C   UNL     1      50.946 -16.974  16.551  0.00  0.00    +0.000 A 
ATOM     14  C   UNL     1      47.422 -22.277  18.035  0.00  0.00    +0.000 C 
ATOM     15  C   UNL     1      49.436 -17.968  14.788  0.00  0.00    +0.000 C 
ATOM     16  C   UNL     1      46.549 -22.098  16.831  0.00  0.00    +0.000 C 
ATOM     17  C   UNL     1      50.012 -16.779  15.488  0.00  0.00    +0.000 A 
ATOM     18  C   UNL     1      52.699 -18.803  16.529  0.00  0.00    +0.000 C 
ATOM     19  C   UNL     1      51.533 -15.835  17.152  0.00  0.00    +0.000 A 
ATOM     20  C   UNL     1      49.663 -15.455  15.139  0.00  0.00    +0.000 A 
ATOM     21  C   UNL     1      51.187 -14.547  16.755  0.00  0.00    +0.000 A 
ATOM     22  C   UNL     1      50.245 -14.355  15.763  0.00  0.00    +0.000 A 
ENDROOT
BRANCH  16  23
ATOM     23  C   UNL     1      45.078 -22.260  17.005  0.00  0.00    +0.000 C 
ATOM     24  O   UNL     1      44.271 -21.614  16.350  0.00  0.00    +0.000 OA
ATOM     25  N   UNL     1      44.661 -23.152  17.943  0.00  0.00    +0.000 N 
ATOM     26  H   UNL     1      45.300 -23.468  18.665  0.00  0.00    +0.000 HD
ATOM     27  H   UNL     1      43.670 -23.175  18.143  0.00  0.00    +0.000 HD
ENDBRANCH  16  23
BRANCH   8  28
ATOM     28  N   UNL     1      49.234 -24.036  18.017  0.00  0.00    +0.000 NA
ATOM     29  C   UNL     1      49.723 -24.235  19.374  0.00  0.00    +0.000 C 
ATOM     30  C   UNL     1      48.209 -25.028  17.762  0.00  0.00    +0.000 C 
ENDBRANCH   8  28
BRANCH  12  31
ATOM     31  O   UNL     1      46.350 -21.844  14.464  0.00  0.00    +0.000 OA
ATOM     32  H   UNL     1      46.029 -22.755  14.270  0.00  0.00    +0.000 HD
ENDBRANCH  12  31
BRANCH   7  33
ATOM     33  O   UNL     1      48.964 -22.869  14.548  0.00  0.00    +0.000 OA
ATOM     34  H   UNL     1      49.884 -22.755  14.246  0.00  0.00    +0.000 HD
ENDBRANCH   7  33
BRANCH  15  35
ATOM     35  O   UNL     1      48.816 -17.717  13.582  0.00  0.00    +0.000 OA
ATOM     36  H   UNL     1      48.172 -18.426  13.375  0.00  0.00    +0.000 HD
ENDBRANCH  15  35
BRANCH   9  37
ATOM     37  O   UNL     1      51.294 -18.475  18.408  0.00  0.00    +0.000 OA
ATOM     38  H   UNL     1      52.051 -17.902  18.631  0.00  0.00    +0.000 HD
ENDBRANCH   9  37
BRANCH  20  39
ATOM     39  O   UNL     1      48.701 -15.192  14.202  0.00  0.00    +0.000 OA
ATOM     40  H   UNL     1      48.551 -15.986  13.659  0.00  0.00    +0.000 HD
ENDBRANCH  20  39
TORSDOF 7
ENDMDL
MODEL 6
REMARK VINA RESULT:      -6.6     34.247     36.945
REMARK  Name = Chlortetracycline.pdbqt.pdb
REMARK  7 active torsions:
REMARK  status: ('A' for Active; 'I' for Inactive)
REMARK    1  A    between atoms: C_7  and  O_30
REMARK    2  A    between atoms: C_8  and  N_32
REMARK    3  A    between atoms: C_9  and  O_37
REMARK    4  A    between atoms: C_12  and  O_28
REMARK    5  A    between atoms: C_15  and  O_35
REMARK    6  A    between atoms: C_16  and  C_23
REMARK    7  A    between atoms: C_20  and  O_39
REMARK                            x       y       z     vdW  Elec       q    Type
REMARK                         _______ _______ _______ _____ _____    ______ ____
ROOT
ATOM      1 CL   UNL     1      51.128   5.166  34.346  0.00  0.00    +0.000 Cl
ATOM      2  O   UNL     1      51.300   0.026  28.443  0.00  0.00    +0.000 OA
ATOM      3  O   UNL     1      49.105  -2.881  33.414  0.00  0.00    +0.000 OA
ATOM      4  C   UNL     1      51.797  -1.408  31.852  0.00  0.00    +0.000 C 
ATOM      5  C   UNL     1      51.381   1.198  31.906  0.00  0.00    +0.000 C 
ATOM      6  C   UNL     1      51.732  -0.091  32.354  0.00  0.00    +0.000 C 
ATOM      7  C   UNL     1      51.464  -1.490  30.381  0.00  0.00    +0.000 C 
ATOM      8  C   UNL     1      51.330  -2.509  32.675  0.00  0.00    +0.000 C 
ATOM      9  C   UNL     1      51.549   2.498  32.641  0.00  0.00    +0.000 C 
ATOM     10  C   UNL     1      51.020   1.195  30.504  0.00  0.00    +0.000 C 
ATOM     11  C   UNL     1      51.266  -0.065  29.678  0.00  0.00    +0.000 C 
ATOM     12  C   UNL     1      50.207  -2.317  30.094  0.00  0.00    +0.000 C 
ATOM     13  C   UNL     1      50.733   3.640  32.055  0.00  0.00    +0.000 A 
ATOM     14  C   UNL     1      49.889  -2.829  32.477  0.00  0.00    +0.000 C 
ATOM     15  C   UNL     1      50.506   2.297  29.928  0.00  0.00    +0.000 C 
ATOM     16  C   UNL     1      49.457  -2.919  31.046  0.00  0.00    +0.000 C 
ATOM     17  C   UNL     1      50.199   3.518  30.735  0.00  0.00    +0.000 A 
ATOM     18  C   UNL     1      53.053   2.839  32.684  0.00  0.00    +0.000 C 
ATOM     19  C   UNL     1      50.490   4.834  32.774  0.00  0.00    +0.000 A 
ATOM     20  C   UNL     1      49.391   4.566  30.241  0.00  0.00    +0.000 A 
ATOM     21  C   UNL     1      49.716   5.859  32.237  0.00  0.00    +0.000 A 
ATOM     22  C   UNL     1      49.155   5.721  30.982  0.00  0.00    +0.000 A 
ENDROOT
BRANCH  16  23
ATOM     23  C   UNL     1      48.268  -3.759  30.727  0.00  0.00    +0.000 C 
ATOM     24  O   UNL     1      47.342  -3.342  30.043  0.00  0.00    +0.000 OA
ATOM     25  N   UNL     1      48.242  -5.017  31.245  0.00  0.00    +0.000 N 
ATOM     26  H   UNL     1      48.847  -5.260  32.022  0.00  0.00    +0.000 HD
ATOM     27  H   UNL     1      47.386  -5.541  31.128  0.00  0.00    +0.000 HD
ENDBRANCH  16  23
BRANCH   8  28
ATOM     28  N   UNL     1      52.222  -3.542  33.128  0.00  0.00    +0.000 NA
ATOM     29  C   UNL     1      52.094  -4.797  32.401  0.00  0.00    +0.000 C 
ATOM     30  C   UNL     1      53.619  -3.158  33.116  0.00  0.00    +0.000 C 
ENDBRANCH   8  28
BRANCH  12  31
ATOM     31  O   UNL     1      49.904  -2.486  28.740  0.00  0.00    +0.000 OA
ATOM     32  H   UNL     1      49.470  -3.363  28.627  0.00  0.00    +0.000 HD
ENDBRANCH  12  31
BRANCH   7  33
ATOM     33  O   UNL     1      52.519  -2.198  29.727  0.00  0.00    +0.000 OA
ATOM     34  H   UNL     1      53.201  -2.408  30.391  0.00  0.00    +0.000 HD
ENDBRANCH   7  33
BRANCH  15  35
ATOM     35  O   UNL     1      50.249   2.387  28.576  0.00  0.00    +0.000 OA
ATOM     36  H   UNL     1      49.437   1.886  28.349  0.00  0.00    +0.000 HD
ENDBRANCH  15  35
BRANCH   9  37
ATOM     37  O   UNL     1      51.158   2.243  33.976  0.00  0.00    +0.000 OA
ATOM     38  H   UNL     1      50.242   2.578  33.972  0.00  0.00    +0.000 HD
ENDBRANCH   9  37
BRANCH  20  39
ATOM     39  O   UNL     1      48.763   4.475  29.029  0.00  0.00    +0.000 OA
ATOM     40  H   UNL     1      48.813   3.559  28.706  0.00  0.00    +0.000 HD
ENDBRANCH  20  39
TORSDOF 7
ENDMDL
MODEL 7
REMARK VINA RESULT:      -6.4     28.297     32.443
REMARK  Name = Chlortetracycline.pdbqt.pdb
REMARK  7 active torsions:
REMARK  status: ('A' for Active; 'I' for Inactive)
REMARK    1  A    between atoms: C_7  and  O_30
REMARK    2  A    between atoms: C_8  and  N_32
REMARK    3  A    between atoms: C_9  and  O_37
REMARK    4  A    between atoms: C_12  and  O_28
REMARK    5  A    between atoms: C_15  and  O_35
REMARK    6  A    between atoms: C_16  and  C_23
REMARK    7  A    between atoms: C_20  and  O_39
REMARK                            x       y       z     vdW  Elec       q    Type
REMARK                         _______ _______ _______ _____ _____    ______ ____
ROOT
ATOM      1 CL   UNL     1      17.580 -10.143  45.345  0.00  0.00    +0.000 Cl
ATOM      2  O   UNL     1      18.716  -7.371  38.111  0.00  0.00    +0.000 OA
ATOM      3  O   UNL     1      13.778  -4.534  40.466  0.00  0.00    +0.000 OA
ATOM      4  C   UNL     1      15.172  -7.449  39.276  0.00  0.00    +0.000 C 
ATOM      5  C   UNL     1      16.857  -8.300  41.120  0.00  0.00    +0.000 C 
ATOM      6  C   UNL     1      15.634  -8.049  40.466  0.00  0.00    +0.000 C 
ATOM      7  C   UNL     1      16.295  -6.985  38.379  0.00  0.00    +0.000 C 
ATOM      8  C   UNL     1      13.995  -6.599  39.317  0.00  0.00    +0.000 C 
ATOM      9  C   UNL     1      17.078  -9.119  42.361  0.00  0.00    +0.000 C 
ATOM     10  C   UNL     1      17.986  -7.854  40.330  0.00  0.00    +0.000 C 
ATOM     11  C   UNL     1      17.752  -7.411  38.889  0.00  0.00    +0.000 C 
ATOM     12  C   UNL     1      16.311  -5.468  38.172  0.00  0.00    +0.000 C 
ATOM     13  C   UNL     1      18.429  -8.879  43.017  0.00  0.00    +0.000 A 
ATOM     14  C   UNL     1      14.306  -5.163  39.562  0.00  0.00    +0.000 C 
ATOM     15  C   UNL     1      19.228  -7.862  40.848  0.00  0.00    +0.000 C 
ATOM     16  C   UNL     1      15.420  -4.612  38.726  0.00  0.00    +0.000 C 
ATOM     17  C   UNL     1      19.466  -8.233  42.278  0.00  0.00    +0.000 A 
ATOM     18  C   UNL     1      16.878 -10.605  42.002  0.00  0.00    +0.000 C 
ATOM     19  C   UNL     1      18.699  -9.285  44.346  0.00  0.00    +0.000 A 
ATOM     20  C   UNL     1      20.688  -7.965  42.933  0.00  0.00    +0.000 A 
ATOM     21  C   UNL     1      19.930  -9.032  44.945  0.00  0.00    +0.000 A 
ATOM     22  C   UNL     1      20.917  -8.361  44.248  0.00  0.00    +0.000 A 
ENDROOT
BRANCH  16  23
ATOM     23  C   UNL     1      15.435  -3.146  38.461  0.00  0.00    +0.000 C 
ATOM     24  O   UNL     1      15.592  -2.691  37.336  0.00  0.00    +0.000 OA
ATOM     25  N   UNL     1      15.284  -2.322  39.533  0.00  0.00    +0.000 N 
ATOM     26  H   UNL     1      15.438  -2.675  40.472  0.00  0.00    +0.000 HD
ATOM     27  H   UNL     1      15.413  -1.333  39.370  0.00  0.00    +0.000 HD
ENDBRANCH  16  23
BRANCH   8  28
ATOM     28  N   UNL     1      12.791  -6.945  38.610  0.00  0.00    +0.000 NA
ATOM     29  C   UNL     1      12.545  -6.135  37.425  0.00  0.00    +0.000 C 
ATOM     30  C   UNL     1      12.719  -8.339  38.222  0.00  0.00    +0.000 C 
ENDBRANCH   8  28
BRANCH  12  31
ATOM     31  O   UNL     1      17.286  -5.000  37.286  0.00  0.00    +0.000 OA
ATOM     32  H   UNL     1      17.212  -5.510  36.447  0.00  0.00    +0.000 HD
ENDBRANCH  12  31
BRANCH   7  33
ATOM     33  O   UNL     1      16.073  -7.526  37.076  0.00  0.00    +0.000 OA
ATOM     34  H   UNL     1      15.231  -8.016  37.090  0.00  0.00    +0.000 HD
ENDBRANCH   7  33
BRANCH  15  35
ATOM     35  O   UNL     1      20.351  -7.556  40.109  0.00  0.00    +0.000 OA
ATOM     36  H   UNL     1      21.136  -8.013  40.476  0.00  0.00    +0.000 HD
ENDBRANCH  15  35
BRANCH   9  37
ATOM     37  O   UNL     1      16.029  -8.776  43.245  0.00  0.00    +0.000 OA
ATOM     38  H   UNL     1      15.372  -9.465  43.035  0.00  0.00    +0.000 HD
ENDBRANCH   9  37
BRANCH  20  39
ATOM     39  O   UNL     1      21.689  -7.260  42.321  0.00  0.00    +0.000 OA
ATOM     40  H   UNL     1      21.363  -6.375  42.082  0.00  0.00    +0.000 HD
ENDBRANCH  20  39
TORSDOF 7
ENDMDL
MODEL 8
REMARK VINA RESULT:      -6.4     28.947     32.781
REMARK  Name = Chlortetracycline.pdbqt.pdb
REMARK  7 active torsions:
REMARK  status: ('A' for Active; 'I' for Inactive)
REMARK    1  A    between atoms: C_7  and  O_30
REMARK    2  A    between atoms: C_8  and  N_32
REMARK    3  A    between atoms: C_9  and  O_37
REMARK    4  A    between atoms: C_12  and  O_28
REMARK    5  A    between atoms: C_15  and  O_35
REMARK    6  A    between atoms: C_16  and  C_23
REMARK    7  A    between atoms: C_20  and  O_39
REMARK                            x       y       z     vdW  Elec       q    Type
REMARK                         _______ _______ _______ _____ _____    ______ ____
ROOT
ATOM      1 CL   UNL     1      18.474 -10.947  44.733  0.00  0.00    +0.000 Cl
ATOM      2  O   UNL     1      19.469  -8.594  37.332  0.00  0.00    +0.000 OA
ATOM      3  O   UNL     1      13.495  -7.989  38.718  0.00  0.00    +0.000 OA
ATOM      4  C   UNL     1      16.147 -10.101  38.118  0.00  0.00    +0.000 C 
ATOM      5  C   UNL     1      17.721  -9.973  40.232  0.00  0.00    +0.000 C 
ATOM      6  C   UNL     1      16.625 -10.336  39.424  0.00  0.00    +0.000 C 
ATOM      7  C   UNL     1      17.099  -9.275  37.285  0.00  0.00    +0.000 C 
ATOM      8  C   UNL     1      14.732  -9.846  37.911  0.00  0.00    +0.000 C 
ATOM      9  C   UNL     1      18.066 -10.505  41.595  0.00  0.00    +0.000 C 
ATOM     10  C   UNL     1      18.669  -9.152  39.509  0.00  0.00    +0.000 C 
ATOM     11  C   UNL     1      18.501  -8.980  38.002  0.00  0.00    +0.000 C 
ATOM     12  C   UNL     1      16.512  -7.925  36.862  0.00  0.00    +0.000 C 
ATOM     13  C   UNL     1      19.071  -9.646  42.348  0.00  0.00    +0.000 A 
ATOM     14  C   UNL     1      14.373  -8.402  37.975  0.00  0.00    +0.000 C 
ATOM     15  C   UNL     1      19.702  -8.575  40.149  0.00  0.00    +0.000 C 
ATOM     16  C   UNL     1      15.270  -7.497  37.190  0.00  0.00    +0.000 C 
ATOM     17  C   UNL     1      19.846  -8.681  41.634  0.00  0.00    +0.000 A 
ATOM     18  C   UNL     1      18.565 -11.955  41.437  0.00  0.00    +0.000 C 
ATOM     19  C   UNL     1      19.274  -9.778  43.742  0.00  0.00    +0.000 A 
ATOM     20  C   UNL     1      20.724  -7.853  42.368  0.00  0.00    +0.000 A 
ATOM     21  C   UNL     1      20.176  -8.965  44.423  0.00  0.00    +0.000 A 
ATOM     22  C   UNL     1      20.888  -7.996  43.744  0.00  0.00    +0.000 A 
ENDROOT
BRANCH  16  23
ATOM     23  C   UNL     1      14.713  -6.198  36.717  0.00  0.00    +0.000 C 
ATOM     24  O   UNL     1      15.345  -5.154  36.792  0.00  0.00    +0.000 OA
ATOM     25  N   UNL     1      13.451  -6.216  36.209  0.00  0.00    +0.000 N 
ATOM     26  H   UNL     1      12.834  -6.998  36.404  0.00  0.00    +0.000 HD
ATOM     27  H   UNL     1      13.030  -5.321  36.001  0.00  0.00    +0.000 HD
ENDBRANCH  16  23
BRANCH   8  28
ATOM     28  N   UNL     1      13.911 -10.740  37.139  0.00  0.00    +0.000 NA
ATOM     29  C   UNL     1      13.568 -10.238  35.816  0.00  0.00    +0.000 C 
ATOM     30  C   UNL     1      14.473 -12.066  36.983  0.00  0.00    +0.000 C 
ENDBRANCH   8  28
BRANCH  12  31
ATOM     31  O   UNL     1      17.328  -7.159  36.025  0.00  0.00    +0.000 OA
ATOM     32  H   UNL     1      18.256  -7.476  36.122  0.00  0.00    +0.000 HD
ENDBRANCH  12  31
BRANCH   7  33
ATOM     33  O   UNL     1      17.332  -9.969  36.058  0.00  0.00    +0.000 OA
ATOM     34  H   UNL     1      16.743  -9.589  35.380  0.00  0.00    +0.000 HD
ENDBRANCH   7  33
BRANCH  15  35
ATOM     35  O   UNL     1      20.695  -7.877  39.495  0.00  0.00    +0.000 OA
ATOM     36  H   UNL     1      20.686  -6.936  39.768  0.00  0.00    +0.000 HD
ENDBRANCH  15  35
BRANCH   9  37
ATOM     37  O   UNL     1      16.845 -10.576  42.305  0.00  0.00    +0.000 OA
ATOM     38  H   UNL     1      17.163 -10.608  43.226  0.00  0.00    +0.000 HD
ENDBRANCH   9  37
BRANCH  20  39
ATOM     39  O   UNL     1      21.421  -6.840  41.768  0.00  0.00    +0.000 OA
ATOM     40  H   UNL     1      21.455  -6.993  40.808  0.00  0.00    +0.000 HD
ENDBRANCH  20  39
TORSDOF 7
ENDMDL
MODEL 9
REMARK VINA RESULT:      -6.2     17.571     19.468
REMARK  Name = Chlortetracycline.pdbqt.pdb
REMARK  7 active torsions:
REMARK  status: ('A' for Active; 'I' for Inactive)
REMARK    1  A    between atoms: C_7  and  O_30
REMARK    2  A    between atoms: C_8  and  N_32
REMARK    3  A    between atoms: C_9  and  O_37
REMARK    4  A    between atoms: C_12  and  O_28
REMARK    5  A    between atoms: C_15  and  O_35
REMARK    6  A    between atoms: C_16  and  C_23
REMARK    7  A    between atoms: C_20  and  O_39
REMARK                            x       y       z     vdW  Elec       q    Type
REMARK                         _______ _______ _______ _____ _____    ______ ____
ROOT
ATOM      1 CL   UNL     1      15.026  13.147  34.563  0.00  0.00    +0.000 Cl
ATOM      2  O   UNL     1      19.906   7.026  34.680  0.00  0.00    +0.000 OA
ATOM      3  O   UNL     1      14.875   5.369  31.530  0.00  0.00    +0.000 OA
ATOM      4  C   UNL     1      16.270   6.195  34.568  0.00  0.00    +0.000 C 
ATOM      5  C   UNL     1      16.711   8.796  34.526  0.00  0.00    +0.000 C 
ATOM      6  C   UNL     1      16.009   7.579  34.634  0.00  0.00    +0.000 C 
ATOM      7  C   UNL     1      17.738   5.883  34.400  0.00  0.00    +0.000 C 
ATOM      8  C   UNL     1      15.348   5.328  33.855  0.00  0.00    +0.000 C 
ATOM      9  C   UNL     1      16.186  10.180  34.792  0.00  0.00    +0.000 C 
ATOM     10  C   UNL     1      18.129   8.579  34.334  0.00  0.00    +0.000 C 
ATOM     11  C   UNL     1      18.690   7.169  34.491  0.00  0.00    +0.000 C 
ATOM     12  C   UNL     1      18.056   5.176  33.079  0.00  0.00    +0.000 C 
ATOM     13  C   UNL     1      17.063  11.284  34.222  0.00  0.00    +0.000 A 
ATOM     14  C   UNL     1      15.688   5.153  32.416  0.00  0.00    +0.000 C 
ATOM     15  C   UNL     1      18.947   9.610  34.053  0.00  0.00    +0.000 C 
ATOM     16  C   UNL     1      17.130   4.854  32.145  0.00  0.00    +0.000 C 
ATOM     17  C   UNL     1      18.405  10.987  33.833  0.00  0.00    +0.000 A 
ATOM     18  C   UNL     1      15.992  10.339  36.314  0.00  0.00    +0.000 C 
ATOM     19  C   UNL     1      16.594  12.610  34.071  0.00  0.00    +0.000 A 
ATOM     20  C   UNL     1      19.175  12.016  33.246  0.00  0.00    +0.000 A 
ATOM     21  C   UNL     1      17.397  13.605  33.519  0.00  0.00    +0.000 A 
ATOM     22  C   UNL     1      18.678  13.307  33.094  0.00  0.00    +0.000 A 
ENDROOT
BRANCH  16  23
ATOM     23  C   UNL     1      17.468   4.119  30.893  0.00  0.00    +0.000 C 
ATOM     24  O   UNL     1      16.998   3.018  30.639  0.00  0.00    +0.000 OA
ATOM     25  N   UNL     1      18.343   4.718  30.041  0.00  0.00    +0.000 N 
ATOM     26  H   UNL     1      18.938   5.471  30.369  0.00  0.00    +0.000 HD
ATOM     27  H   UNL     1      18.662   4.169  29.254  0.00  0.00    +0.000 HD
ENDBRANCH  16  23
BRANCH   8  28
ATOM     28  N   UNL     1      14.608   4.296  34.532  0.00  0.00    +0.000 NA
ATOM     29  C   UNL     1      15.023   2.944  34.184  0.00  0.00    +0.000 C 
ATOM     30  C   UNL     1      14.627   4.412  35.976  0.00  0.00    +0.000 C 
ENDBRANCH   8  28
BRANCH  12  31
ATOM     31  O   UNL     1      19.391   4.798  32.914  0.00  0.00    +0.000 OA
ATOM     32  H   UNL     1      19.675   5.052  32.006  0.00  0.00    +0.000 HD
ENDBRANCH  12  31
BRANCH   7  33
ATOM     33  O   UNL     1      18.112   4.946  35.410  0.00  0.00    +0.000 OA
ATOM     34  H   UNL     1      17.385   4.892  36.058  0.00  0.00    +0.000 HD
ENDBRANCH   7  33
BRANCH  15  35
ATOM     35  O   UNL     1      20.317   9.480  33.969  0.00  0.00    +0.000 OA
ATOM     36  H   UNL     1      20.684  10.135  33.339  0.00  0.00    +0.000 HD
ENDBRANCH  15  35
BRANCH   9  37
ATOM     37  O   UNL     1      14.896  10.224  34.217  0.00  0.00    +0.000 OA
ATOM     38  H   UNL     1      15.053  10.794  33.441  0.00  0.00    +0.000 HD
ENDBRANCH   9  37
BRANCH  20  39
ATOM     39  O   UNL     1      20.431  11.779  32.756  0.00  0.00    +0.000 OA
ATOM     40  H   UNL     1      20.931  12.613  32.729  0.00  0.00    +0.000 HD
ENDBRANCH  20  39
TORSDOF 7
ENDMDL
