MODEL 1
REMARK VINA RESULT:      -6.0      0.000      0.000
REMARK  Name = Ciclopirox.pdbqt.pdb
REMARK  2 active torsions:
REMARK  status: ('A' for Active; 'I' for Inactive)
REMARK    1  A    between atoms: N_2  and  O_15
REMARK    2  A    between atoms: C_3  and  C_9
REMARK                            x       y       z     vdW  Elec       q    Type
REMARK                         _______ _______ _______ _____ _____    ______ ____
ROOT
ATOM      1  O   UNL     1      46.309   9.981  20.099  0.00  0.00    +0.000 OA
ATOM      2  N   UNL     1      44.160   9.056  20.203  0.00  0.00    +0.000 N 
ATOM      3  C   UNL     1      43.353   7.952  20.512  0.00  0.00    +0.000 C 
ATOM      4  C   UNL     1      44.076   6.931  20.899  0.00  0.00    +0.000 C 
ATOM      5  C   UNL     1      45.459   6.632  21.073  0.00  0.00    +0.000 C 
ATOM      6  C   UNL     1      45.562   9.036  20.312  0.00  0.00    +0.000 C 
ATOM      7  C   UNL     1      46.044   7.747  20.748  0.00  0.00    +0.000 C 
ATOM      8  C   UNL     1      46.009   5.315  20.635  0.00  0.00    +0.000 C 
ENDROOT
BRANCH   3   9
ATOM      9  C   UNL     1      41.922   7.932  20.436  0.00  0.00    +0.000 A 
ATOM     10  C   UNL     1      41.057   7.718  21.574  0.00  0.00    +0.000 A 
ATOM     11  C   UNL     1      39.542   7.417  21.641  0.00  0.00    +0.000 A 
ATOM     12  C   UNL     1      38.807   7.325  20.291  0.00  0.00    +0.000 A 
ATOM     13  C   UNL     1      39.642   7.540  19.016  0.00  0.00    +0.000 A 
ATOM     14  C   UNL     1      41.146   7.829  19.226  0.00  0.00    +0.000 A 
ENDBRANCH   3   9
BRANCH   2  15
ATOM     15  O   UNL     1      43.545  10.275  19.854  0.00  0.00    +0.000 OA
ATOM     16  H   UNL     1      43.613  10.276  18.878  0.00  0.00    +0.000 HD
ENDBRANCH   2  15
TORSDOF 2
ENDMDL
MODEL 2
REMARK VINA RESULT:      -5.7     21.572     22.845
REMARK  Name = Ciclopirox.pdbqt.pdb
REMARK  2 active torsions:
REMARK  status: ('A' for Active; 'I' for Inactive)
REMARK    1  A    between atoms: N_2  and  O_15
REMARK    2  A    between atoms: C_3  and  C_9
REMARK                            x       y       z     vdW  Elec       q    Type
REMARK                         _______ _______ _______ _____ _____    ______ ____
ROOT
ATOM      1  O   UNL     1      20.545  13.276  18.141  0.00  0.00    +0.000 OA
ATOM      2  N   UNL     1      20.409  10.973  18.541  0.00  0.00    +0.000 N 
ATOM      3  C   UNL     1      20.928   9.692  18.306  0.00  0.00    +0.000 C 
ATOM      4  C   UNL     1      21.931   9.734  17.465  0.00  0.00    +0.000 C 
ATOM      5  C   UNL     1      22.625  10.724  16.710  0.00  0.00    +0.000 C 
ATOM      6  C   UNL     1      20.928  12.132  17.938  0.00  0.00    +0.000 C 
ATOM      7  C   UNL     1      22.022  11.825  17.047  0.00  0.00    +0.000 C 
ATOM      8  C   UNL     1      23.016  10.459  15.295  0.00  0.00    +0.000 C 
ENDROOT
BRANCH   3   9
ATOM      9  C   UNL     1      20.445   8.485  18.913  0.00  0.00    +0.000 A 
ATOM     10  C   UNL     1      20.284   7.236  18.205  0.00  0.00    +0.000 A 
ATOM     11  C   UNL     1      19.557   5.935  18.616  0.00  0.00    +0.000 A 
ATOM     12  C   UNL     1      18.885   5.941  20.002  0.00  0.00    +0.000 A 
ATOM     13  C   UNL     1      19.002   7.229  20.838  0.00  0.00    +0.000 A 
ATOM     14  C   UNL     1      19.789   8.392  20.193  0.00  0.00    +0.000 A 
ENDBRANCH   3   9
BRANCH   2  15
ATOM     15  O   UNL     1      19.381  11.130  19.491  0.00  0.00    +0.000 OA
ATOM     16  H   UNL     1      18.596  11.295  18.930  0.00  0.00    +0.000 HD
ENDBRANCH   2  15
TORSDOF 2
ENDMDL
MODEL 3
REMARK VINA RESULT:      -5.4     12.350     13.639
REMARK  Name = Ciclopirox.pdbqt.pdb
REMARK  2 active torsions:
REMARK  status: ('A' for Active; 'I' for Inactive)
REMARK    1  A    between atoms: N_2  and  O_15
REMARK    2  A    between atoms: C_3  and  C_9
REMARK                            x       y       z     vdW  Elec       q    Type
REMARK                         _______ _______ _______ _____ _____    ______ ____
ROOT
ATOM      1  O   UNL     1      51.419   3.394  28.010  0.00  0.00    +0.000 OA
ATOM      2  N   UNL     1      50.263   1.506  28.775  0.00  0.00    +0.000 N 
ATOM      3  C   UNL     1      49.221   0.985  29.554  0.00  0.00    +0.000 C 
ATOM      4  C   UNL     1      48.583   1.935  30.190  0.00  0.00    +0.000 C 
ATOM      5  C   UNL     1      48.673   3.352  30.321  0.00  0.00    +0.000 C 
ATOM      6  C   UNL     1      50.554   2.881  28.706  0.00  0.00    +0.000 C 
ATOM      7  C   UNL     1      49.671   3.655  29.546  0.00  0.00    +0.000 C 
ATOM      8  C   UNL     1      48.505   4.001  31.654  0.00  0.00    +0.000 C 
ENDROOT
BRANCH   3   9
ATOM      9  C   UNL     1      48.874  -0.404  29.640  0.00  0.00    +0.000 A 
ATOM     10  C   UNL     1      47.607  -0.947  29.210  0.00  0.00    +0.000 A 
ATOM     11  C   UNL     1      46.974  -2.337  29.454  0.00  0.00    +0.000 A 
ATOM     12  C   UNL     1      47.809  -3.326  30.289  0.00  0.00    +0.000 A 
ATOM     13  C   UNL     1      49.181  -2.842  30.794  0.00  0.00    +0.000 A 
ATOM     14  C   UNL     1      49.580  -1.400  30.407  0.00  0.00    +0.000 A 
ENDBRANCH   3   9
BRANCH   2  15
ATOM     15  O   UNL     1      51.001   0.636  27.950  0.00  0.00    +0.000 OA
ATOM     16  H   UNL     1      50.309   0.255  27.371  0.00  0.00    +0.000 HD
ENDBRANCH   2  15
TORSDOF 2
ENDMDL
MODEL 4
REMARK VINA RESULT:      -5.2     21.479     22.780
REMARK  Name = Ciclopirox.pdbqt.pdb
REMARK  2 active torsions:
REMARK  status: ('A' for Active; 'I' for Inactive)
REMARK    1  A    between atoms: N_2  and  O_15
REMARK    2  A    between atoms: C_3  and  C_9
REMARK                            x       y       z     vdW  Elec       q    Type
REMARK                         _______ _______ _______ _____ _____    ______ ____
ROOT
ATOM      1  O   UNL     1      31.951  22.528  30.264  0.00  0.00    +0.000 OA
ATOM      2  N   UNL     1      29.692  22.481  29.646  0.00  0.00    +0.000 N 
ATOM      3  C   UNL     1      28.690  22.916  28.768  0.00  0.00    +0.000 C 
ATOM      4  C   UNL     1      29.166  23.756  27.884  0.00  0.00    +0.000 C 
ATOM      5  C   UNL     1      30.421  24.362  27.584  0.00  0.00    +0.000 C 
ATOM      6  C   UNL     1      31.029  22.908  29.555  0.00  0.00    +0.000 C 
ATOM      7  C   UNL     1      31.214  23.853  28.478  0.00  0.00    +0.000 C 
ATOM      8  C   UNL     1      30.495  25.807  27.218  0.00  0.00    +0.000 C 
ENDROOT
BRANCH   3   9
ATOM      9  C   UNL     1      27.320  22.493  28.809  0.00  0.00    +0.000 A 
ATOM     10  C   UNL     1      26.555  22.125  27.640  0.00  0.00    +0.000 A 
ATOM     11  C   UNL     1      25.036  21.897  27.466  0.00  0.00    +0.000 A 
ATOM     12  C   UNL     1      24.171  22.083  28.727  0.00  0.00    +0.000 A 
ATOM     13  C   UNL     1      24.895  22.474  30.028  0.00  0.00    +0.000 A 
ATOM     14  C   UNL     1      26.428  22.641  29.932  0.00  0.00    +0.000 A 
ENDBRANCH   3   9
BRANCH   2  15
ATOM     15  O   UNL     1      29.379  21.502  30.609  0.00  0.00    +0.000 OA
ATOM     16  H   UNL     1      29.074  20.752  30.059  0.00  0.00    +0.000 HD
ENDBRANCH   2  15
TORSDOF 2
ENDMDL
MODEL 5
REMARK VINA RESULT:      -5.1      1.527      5.329
REMARK  Name = Ciclopirox.pdbqt.pdb
REMARK  2 active torsions:
REMARK  status: ('A' for Active; 'I' for Inactive)
REMARK    1  A    between atoms: N_2  and  O_15
REMARK    2  A    between atoms: C_3  and  C_9
REMARK                            x       y       z     vdW  Elec       q    Type
REMARK                         _______ _______ _______ _____ _____    ______ ____
ROOT
ATOM      1  O   UNL     1      43.428  10.441  19.217  0.00  0.00    +0.000 OA
ATOM      2  N   UNL     1      44.687   8.780  20.284  0.00  0.00    +0.000 N 
ATOM      3  C   UNL     1      44.706   7.557  20.968  0.00  0.00    +0.000 C 
ATOM      4  C   UNL     1      43.493   7.096  21.148  0.00  0.00    +0.000 C 
ATOM      5  C   UNL     1      42.161   7.509  20.854  0.00  0.00    +0.000 C 
ATOM      6  C   UNL     1      43.500   9.401  19.855  0.00  0.00    +0.000 C 
ATOM      7  C   UNL     1      42.334   8.637  20.232  0.00  0.00    +0.000 C 
ATOM      8  C   UNL     1      41.077   7.344  21.867  0.00  0.00    +0.000 C 
ENDROOT
BRANCH   3   9
ATOM      9  C   UNL     1      45.890   6.878  21.406  0.00  0.00    +0.000 A 
ATOM     10  C   UNL     1      46.729   7.337  22.490  0.00  0.00    +0.000 A 
ATOM     11  C   UNL     1      48.144   6.890  22.924  0.00  0.00    +0.000 A 
ATOM     12  C   UNL     1      48.790   5.773  22.084  0.00  0.00    +0.000 A 
ATOM     13  C   UNL     1      47.974   5.213  20.905  0.00  0.00    +0.000 A 
ATOM     14  C   UNL     1      46.578   5.836  20.685  0.00  0.00    +0.000 A 
ENDBRANCH   3   9
BRANCH   2  15
ATOM     15  O   UNL     1      45.910   9.380  19.923  0.00  0.00    +0.000 OA
ATOM     16  H   UNL     1      45.786   9.556  18.967  0.00  0.00    +0.000 HD
ENDBRANCH   2  15
TORSDOF 2
ENDMDL
MODEL 6
REMARK VINA RESULT:      -5.0     21.707     23.008
REMARK  Name = Ciclopirox.pdbqt.pdb
REMARK  2 active torsions:
REMARK  status: ('A' for Active; 'I' for Inactive)
REMARK    1  A    between atoms: N_2  and  O_15
REMARK    2  A    between atoms: C_3  and  C_9
REMARK                            x       y       z     vdW  Elec       q    Type
REMARK                         _______ _______ _______ _____ _____    ______ ____
ROOT
ATOM      1  O   UNL     1      19.721  11.451  14.016  0.00  0.00    +0.000 OA
ATOM      2  N   UNL     1      20.482  12.809  15.766  0.00  0.00    +0.000 N 
ATOM      3  C   UNL     1      21.392  12.997  16.815  0.00  0.00    +0.000 C 
ATOM      4  C   UNL     1      22.188  11.965  16.944  0.00  0.00    +0.000 C 
ATOM      5  C   UNL     1      22.368  10.697  16.319  0.00  0.00    +0.000 C 
ATOM      6  C   UNL     1      20.460  11.649  14.970  0.00  0.00    +0.000 C 
ATOM      7  C   UNL     1      21.459  10.695  15.390  0.00  0.00    +0.000 C 
ATOM      8  C   UNL     1      22.633   9.480  17.142  0.00  0.00    +0.000 C 
ENDROOT
BRANCH   3   9
ATOM      9  C   UNL     1      21.465  14.169  17.639  0.00  0.00    +0.000 A 
ATOM     10  C   UNL     1      21.413  15.519  17.127  0.00  0.00    +0.000 A 
ATOM     11  C   UNL     1      21.725  16.867  17.816  0.00  0.00    +0.000 A 
ATOM     12  C   UNL     1      22.166  16.790  19.290  0.00  0.00    +0.000 A 
ATOM     13  C   UNL     1      22.252  15.393  19.930  0.00  0.00    +0.000 A 
ATOM     14  C   UNL     1      21.883  14.201  19.018  0.00  0.00    +0.000 A 
ENDBRANCH   3   9
BRANCH   2  15
ATOM     15  O   UNL     1      19.606  13.857  15.424  0.00  0.00    +0.000 OA
ATOM     16  H   UNL     1      18.841  13.380  15.042  0.00  0.00    +0.000 HD
ENDBRANCH   2  15
TORSDOF 2
ENDMDL
MODEL 7
REMARK VINA RESULT:      -4.6     25.052     27.437
REMARK  Name = Ciclopirox.pdbqt.pdb
REMARK  2 active torsions:
REMARK  status: ('A' for Active; 'I' for Inactive)
REMARK    1  A    between atoms: N_2  and  O_15
REMARK    2  A    between atoms: C_3  and  C_9
REMARK                            x       y       z     vdW  Elec       q    Type
REMARK                         _______ _______ _______ _____ _____    ______ ____
ROOT
ATOM      1  O   UNL     1      49.782 -18.170  12.801  0.00  0.00    +0.000 OA
ATOM      2  N   UNL     1      50.124 -18.398  15.106  0.00  0.00    +0.000 N 
ATOM      3  C   UNL     1      50.042 -17.826  16.383  0.00  0.00    +0.000 C 
ATOM      4  C   UNL     1      49.610 -16.591  16.322  0.00  0.00    +0.000 C 
ATOM      5  C   UNL     1      49.219 -15.667  15.310  0.00  0.00    +0.000 C 
ATOM      6  C   UNL     1      49.773 -17.707  13.933  0.00  0.00    +0.000 C 
ATOM      7  C   UNL     1      49.354 -16.355  14.216  0.00  0.00    +0.000 C 
ATOM      8  C   UNL     1      49.648 -14.239  15.383  0.00  0.00    +0.000 C 
ENDROOT
BRANCH   3   9
ATOM      9  C   UNL     1      50.369 -18.497  17.607  0.00  0.00    +0.000 A 
ATOM     10  C   UNL     1      49.537 -19.506  18.221  0.00  0.00    +0.000 A 
ATOM     11  C   UNL     1      49.599 -20.137  19.631  0.00  0.00    +0.000 A 
ATOM     12  C   UNL     1      50.721 -19.628  20.555  0.00  0.00    +0.000 A 
ATOM     13  C   UNL     1      51.665 -18.550  19.992  0.00  0.00    +0.000 A 
ATOM     14  C   UNL     1      51.386 -18.088  18.544  0.00  0.00    +0.000 A 
ENDBRANCH   3   9
BRANCH   2  15
ATOM     15  O   UNL     1      50.485 -19.754  14.987  0.00  0.00    +0.000 OA
ATOM     16  H   UNL     1      49.644 -20.216  15.180  0.00  0.00    +0.000 HD
ENDBRANCH   2  15
TORSDOF 2
ENDMDL
MODEL 8
REMARK VINA RESULT:      -4.5     23.247     23.950
REMARK  Name = Ciclopirox.pdbqt.pdb
REMARK  2 active torsions:
REMARK  status: ('A' for Active; 'I' for Inactive)
REMARK    1  A    between atoms: N_2  and  O_15
REMARK    2  A    between atoms: C_3  and  C_9
REMARK                            x       y       z     vdW  Elec       q    Type
REMARK                         _______ _______ _______ _____ _____    ______ ____
ROOT
ATOM      1  O   UNL     1      47.797   6.662  44.536  0.00  0.00    +0.000 OA
ATOM      2  N   UNL     1      46.823   8.774  44.260  0.00  0.00    +0.000 N 
ATOM      3  C   UNL     1      46.850  10.022  43.622  0.00  0.00    +0.000 C 
ATOM      4  C   UNL     1      47.884  10.125  42.826  0.00  0.00    +0.000 C 
ATOM      5  C   UNL     1      48.999   9.321  42.446  0.00  0.00    +0.000 C 
ATOM      6  C   UNL     1      47.796   7.781  44.043  0.00  0.00    +0.000 C 
ATOM      7  C   UNL     1      48.813   8.225  43.119  0.00  0.00    +0.000 C 
ATOM      8  C   UNL     1      50.357   9.926  42.315  0.00  0.00    +0.000 C 
ENDROOT
BRANCH   3   9
ATOM      9  C   UNL     1      45.871  11.055  43.796  0.00  0.00    +0.000 A 
ATOM     10  C   UNL     1      45.875  11.994  44.894  0.00  0.00    +0.000 A 
ATOM     11  C   UNL     1      44.789  12.984  45.374  0.00  0.00    +0.000 A 
ATOM     12  C   UNL     1      43.477  12.996  44.568  0.00  0.00    +0.000 A 
ATOM     13  C   UNL     1      43.373  12.030  43.373  0.00  0.00    +0.000 A 
ATOM     14  C   UNL     1      44.609  11.142  43.104  0.00  0.00    +0.000 A 
ENDBRANCH   3   9
BRANCH   2  15
ATOM     15  O   UNL     1      45.729   8.452  45.086  0.00  0.00    +0.000 OA
ATOM     16  H   UNL     1      44.980   8.446  44.455  0.00  0.00    +0.000 HD
ENDBRANCH   2  15
TORSDOF 2
ENDMDL
MODEL 9
REMARK VINA RESULT:      -4.5     27.457     28.342
REMARK  Name = Ciclopirox.pdbqt.pdb
REMARK  2 active torsions:
REMARK  status: ('A' for Active; 'I' for Inactive)
REMARK    1  A    between atoms: N_2  and  O_15
REMARK    2  A    between atoms: C_3  and  C_9
REMARK                            x       y       z     vdW  Elec       q    Type
REMARK                         _______ _______ _______ _____ _____    ______ ____
ROOT
ATOM      1  O   UNL     1      35.659 -10.010  39.164  0.00  0.00    +0.000 OA
ATOM      2  N   UNL     1      35.884 -11.821  37.696  0.00  0.00    +0.000 N 
ATOM      3  C   UNL     1      35.735 -13.197  37.473  0.00  0.00    +0.000 C 
ATOM      4  C   UNL     1      35.301 -13.807  38.547  0.00  0.00    +0.000 C 
ATOM      5  C   UNL     1      34.958 -13.455  39.885  0.00  0.00    +0.000 C 
ATOM      6  C   UNL     1      35.590 -11.208  38.927  0.00  0.00    +0.000 C 
ATOM      7  C   UNL     1      35.151 -12.171  39.910  0.00  0.00    +0.000 C 
ATOM      8  C   UNL     1      35.377 -14.322  41.026  0.00  0.00    +0.000 C 
ENDROOT
BRANCH   3   9
ATOM      9  C   UNL     1      36.003 -13.862  36.231  0.00  0.00    +0.000 A 
ATOM     10  C   UNL     1      34.976 -14.384  35.359  0.00  0.00    +0.000 A 
ATOM     11  C   UNL     1      35.079 -15.331  34.141  0.00  0.00    +0.000 A 
ATOM     12  C   UNL     1      36.495 -15.812  33.772  0.00  0.00    +0.000 A 
ATOM     13  C   UNL     1      37.661 -15.308  34.642  0.00  0.00    +0.000 A 
ATOM     14  C   UNL     1      37.285 -14.364  35.806  0.00  0.00    +0.000 A 
ENDBRANCH   3   9
BRANCH   2  15
ATOM     15  O   UNL     1      36.257 -10.991  36.621  0.00  0.00    +0.000 OA
ATOM     16  H   UNL     1      37.169 -10.727  36.862  0.00  0.00    +0.000 HD
ENDBRANCH   2  15
TORSDOF 2
ENDMDL
