MODEL 1
REMARK VINA RESULT:      -6.6      0.000      0.000
REMARK  Name = 
REMARK  5 active torsions:
REMARK  status: ('A' for Active; 'I' for Inactive)
REMARK    1  A    between atoms: O_5  and  C_10
REMARK    2  A    between atoms: N_9  and  C_20
REMARK    3  A    between atoms: N_9  and  C_25
REMARK    4  A    between atoms: C_10  and  C_11
REMARK    5  A    between atoms: C_18  and  C_19
REMARK                            x       y       z     vdW  Elec       q    Type
REMARK                         _______ _______ _______ _____ _____    ______ ____
ROOT
ATOM      1  F   UNL     1      40.904 -13.288  -4.055  0.00  0.00    +0.000 F 
ATOM      2  F   UNL     1      38.994 -12.516  -2.310  0.00  0.00    +0.000 F 
ATOM      3  C   UNL     1      41.207 -15.885  -1.524  0.00  0.00    +0.000 A 
ATOM      4  C   UNL     1      41.477 -15.170  -2.713  0.00  0.00    +0.000 A 
ATOM      5  C   UNL     1      40.221 -15.469  -0.614  0.00  0.00    +0.000 A 
ATOM      6  C   UNL     1      40.699 -14.030  -2.957  0.00  0.00    +0.000 A 
ATOM      7  C   UNL     1      39.474 -14.325  -0.885  0.00  0.00    +0.000 A 
ATOM      8  C   UNL     1      39.719 -13.615  -2.053  0.00  0.00    +0.000 A 
ENDROOT
BRANCH   3  14
ATOM      9  O   UNL     1      43.156 -17.024  -0.932  0.00  0.00    +0.000 OA
ATOM     10  N   UNL     1      41.300 -18.312  -1.372  0.00  0.00    +0.000 N 
ATOM     11  C   UNL     1      41.148 -19.819  -2.808  0.00  0.00    +0.000 C 
ATOM     12  C   UNL     1      40.245 -18.647  -2.327  0.00  0.00    +0.000 C 
ATOM     13  C   UNL     1      41.929 -19.627  -1.473  0.00  0.00    +0.000 C 
ATOM     14  C   UNL     1      41.970 -17.117  -1.232  0.00  0.00    +0.000 C 
BRANCH  11  16
ATOM     15  N   UNL     1      42.541 -20.852  -4.581  0.00  0.00    +0.000 NA
ATOM     16  C   UNL     1      42.034 -19.558  -4.055  0.00  0.00    +0.000 C 
ATOM     17  C   UNL     1      41.251 -18.833  -5.163  0.00  0.00    +0.000 C 
ATOM     18  C   UNL     1      42.128 -18.607  -6.395  0.00  0.00    +0.000 C 
ATOM     19  C   UNL     1      43.481 -20.612  -5.685  0.00  0.00    +0.000 C 
ATOM     20  C   UNL     1      42.792 -19.902  -6.849  0.00  0.00    +0.000 C 
ATOM     21  H   UNL     1      41.746 -21.363  -4.973  0.00  0.00    +0.000 HD
ENDBRANCH  11  16
BRANCH  11  22
ATOM     22  O   UNL     1      40.469 -21.102  -2.936  0.00  0.00    +0.000 OA
ATOM     23  H   UNL     1      39.550 -20.846  -3.139  0.00  0.00    +0.000 HD
ENDBRANCH  11  22
ENDBRANCH   3  14
BRANCH   4  24
ATOM     24  N   UNL     1      42.433 -15.661  -3.628  0.00  0.00    +0.000 N 
ATOM     25  H   UNL     1      42.160 -16.545  -4.072  0.00  0.00    +0.000 HD
BRANCH  24  28
ATOM     26  I   UNL     1      47.563 -12.927  -6.060  0.00  0.00    +0.000 I 
ATOM     27  F   UNL     1      44.218 -14.265  -2.089  0.00  0.00    +0.000 F 
ATOM     28  C   UNL     1      43.568 -15.077  -4.220  0.00  0.00    +0.000 A 
ATOM     29  C   UNL     1      44.459 -14.353  -3.407  0.00  0.00    +0.000 A 
ATOM     30  C   UNL     1      43.856 -15.146  -5.586  0.00  0.00    +0.000 A 
ATOM     31  C   UNL     1      45.598 -13.734  -3.914  0.00  0.00    +0.000 A 
ATOM     32  C   UNL     1      44.998 -14.528  -6.114  0.00  0.00    +0.000 A 
ATOM     33  C   UNL     1      45.865 -13.827  -5.275  0.00  0.00    +0.000 A 
ENDBRANCH  24  28
ENDBRANCH   4  24
TORSDOF 5
ENDMDL
MODEL 2
REMARK VINA RESULT:      -6.2     21.447     24.870
REMARK  Name = 
REMARK  5 active torsions:
REMARK  status: ('A' for Active; 'I' for Inactive)
REMARK    1  A    between atoms: O_5  and  C_10
REMARK    2  A    between atoms: N_9  and  C_20
REMARK    3  A    between atoms: N_9  and  C_25
REMARK    4  A    between atoms: C_10  and  C_11
REMARK    5  A    between atoms: C_18  and  C_19
REMARK                            x       y       z     vdW  Elec       q    Type
REMARK                         _______ _______ _______ _____ _____    ______ ____
ROOT
ATOM      1  F   UNL     1      24.187   1.208   5.792  0.00  0.00    +0.000 F 
ATOM      2  F   UNL     1      25.054  -1.100   6.893  0.00  0.00    +0.000 F 
ATOM      3  C   UNL     1      27.337   0.755   4.027  0.00  0.00    +0.000 A 
ATOM      4  C   UNL     1      26.113   1.355   4.399  0.00  0.00    +0.000 A 
ATOM      5  C   UNL     1      27.788  -0.439   4.615  0.00  0.00    +0.000 A 
ATOM      6  C   UNL     1      25.353   0.693   5.373  0.00  0.00    +0.000 A 
ATOM      7  C   UNL     1      27.011  -1.064   5.587  0.00  0.00    +0.000 A 
ATOM      8  C   UNL     1      25.800  -0.493   5.958  0.00  0.00    +0.000 A 
ENDROOT
BRANCH   3  14
ATOM      9  O   UNL     1      27.755   1.388   1.820  0.00  0.00    +0.000 OA
ATOM     10  N   UNL     1      29.384   1.893   3.367  0.00  0.00    +0.000 N 
ATOM     11  C   UNL     1      31.379   1.283   3.313  0.00  0.00    +0.000 C 
ATOM     12  C   UNL     1      30.278   1.388   4.407  0.00  0.00    +0.000 C 
ATOM     13  C   UNL     1      30.483   2.237   2.467  0.00  0.00    +0.000 C 
ATOM     14  C   UNL     1      28.164   1.387   2.977  0.00  0.00    +0.000 C 
BRANCH  11  16
ATOM     15  N   UNL     1      32.972  -0.234   2.168  0.00  0.00    +0.000 NA
ATOM     16  C   UNL     1      31.569  -0.102   2.638  0.00  0.00    +0.000 C 
ATOM     17  C   UNL     1      31.251  -1.253   3.609  0.00  0.00    +0.000 C 
ATOM     18  C   UNL     1      31.469  -2.610   2.940  0.00  0.00    +0.000 C 
ATOM     19  C   UNL     1      33.135  -1.487   1.417  0.00  0.00    +0.000 C 
ATOM     20  C   UNL     1      32.852  -2.699   2.303  0.00  0.00    +0.000 C 
ATOM     21  H   UNL     1      33.574  -0.301   2.992  0.00  0.00    +0.000 HD
ENDBRANCH  11  16
BRANCH  11  22
ATOM     22  O   UNL     1      32.672   1.838   3.690  0.00  0.00    +0.000 OA
ATOM     23  H   UNL     1      32.965   1.246   4.408  0.00  0.00    +0.000 HD
ENDBRANCH  11  22
ENDBRANCH   3  14
BRANCH   4  24
ATOM     24  N   UNL     1      25.670   2.520   3.736  0.00  0.00    +0.000 N 
ATOM     25  H   UNL     1      25.405   2.359   2.757  0.00  0.00    +0.000 HD
BRANCH  24  28
ATOM     26  I   UNL     1      24.288   8.297   5.838  0.00  0.00    +0.000 I 
ATOM     27  F   UNL     1      27.572   4.471   4.014  0.00  0.00    +0.000 F 
ATOM     28  C   UNL     1      25.306   3.797   4.201  0.00  0.00    +0.000 A 
ATOM     29  C   UNL     1      26.307   4.775   4.349  0.00  0.00    +0.000 A 
ATOM     30  C   UNL     1      24.003   4.154   4.559  0.00  0.00    +0.000 A 
ATOM     31  C   UNL     1      26.035   6.058   4.815  0.00  0.00    +0.000 A 
ATOM     32  C   UNL     1      23.712   5.441   5.030  0.00  0.00    +0.000 A 
ATOM     33  C   UNL     1      24.728   6.387   5.154  0.00  0.00    +0.000 A 
ENDBRANCH  24  28
ENDBRANCH   4  24
TORSDOF 5
ENDMDL
MODEL 3
REMARK VINA RESULT:      -6.2      1.765      2.004
REMARK  Name = 
REMARK  5 active torsions:
REMARK  status: ('A' for Active; 'I' for Inactive)
REMARK    1  A    between atoms: O_5  and  C_10
REMARK    2  A    between atoms: N_9  and  C_20
REMARK    3  A    between atoms: N_9  and  C_25
REMARK    4  A    between atoms: C_10  and  C_11
REMARK    5  A    between atoms: C_18  and  C_19
REMARK                            x       y       z     vdW  Elec       q    Type
REMARK                         _______ _______ _______ _____ _____    ______ ____
ROOT
ATOM      1  F   UNL     1      41.844 -13.781  -0.919  0.00  0.00    +0.000 F 
ATOM      2  F   UNL     1      39.335 -13.606   0.061  0.00  0.00    +0.000 F 
ATOM      3  C   UNL     1      40.772 -17.249  -1.174  0.00  0.00    +0.000 A 
ATOM      4  C   UNL     1      41.619 -16.124  -1.284  0.00  0.00    +0.000 A 
ATOM      5  C   UNL     1      39.472 -17.153  -0.649  0.00  0.00    +0.000 A 
ATOM      6  C   UNL     1      41.097 -14.894  -0.862  0.00  0.00    +0.000 A 
ATOM      7  C   UNL     1      38.990 -15.915  -0.231  0.00  0.00    +0.000 A 
ATOM      8  C   UNL     1      39.806 -14.796  -0.340  0.00  0.00    +0.000 A 
ENDROOT
BRANCH   3  14
ATOM      9  O   UNL     1      42.345 -18.972  -1.247  0.00  0.00    +0.000 OA
ATOM     10  N   UNL     1      40.459 -19.240  -2.538  0.00  0.00    +0.000 N 
ATOM     11  C   UNL     1      40.401 -19.536  -4.603  0.00  0.00    +0.000 C 
ATOM     12  C   UNL     1      39.603 -18.677  -3.581  0.00  0.00    +0.000 C 
ATOM     13  C   UNL     1      40.887 -20.360  -3.374  0.00  0.00    +0.000 C 
ATOM     14  C   UNL     1      41.255 -18.568  -1.638  0.00  0.00    +0.000 C 
BRANCH  11  16
ATOM     15  N   UNL     1      42.711 -19.781  -5.471  0.00  0.00    +0.000 NA
ATOM     16  C   UNL     1      41.570 -18.838  -5.348  0.00  0.00    +0.000 C 
ATOM     17  C   UNL     1      41.147 -18.369  -6.751  0.00  0.00    +0.000 C 
ATOM     18  C   UNL     1      42.316 -17.707  -7.482  0.00  0.00    +0.000 C 
ATOM     19  C   UNL     1      43.869 -19.095  -6.062  0.00  0.00    +0.000 C 
ATOM     20  C   UNL     1      43.553 -18.599  -7.472  0.00  0.00    +0.000 C 
ATOM     21  H   UNL     1      42.438 -20.520  -6.124  0.00  0.00    +0.000 HD
ENDBRANCH  11  16
BRANCH  11  22
ATOM     22  O   UNL     1      39.580 -20.282  -5.549  0.00  0.00    +0.000 OA
ATOM     23  H   UNL     1      39.742 -21.211  -5.295  0.00  0.00    +0.000 HD
ENDBRANCH  11  22
ENDBRANCH   3  14
BRANCH   4  24
ATOM     24  N   UNL     1      42.894 -16.258  -1.876  0.00  0.00    +0.000 N 
ATOM     25  H   UNL     1      43.516 -16.898  -1.370  0.00  0.00    +0.000 HD
BRANCH  24  28
ATOM     26  I   UNL     1      45.410 -14.532  -7.390  0.00  0.00    +0.000 I 
ATOM     27  F   UNL     1      45.598 -16.238  -2.310  0.00  0.00    +0.000 F 
ATOM     28  C   UNL     1      43.404 -15.872  -3.130  0.00  0.00    +0.000 A 
ATOM     29  C   UNL     1      44.798 -15.856  -3.318  0.00  0.00    +0.000 A 
ATOM     30  C   UNL     1      42.606 -15.471  -4.205  0.00  0.00    +0.000 A 
ATOM     31  C   UNL     1      45.384 -15.476  -4.522  0.00  0.00    +0.000 A 
ATOM     32  C   UNL     1      43.180 -15.084  -5.424  0.00  0.00    +0.000 A 
ATOM     33  C   UNL     1      44.566 -15.091  -5.577  0.00  0.00    +0.000 A 
ENDBRANCH  24  28
ENDBRANCH   4  24
TORSDOF 5
ENDMDL
MODEL 4
REMARK VINA RESULT:      -6.1      3.368      5.955
REMARK  Name = 
REMARK  5 active torsions:
REMARK  status: ('A' for Active; 'I' for Inactive)
REMARK    1  A    between atoms: O_5  and  C_10
REMARK    2  A    between atoms: N_9  and  C_20
REMARK    3  A    between atoms: N_9  and  C_25
REMARK    4  A    between atoms: C_10  and  C_11
REMARK    5  A    between atoms: C_18  and  C_19
REMARK                            x       y       z     vdW  Elec       q    Type
REMARK                         _______ _______ _______ _____ _____    ______ ____
ROOT
ATOM      1  F   UNL     1      42.719 -20.157  -3.466  0.00  0.00    +0.000 F 
ATOM      2  F   UNL     1      41.472 -20.801  -1.160  0.00  0.00    +0.000 F 
ATOM      3  C   UNL     1      40.950 -17.056  -2.761  0.00  0.00    +0.000 A 
ATOM      4  C   UNL     1      41.788 -17.965  -3.445  0.00  0.00    +0.000 A 
ATOM      5  C   UNL     1      40.292 -17.404  -1.569  0.00  0.00    +0.000 A 
ATOM      6  C   UNL     1      41.953 -19.232  -2.869  0.00  0.00    +0.000 A 
ATOM      7  C   UNL     1      40.472 -18.675  -1.031  0.00  0.00    +0.000 A 
ATOM      8  C   UNL     1      41.300 -19.579  -1.685  0.00  0.00    +0.000 A 
ENDROOT
BRANCH   3  14
ATOM      9  O   UNL     1      40.075 -15.538  -4.303  0.00  0.00    +0.000 OA
ATOM     10  N   UNL     1      41.445 -14.676  -2.666  0.00  0.00    +0.000 N 
ATOM     11  C   UNL     1      43.203 -13.590  -2.963  0.00  0.00    +0.000 C 
ATOM     12  C   UNL     1      42.751 -14.734  -2.010  0.00  0.00    +0.000 C 
ATOM     13  C   UNL     1      41.686 -13.344  -3.219  0.00  0.00    +0.000 C 
ATOM     14  C   UNL     1      40.768 -15.692  -3.302  0.00  0.00    +0.000 C 
BRANCH  11  16
ATOM     15  N   UNL     1      44.690 -12.834  -4.798  0.00  0.00    +0.000 NA
ATOM     16  C   UNL     1      43.960 -14.007  -4.252  0.00  0.00    +0.000 C 
ATOM     17  C   UNL     1      44.962 -15.143  -3.977  0.00  0.00    +0.000 C 
ATOM     18  C   UNL     1      45.719 -15.525  -5.249  0.00  0.00    +0.000 C 
ATOM     19  C   UNL     1      45.310 -13.182  -6.085  0.00  0.00    +0.000 C 
ATOM     20  C   UNL     1      46.337 -14.300  -5.916  0.00  0.00    +0.000 C 
ATOM     21  H   UNL     1      45.451 -12.611  -4.152  0.00  0.00    +0.000 HD
ENDBRANCH  11  16
BRANCH  11  22
ATOM     22  O   UNL     1      43.896 -12.487  -2.310  0.00  0.00    +0.000 OA
ATOM     23  H   UNL     1      43.256 -12.195  -1.633  0.00  0.00    +0.000 HD
ENDBRANCH  11  22
ENDBRANCH   3  14
BRANCH   4  24
ATOM     24  N   UNL     1      42.478 -17.551  -4.605  0.00  0.00    +0.000 N 
ATOM     25  H   UNL     1      43.053 -16.712  -4.463  0.00  0.00    +0.000 HD
BRANCH  24  28
ATOM     26  I   UNL     1      43.288 -20.362 -10.186  0.00  0.00    +0.000 I 
ATOM     27  F   UNL     1      40.411 -17.949  -6.359  0.00  0.00    +0.000 F 
ATOM     28  C   UNL     1      42.715 -18.176  -5.844  0.00  0.00    +0.000 A 
ATOM     29  C   UNL     1      41.631 -18.381  -6.717  0.00  0.00    +0.000 A 
ATOM     30  C   UNL     1      43.968 -18.639  -6.255  0.00  0.00    +0.000 A 
ATOM     31  C   UNL     1      41.776 -19.003  -7.954  0.00  0.00    +0.000 A 
ATOM     32  C   UNL     1      44.132 -19.268  -7.497  0.00  0.00    +0.000 A 
ATOM     33  C   UNL     1      43.036 -19.444  -8.341  0.00  0.00    +0.000 A 
ENDBRANCH  24  28
ENDBRANCH   4  24
TORSDOF 5
ENDMDL
MODEL 5
REMARK VINA RESULT:      -5.8     22.757     26.233
REMARK  Name = 
REMARK  5 active torsions:
REMARK  status: ('A' for Active; 'I' for Inactive)
REMARK    1  A    between atoms: O_5  and  C_10
REMARK    2  A    between atoms: N_9  and  C_20
REMARK    3  A    between atoms: N_9  and  C_25
REMARK    4  A    between atoms: C_10  and  C_11
REMARK    5  A    between atoms: C_18  and  C_19
REMARK                            x       y       z     vdW  Elec       q    Type
REMARK                         _______ _______ _______ _____ _____    ______ ____
ROOT
ATOM      1  F   UNL     1      27.101  -1.809   5.128  0.00  0.00    +0.000 F 
ATOM      2  F   UNL     1      29.606  -2.529   4.427  0.00  0.00    +0.000 F 
ATOM      3  C   UNL     1      28.527   1.430   4.280  0.00  0.00    +0.000 A 
ATOM      4  C   UNL     1      27.560   0.488   4.697  0.00  0.00    +0.000 A 
ATOM      5  C   UNL     1      29.834   1.049   3.930  0.00  0.00    +0.000 A 
ATOM      6  C   UNL     1      27.956  -0.856   4.728  0.00  0.00    +0.000 A 
ATOM      7  C   UNL     1      30.195  -0.295   3.982  0.00  0.00    +0.000 A 
ATOM      8  C   UNL     1      29.254  -1.236   4.381  0.00  0.00    +0.000 A 
ENDROOT
BRANCH   3  14
ATOM      9  O   UNL     1      28.135   3.531   5.217  0.00  0.00    +0.000 OA
ATOM     10  N   UNL     1      27.799   3.332   2.948  0.00  0.00    +0.000 N 
ATOM     11  C   UNL     1      26.029   3.733   1.916  0.00  0.00    +0.000 C 
ATOM     12  C   UNL     1      27.112   2.617   1.874  0.00  0.00    +0.000 C 
ATOM     13  C   UNL     1      27.081   4.580   2.693  0.00  0.00    +0.000 C 
ATOM     14  C   UNL     1      28.156   2.859   4.191  0.00  0.00    +0.000 C 
BRANCH  11  16
ATOM     15  N   UNL     1      24.194   4.731   3.253  0.00  0.00    +0.000 NA
ATOM     16  C   UNL     1      24.759   3.448   2.761  0.00  0.00    +0.000 C 
ATOM     17  C   UNL     1      23.689   2.706   1.940  0.00  0.00    +0.000 C 
ATOM     18  C   UNL     1      22.434   2.456   2.776  0.00  0.00    +0.000 C 
ATOM     19  C   UNL     1      23.064   4.469   4.156  0.00  0.00    +0.000 C 
ATOM     20  C   UNL     1      21.936   3.741   3.428  0.00  0.00    +0.000 C 
ATOM     21  H   UNL     1      23.819   5.238   2.447  0.00  0.00    +0.000 HD
ENDBRANCH  11  16
BRANCH  11  22
ATOM     22  O   UNL     1      25.655   4.273   0.615  0.00  0.00    +0.000 OA
ATOM     23  H   UNL     1      26.442   4.789   0.357  0.00  0.00    +0.000 HD
ENDBRANCH  11  22
ENDBRANCH   3  14
BRANCH   4  24
ATOM     24  N   UNL     1      26.242   0.910   4.977  0.00  0.00    +0.000 N 
ATOM     25  H   UNL     1      26.120   1.928   4.937  0.00  0.00    +0.000 HD
BRANCH  24  28
ATOM     26  I   UNL     1      20.777  -2.221   5.169  0.00  0.00    +0.000 I 
ATOM     27  F   UNL     1      25.133  -0.239   2.752  0.00  0.00    +0.000 F 
ATOM     28  C   UNL     1      25.023   0.213   5.077  0.00  0.00    +0.000 A 
ATOM     29  C   UNL     1      24.470  -0.353   3.913  0.00  0.00    +0.000 A 
ATOM     30  C   UNL     1      24.303   0.071   6.266  0.00  0.00    +0.000 A 
ATOM     31  C   UNL     1      23.263  -1.046   3.922  0.00  0.00    +0.000 A 
ATOM     32  C   UNL     1      23.085  -0.623   6.292  0.00  0.00    +0.000 A 
ATOM     33  C   UNL     1      22.573  -1.181   5.121  0.00  0.00    +0.000 A 
ENDBRANCH  24  28
ENDBRANCH   4  24
TORSDOF 5
ENDMDL
MODEL 6
REMARK VINA RESULT:      -5.8     17.615     20.509
REMARK  Name = 
REMARK  5 active torsions:
REMARK  status: ('A' for Active; 'I' for Inactive)
REMARK    1  A    between atoms: O_5  and  C_10
REMARK    2  A    between atoms: N_9  and  C_20
REMARK    3  A    between atoms: N_9  and  C_25
REMARK    4  A    between atoms: C_10  and  C_11
REMARK    5  A    between atoms: C_18  and  C_19
REMARK                            x       y       z     vdW  Elec       q    Type
REMARK                         _______ _______ _______ _____ _____    ______ ____
ROOT
ATOM      1  F   UNL     1      45.020  -3.425   8.875  0.00  0.00    +0.000 F 
ATOM      2  F   UNL     1      44.517  -3.610  11.521  0.00  0.00    +0.000 F 
ATOM      3  C   UNL     1      42.423  -0.904   9.250  0.00  0.00    +0.000 A 
ATOM      4  C   UNL     1      43.392  -1.708   8.609  0.00  0.00    +0.000 A 
ATOM      5  C   UNL     1      42.157  -1.016  10.625  0.00  0.00    +0.000 A 
ATOM      6  C   UNL     1      44.095  -2.615   9.413  0.00  0.00    +0.000 A 
ATOM      7  C   UNL     1      42.869  -1.935  11.391  0.00  0.00    +0.000 A 
ATOM      8  C   UNL     1      43.832  -2.728  10.779  0.00  0.00    +0.000 A 
ENDROOT
BRANCH   3  14
ATOM      9  O   UNL     1      42.136   1.230   8.348  0.00  0.00    +0.000 OA
ATOM     10  N   UNL     1      40.464  -0.299   7.940  0.00  0.00    +0.000 N 
ATOM     11  C   UNL     1      38.447  -0.094   8.436  0.00  0.00    +0.000 C 
ATOM     12  C   UNL     1      39.500  -1.236   8.513  0.00  0.00    +0.000 C 
ATOM     13  C   UNL     1      39.424   0.598   7.440  0.00  0.00    +0.000 C 
ATOM     14  C   UNL     1      41.675   0.098   8.460  0.00  0.00    +0.000 C 
BRANCH  11  16
ATOM     15  N   UNL     1      37.844   2.131   9.351  0.00  0.00    +0.000 NA
ATOM     16  C   UNL     1      38.223   0.743   9.723  0.00  0.00    +0.000 C 
ATOM     17  C   UNL     1      37.119   0.137  10.607  0.00  0.00    +0.000 C 
ATOM     18  C   UNL     1      36.891   0.986  11.858  0.00  0.00    +0.000 C 
ATOM     19  C   UNL     1      37.750   2.967  10.556  0.00  0.00    +0.000 C 
ATOM     20  C   UNL     1      36.665   2.451  11.500  0.00  0.00    +0.000 C 
ATOM     21  H   UNL     1      36.908   2.099   8.938  0.00  0.00    +0.000 HD
ENDBRANCH  11  16
BRANCH  11  22
ATOM     22  O   UNL     1      37.165  -0.481   7.861  0.00  0.00    +0.000 OA
ATOM     23  H   UNL     1      37.399  -0.725   6.946  0.00  0.00    +0.000 HD
ENDBRANCH  11  22
ENDBRANCH   3  14
BRANCH   4  24
ATOM     24  N   UNL     1      43.670  -1.516   7.238  0.00  0.00    +0.000 N 
ATOM     25  H   UNL     1      42.952  -0.972   6.746  0.00  0.00    +0.000 HD
BRANCH  24  28
ATOM     26  I   UNL     1      48.941  -2.208   3.856  0.00  0.00    +0.000 I 
ATOM     27  F   UNL     1      45.774   0.227   7.431  0.00  0.00    +0.000 F 
ATOM     28  C   UNL     1      44.829  -1.722   6.466  0.00  0.00    +0.000 A 
ATOM     29  C   UNL     1      45.887  -0.801   6.575  0.00  0.00    +0.000 A 
ATOM     30  C   UNL     1      44.987  -2.779   5.566  0.00  0.00    +0.000 A 
ATOM     31  C   UNL     1      47.062  -0.923   5.838  0.00  0.00    +0.000 A 
ATOM     32  C   UNL     1      46.163  -2.916   4.816  0.00  0.00    +0.000 A 
ATOM     33  C   UNL     1      47.196  -1.990   4.957  0.00  0.00    +0.000 A 
ENDBRANCH  24  28
ENDBRANCH   4  24
TORSDOF 5
ENDMDL
MODEL 7
REMARK VINA RESULT:      -5.8     31.140     33.886
REMARK  Name = 
REMARK  5 active torsions:
REMARK  status: ('A' for Active; 'I' for Inactive)
REMARK    1  A    between atoms: O_5  and  C_10
REMARK    2  A    between atoms: N_9  and  C_20
REMARK    3  A    between atoms: N_9  and  C_25
REMARK    4  A    between atoms: C_10  and  C_11
REMARK    5  A    between atoms: C_18  and  C_19
REMARK                            x       y       z     vdW  Elec       q    Type
REMARK                         _______ _______ _______ _____ _____    ______ ____
ROOT
ATOM      1  F   UNL     1      44.401  11.887  14.802  0.00  0.00    +0.000 F 
ATOM      2  F   UNL     1      46.945  12.542  15.422  0.00  0.00    +0.000 F 
ATOM      3  C   UNL     1      44.687  10.428  18.123  0.00  0.00    +0.000 A 
ATOM      4  C   UNL     1      44.093  10.790  16.894  0.00  0.00    +0.000 A 
ATOM      5  C   UNL     1      46.017  10.760  18.433  0.00  0.00    +0.000 A 
ATOM      6  C   UNL     1      44.887  11.519  15.997  0.00  0.00    +0.000 A 
ATOM      7  C   UNL     1      46.779  11.477  17.514  0.00  0.00    +0.000 A 
ATOM      8  C   UNL     1      46.208  11.850  16.303  0.00  0.00    +0.000 A 
ENDROOT
BRANCH   3  14
ATOM      9  O   UNL     1      43.207  10.325  19.925  0.00  0.00    +0.000 OA
ATOM     10  N   UNL     1      44.004   8.319  19.126  0.00  0.00    +0.000 N 
ATOM     11  C   UNL     1      45.046   6.875  20.215  0.00  0.00    +0.000 C 
ATOM     12  C   UNL     1      45.181   7.513  18.803  0.00  0.00    +0.000 C 
ATOM     13  C   UNL     1      43.593   7.436  20.216  0.00  0.00    +0.000 C 
ATOM     14  C   UNL     1      43.887   9.690  19.125  0.00  0.00    +0.000 C 
BRANCH  11  16
ATOM     15  N   UNL     1      46.271   6.421  22.323  0.00  0.00    +0.000 NA
ATOM     16  C   UNL     1      45.916   7.483  21.348  0.00  0.00    +0.000 C 
ATOM     17  C   UNL     1      47.205   8.114  20.794  0.00  0.00    +0.000 C 
ATOM     18  C   UNL     1      48.064   8.685  21.923  0.00  0.00    +0.000 C 
ATOM     19  C   UNL     1      46.989   7.005  23.465  0.00  0.00    +0.000 C 
ATOM     20  C   UNL     1      48.299   7.651  23.018  0.00  0.00    +0.000 C 
ATOM     21  H   UNL     1      46.920   5.777  21.862  0.00  0.00    +0.000 HD
ENDBRANCH  11  16
BRANCH  11  22
ATOM     22  O   UNL     1      45.136   5.421  20.241  0.00  0.00    +0.000 OA
ATOM     23  H   UNL     1      45.201   5.188  19.296  0.00  0.00    +0.000 HD
ENDBRANCH  11  22
ENDBRANCH   3  14
BRANCH   4  24
ATOM     24  N   UNL     1      42.735  10.490  16.652  0.00  0.00    +0.000 N 
ATOM     25  H   UNL     1      42.177  11.306  16.376  0.00  0.00    +0.000 HD
BRANCH  24  28
ATOM     26  I   UNL     1      39.810   4.980  15.762  0.00  0.00    +0.000 I 
ATOM     27  F   UNL     1      43.778   8.518  15.063  0.00  0.00    +0.000 F 
ATOM     28  C   UNL     1      42.045   9.273  16.494  0.00  0.00    +0.000 A 
ATOM     29  C   UNL     1      42.597   8.285  15.659  0.00  0.00    +0.000 A 
ATOM     30  C   UNL     1      40.817   8.991  17.099  0.00  0.00    +0.000 A 
ATOM     31  C   UNL     1      41.974   7.060  15.438  0.00  0.00    +0.000 A 
ATOM     32  C   UNL     1      40.175   7.763  16.886  0.00  0.00    +0.000 A 
ATOM     33  C   UNL     1      40.757   6.803  16.060  0.00  0.00    +0.000 A 
ENDBRANCH  24  28
ENDBRANCH   4  24
TORSDOF 5
ENDMDL
MODEL 8
REMARK VINA RESULT:      -5.6      3.528      6.254
REMARK  Name = 
REMARK  5 active torsions:
REMARK  status: ('A' for Active; 'I' for Inactive)
REMARK    1  A    between atoms: O_5  and  C_10
REMARK    2  A    between atoms: N_9  and  C_20
REMARK    3  A    between atoms: N_9  and  C_25
REMARK    4  A    between atoms: C_10  and  C_11
REMARK    5  A    between atoms: C_18  and  C_19
REMARK                            x       y       z     vdW  Elec       q    Type
REMARK                         _______ _______ _______ _____ _____    ______ ____
ROOT
ATOM      1  F   UNL     1      40.803 -19.602  -5.414  0.00  0.00    +0.000 F 
ATOM      2  F   UNL     1      42.687 -21.254  -4.408  0.00  0.00    +0.000 F 
ATOM      3  C   UNL     1      41.188 -18.234  -2.064  0.00  0.00    +0.000 A 
ATOM      4  C   UNL     1      40.694 -18.366  -3.381  0.00  0.00    +0.000 A 
ATOM      5  C   UNL     1      42.158 -19.107  -1.543  0.00  0.00    +0.000 A 
ATOM      6  C   UNL     1      41.232 -19.401  -4.159  0.00  0.00    +0.000 A 
ATOM      7  C   UNL     1      42.663 -20.130  -2.342  0.00  0.00    +0.000 A 
ATOM      8  C   UNL     1      42.196 -20.269  -3.643  0.00  0.00    +0.000 A 
ENDROOT
BRANCH   3  14
ATOM      9  O   UNL     1      39.555 -17.220  -0.741  0.00  0.00    +0.000 OA
ATOM     10  N   UNL     1      41.516 -16.052  -1.038  0.00  0.00    +0.000 N 
ATOM     11  C   UNL     1      41.708 -14.134  -1.839  0.00  0.00    +0.000 C 
ATOM     12  C   UNL     1      42.466 -15.484  -1.993  0.00  0.00    +0.000 C 
ATOM     13  C   UNL     1      41.102 -14.742  -0.539  0.00  0.00    +0.000 C 
ATOM     14  C   UNL     1      40.685 -17.137  -1.209  0.00  0.00    +0.000 C 
BRANCH  11  16
ATOM     15  N   UNL     1      39.438 -13.215  -2.235  0.00  0.00    +0.000 NA
ATOM     16  C   UNL     1      40.624 -13.811  -2.902  0.00  0.00    +0.000 C 
ATOM     17  C   UNL     1      41.150 -12.833  -3.967  0.00  0.00    +0.000 C 
ATOM     18  C   UNL     1      40.064 -12.503  -4.992  0.00  0.00    +0.000 C 
ATOM     19  C   UNL     1      38.357 -13.020  -3.211  0.00  0.00    +0.000 C 
ATOM     20  C   UNL     1      38.778 -12.047  -4.311  0.00  0.00    +0.000 C 
ATOM     21  H   UNL     1      39.704 -12.288  -1.895  0.00  0.00    +0.000 HD
ENDBRANCH  11  16
BRANCH  11  22
ATOM     22  O   UNL     1      42.562 -12.973  -1.627  0.00  0.00    +0.000 OA
ATOM     23  H   UNL     1      42.809 -13.050  -0.686  0.00  0.00    +0.000 HD
ENDBRANCH  11  22
ENDBRANCH   3  14
BRANCH   4  24
ATOM     24  N   UNL     1      39.766 -17.428  -3.883  0.00  0.00    +0.000 N 
ATOM     25  H   UNL     1      39.051 -17.152  -3.200  0.00  0.00    +0.000 HD
BRANCH  24  28
ATOM     26  I   UNL     1      39.463 -13.869  -9.074  0.00  0.00    +0.000 I 
ATOM     27  F   UNL     1      37.398 -16.454  -4.855  0.00  0.00    +0.000 F 
ATOM     28  C   UNL     1      39.755 -16.629  -5.042  0.00  0.00    +0.000 A 
ATOM     29  C   UNL     1      38.522 -16.157  -5.527  0.00  0.00    +0.000 A 
ATOM     30  C   UNL     1      40.902 -16.295  -5.768  0.00  0.00    +0.000 A 
ATOM     31  C   UNL     1      38.421 -15.373  -6.673  0.00  0.00    +0.000 A 
ATOM     32  C   UNL     1      40.818 -15.508  -6.925  0.00  0.00    +0.000 A 
ATOM     33  C   UNL     1      39.579 -15.048  -7.370  0.00  0.00    +0.000 A 
ENDBRANCH  24  28
ENDBRANCH   4  24
TORSDOF 5
ENDMDL
MODEL 9
REMARK VINA RESULT:      -5.5     39.181     41.948
REMARK  Name = 
REMARK  5 active torsions:
REMARK  status: ('A' for Active; 'I' for Inactive)
REMARK    1  A    between atoms: O_5  and  C_10
REMARK    2  A    between atoms: N_9  and  C_20
REMARK    3  A    between atoms: N_9  and  C_25
REMARK    4  A    between atoms: C_10  and  C_11
REMARK    5  A    between atoms: C_18  and  C_19
REMARK                            x       y       z     vdW  Elec       q    Type
REMARK                         _______ _______ _______ _____ _____    ______ ____
ROOT
ATOM      1  F   UNL     1      40.186 -17.786  38.261  0.00  0.00    +0.000 F 
ATOM      2  F   UNL     1      40.355 -20.008  36.738  0.00  0.00    +0.000 F 
ATOM      3  C   UNL     1      38.163 -16.805  35.399  0.00  0.00    +0.000 A 
ATOM      4  C   UNL     1      38.803 -16.699  36.654  0.00  0.00    +0.000 A 
ATOM      5  C   UNL     1      38.269 -17.960  34.606  0.00  0.00    +0.000 A 
ATOM      6  C   UNL     1      39.536 -17.813  37.087  0.00  0.00    +0.000 A 
ATOM      7  C   UNL     1      39.014 -19.043  35.064  0.00  0.00    +0.000 A 
ATOM      8  C   UNL     1      39.642 -18.961  36.300  0.00  0.00    +0.000 A 
ENDROOT
BRANCH   3  14
ATOM      9  O   UNL     1      37.907 -14.720  34.381  0.00  0.00    +0.000 OA
ATOM     10  N   UNL     1      35.987 -15.751  35.125  0.00  0.00    +0.000 N 
ATOM     11  C   UNL     1      34.616 -14.977  36.495  0.00  0.00    +0.000 C 
ATOM     12  C   UNL     1      35.288 -16.359  36.255  0.00  0.00    +0.000 C 
ATOM     13  C   UNL     1      35.055 -14.628  35.041  0.00  0.00    +0.000 C 
ATOM     14  C   UNL     1      37.345 -15.676  34.906  0.00  0.00    +0.000 C 
BRANCH  11  16
ATOM     15  N   UNL     1      35.336 -12.663  37.020  0.00  0.00    +0.000 NA
ATOM     16  C   UNL     1      35.273 -14.049  37.551  0.00  0.00    +0.000 C 
ATOM     17  C   UNL     1      34.485 -14.049  38.872  0.00  0.00    +0.000 C 
ATOM     18  C   UNL     1      35.128 -13.111  39.894  0.00  0.00    +0.000 C 
ATOM     19  C   UNL     1      36.067 -11.798  37.957  0.00  0.00    +0.000 C 
ATOM     20  C   UNL     1      35.354 -11.722  39.306  0.00  0.00    +0.000 C 
ATOM     21  H   UNL     1      34.379 -12.304  36.969  0.00  0.00    +0.000 HD
ENDBRANCH  11  16
BRANCH  11  22
ATOM     22  O   UNL     1      33.173 -15.025  36.699  0.00  0.00    +0.000 OA
ATOM     23  H   UNL     1      33.047 -14.489  37.504  0.00  0.00    +0.000 HD
ENDBRANCH  11  22
ENDBRANCH   3  14
BRANCH   4  24
ATOM     24  N   UNL     1      38.618 -15.544  37.444  0.00  0.00    +0.000 N 
ATOM     25  H   UNL     1      38.491 -14.687  36.894  0.00  0.00    +0.000 HD
BRANCH  24  28
ATOM     26  I   UNL     1      37.225 -14.912  43.557  0.00  0.00    +0.000 I 
ATOM     27  F   UNL     1      36.924 -17.259  38.746  0.00  0.00    +0.000 F 
ATOM     28  C   UNL     1      38.347 -15.363  38.814  0.00  0.00    +0.000 A 
ATOM     29  C   UNL     1      37.461 -16.251  39.452  0.00  0.00    +0.000 A 
ATOM     30  C   UNL     1      38.886 -14.329  39.584  0.00  0.00    +0.000 A 
ATOM     31  C   UNL     1      37.129 -16.135  40.799  0.00  0.00    +0.000 A 
ATOM     32  C   UNL     1      38.562 -14.198  40.941  0.00  0.00    +0.000 A 
ATOM     33  C   UNL     1      37.688 -15.102  41.543  0.00  0.00    +0.000 A 
ENDBRANCH  24  28
ENDBRANCH   4  24
TORSDOF 5
ENDMDL
