MODEL 1
REMARK VINA RESULT:      -6.8      0.000      0.000
REMARK  Name = COUMESTROL.pdbqt.pdb
REMARK  2 active torsions:
REMARK  status: ('A' for Active; 'I' for Inactive)
REMARK    1  A    between atoms: C_16  and  O_19
REMARK    2  A    between atoms: C_18  and  O_21
REMARK                            x       y       z     vdW  Elec       q    Type
REMARK                         _______ _______ _______ _____ _____    ______ ____
ROOT
ATOM      1  O   UNL     1      43.549 -16.661  -3.515  0.00  0.00    +0.000 OA
ATOM      2  O   UNL     1      43.639 -12.788  -2.221  0.00  0.00    +0.000 OA
ATOM      3  O   UNL     1      41.912 -13.322  -0.783  0.00  0.00    +0.000 OA
ATOM      4  C   UNL     1      42.739 -15.033  -2.172  0.00  0.00    +0.000 A 
ATOM      5  C   UNL     1      43.645 -15.366  -3.145  0.00  0.00    +0.000 A 
ATOM      6  C   UNL     1      42.007 -16.217  -1.904  0.00  0.00    +0.000 A 
ATOM      7  C   UNL     1      44.603 -14.477  -3.731  0.00  0.00    +0.000 A 
ATOM      8  C   UNL     1      42.542 -17.189  -2.754  0.00  0.00    +0.000 A 
ATOM      9  C   UNL     1      44.573 -13.165  -3.236  0.00  0.00    +0.000 A 
ATOM     10  C   UNL     1      42.695 -13.686  -1.651  0.00  0.00    +0.000 A 
ATOM     11  C   UNL     1      40.958 -16.579  -1.044  0.00  0.00    +0.000 A 
ATOM     12  C   UNL     1      45.517 -14.827  -4.717  0.00  0.00    +0.000 A 
ATOM     13  C   UNL     1      42.102 -18.512  -2.811  0.00  0.00    +0.000 A 
ATOM     14  C   UNL     1      45.443 -12.191  -3.709  0.00  0.00    +0.000 A 
ATOM     15  C   UNL     1      40.493 -17.897  -1.075  0.00  0.00    +0.000 A 
ATOM     16  C   UNL     1      41.058 -18.831  -1.940  0.00  0.00    +0.000 A 
ATOM     17  C   UNL     1      46.396 -13.859  -5.201  0.00  0.00    +0.000 A 
ATOM     18  C   UNL     1      46.352 -12.557  -4.696  0.00  0.00    +0.000 A 
ENDROOT
BRANCH  16  19
ATOM     19  O   UNL     1      40.553 -20.104  -1.918  0.00  0.00    +0.000 OA
ATOM     20  H   UNL     1      40.820 -20.525  -1.083  0.00  0.00    +0.000 HD
ENDBRANCH  16  19
BRANCH  18  21
ATOM     21  O   UNL     1      47.210 -11.604  -5.166  0.00  0.00    +0.000 OA
ATOM     22  H   UNL     1      47.318 -10.922  -4.479  0.00  0.00    +0.000 HD
ENDBRANCH  18  21
TORSDOF 2
ENDMDL
MODEL 2
REMARK VINA RESULT:      -6.6     51.596     53.646
REMARK  Name = COUMESTROL.pdbqt.pdb
REMARK  2 active torsions:
REMARK  status: ('A' for Active; 'I' for Inactive)
REMARK    1  A    between atoms: C_16  and  O_19
REMARK    2  A    between atoms: C_18  and  O_21
REMARK                            x       y       z     vdW  Elec       q    Type
REMARK                         _______ _______ _______ _____ _____    ______ ____
ROOT
ATOM      1  O   UNL     1      25.828  22.542  30.209  0.00  0.00    +0.000 OA
ATOM      2  O   UNL     1      28.667  22.085  33.110  0.00  0.00    +0.000 OA
ATOM      3  O   UNL     1      26.945  21.798  34.625  0.00  0.00    +0.000 OA
ATOM      4  C   UNL     1      26.364  22.177  32.375  0.00  0.00    +0.000 A 
ATOM      5  C   UNL     1      26.829  22.403  31.106  0.00  0.00    +0.000 A 
ATOM      6  C   UNL     1      24.950  22.173  32.274  0.00  0.00    +0.000 A 
ATOM      7  C   UNL     1      28.207  22.490  30.726  0.00  0.00    +0.000 A 
ATOM      8  C   UNL     1      24.669  22.401  30.923  0.00  0.00    +0.000 A 
ATOM      9  C   UNL     1      29.121  22.323  31.776  0.00  0.00    +0.000 A 
ATOM     10  C   UNL     1      27.293  22.003  33.468  0.00  0.00    +0.000 A 
ATOM     11  C   UNL     1      23.877  22.003  33.164  0.00  0.00    +0.000 A 
ATOM     12  C   UNL     1      28.665  22.720  29.435  0.00  0.00    +0.000 A 
ATOM     13  C   UNL     1      23.384  22.474  30.389  0.00  0.00    +0.000 A 
ATOM     14  C   UNL     1      30.492  22.381  31.561  0.00  0.00    +0.000 A 
ATOM     15  C   UNL     1      22.574  22.069  32.661  0.00  0.00    +0.000 A 
ATOM     16  C   UNL     1      22.345  22.300  31.307  0.00  0.00    +0.000 A 
ATOM     17  C   UNL     1      30.039  22.780  29.204  0.00  0.00    +0.000 A 
ATOM     18  C   UNL     1      30.936  22.612  30.263  0.00  0.00    +0.000 A 
ENDROOT
BRANCH  16  19
ATOM     19  O   UNL     1      21.044  22.352  30.884  0.00  0.00    +0.000 OA
ATOM     20  H   UNL     1      20.465  22.276  31.662  0.00  0.00    +0.000 HD
ENDBRANCH  16  19
BRANCH  18  21
ATOM     21  O   UNL     1      32.283  22.670  30.044  0.00  0.00    +0.000 OA
ATOM     22  H   UNL     1      32.556  23.604  30.051  0.00  0.00    +0.000 HD
ENDBRANCH  18  21
TORSDOF 2
ENDMDL
MODEL 3
REMARK VINA RESULT:      -6.5     18.879     20.425
REMARK  Name = COUMESTROL.pdbqt.pdb
REMARK  2 active torsions:
REMARK  status: ('A' for Active; 'I' for Inactive)
REMARK    1  A    between atoms: C_16  and  O_19
REMARK    2  A    between atoms: C_18  and  O_21
REMARK                            x       y       z     vdW  Elec       q    Type
REMARK                         _______ _______ _______ _____ _____    ______ ____
ROOT
ATOM      1  O   UNL     1      40.094  -1.868  10.019  0.00  0.00    +0.000 OA
ATOM      2  O   UNL     1      42.474   0.737  12.076  0.00  0.00    +0.000 OA
ATOM      3  O   UNL     1      40.716   2.235  12.038  0.00  0.00    +0.000 OA
ATOM      4  C   UNL     1      40.387   0.145  11.005  0.00  0.00    +0.000 A 
ATOM      5  C   UNL     1      40.945  -1.068  10.697  0.00  0.00    +0.000 A 
ATOM      6  C   UNL     1      39.072   0.111  10.477  0.00  0.00    +0.000 A 
ATOM      7  C   UNL     1      42.272  -1.485  11.035  0.00  0.00    +0.000 A 
ATOM      8  C   UNL     1      38.939  -1.146   9.881  0.00  0.00    +0.000 A 
ATOM      9  C   UNL     1      43.028  -0.537  11.741  0.00  0.00    +0.000 A 
ATOM     10  C   UNL     1      41.153   1.133  11.731  0.00  0.00    +0.000 A 
ATOM     11  C   UNL     1      37.982   0.995  10.434  0.00  0.00    +0.000 A 
ATOM     12  C   UNL     1      42.826  -2.719  10.717  0.00  0.00    +0.000 A 
ATOM     13  C   UNL     1      37.786  -1.593   9.237  0.00  0.00    +0.000 A 
ATOM     14  C   UNL     1      44.334  -0.799  12.137  0.00  0.00    +0.000 A 
ATOM     15  C   UNL     1      36.809   0.579   9.796  0.00  0.00    +0.000 A 
ATOM     16  C   UNL     1      36.725  -0.685   9.216  0.00  0.00    +0.000 A 
ATOM     17  C   UNL     1      44.136  -2.996  11.109  0.00  0.00    +0.000 A 
ATOM     18  C   UNL     1      44.874  -2.039  11.811  0.00  0.00    +0.000 A 
ENDROOT
BRANCH  16  19
ATOM     19  O   UNL     1      35.546  -1.027   8.608  0.00  0.00    +0.000 OA
ATOM     20  H   UNL     1      34.845  -0.445   8.949  0.00  0.00    +0.000 HD
ENDBRANCH  16  19
BRANCH  18  21
ATOM     21  O   UNL     1      46.158  -2.303  12.198  0.00  0.00    +0.000 OA
ATOM     22  H   UNL     1      46.315  -3.260  12.110  0.00  0.00    +0.000 HD
ENDBRANCH  18  21
TORSDOF 2
ENDMDL
MODEL 4
REMARK VINA RESULT:      -6.3     18.252     18.792
REMARK  Name = COUMESTROL.pdbqt.pdb
REMARK  2 active torsions:
REMARK  status: ('A' for Active; 'I' for Inactive)
REMARK    1  A    between atoms: C_16  and  O_19
REMARK    2  A    between atoms: C_18  and  O_21
REMARK                            x       y       z     vdW  Elec       q    Type
REMARK                         _______ _______ _______ _____ _____    ______ ____
ROOT
ATOM      1  O   UNL     1      40.337  -2.003   9.691  0.00  0.00    +0.000 OA
ATOM      2  O   UNL     1      43.621  -0.441   7.830  0.00  0.00    +0.000 OA
ATOM      3  O   UNL     1      42.182   0.882   6.598  0.00  0.00    +0.000 OA
ATOM      4  C   UNL     1      41.230  -0.586   8.173  0.00  0.00    +0.000 A 
ATOM      5  C   UNL     1      41.473  -1.540   9.126  0.00  0.00    +0.000 A 
ATOM      6  C   UNL     1      39.822  -0.432   8.131  0.00  0.00    +0.000 A 
ATOM      7  C   UNL     1      42.765  -2.023   9.512  0.00  0.00    +0.000 A 
ATOM      8  C   UNL     1      39.318  -1.324   9.082  0.00  0.00    +0.000 A 
ATOM      9  C   UNL     1      43.842  -1.439   8.829  0.00  0.00    +0.000 A 
ATOM     10  C   UNL     1      42.329   0.025   7.460  0.00  0.00    +0.000 A 
ATOM     11  C   UNL     1      38.917   0.356   7.402  0.00  0.00    +0.000 A 
ATOM     12  C   UNL     1      42.998  -2.991  10.480  0.00  0.00    +0.000 A 
ATOM     13  C   UNL     1      37.962  -1.491   9.363  0.00  0.00    +0.000 A 
ATOM     14  C   UNL     1      45.155  -1.807   9.096  0.00  0.00    +0.000 A 
ATOM     15  C   UNL     1      37.549   0.215   7.659  0.00  0.00    +0.000 A 
ATOM     16  C   UNL     1      37.095  -0.689   8.617  0.00  0.00    +0.000 A 
ATOM     17  C   UNL     1      44.311  -3.370  10.758  0.00  0.00    +0.000 A 
ATOM     18  C   UNL     1      45.373  -2.778  10.067  0.00  0.00    +0.000 A 
ENDROOT
BRANCH  16  19
ATOM     19  O   UNL     1      35.743  -0.776   8.816  0.00  0.00    +0.000 OA
ATOM     20  H   UNL     1      35.492  -0.131   9.500  0.00  0.00    +0.000 HD
ENDBRANCH  16  19
BRANCH  18  21
ATOM     21  O   UNL     1      46.661  -3.144  10.335  0.00  0.00    +0.000 OA
ATOM     22  H   UNL     1      46.773  -4.079  10.091  0.00  0.00    +0.000 HD
ENDBRANCH  18  21
TORSDOF 2
ENDMDL
MODEL 5
REMARK VINA RESULT:      -6.2     31.947     34.964
REMARK  Name = COUMESTROL.pdbqt.pdb
REMARK  2 active torsions:
REMARK  status: ('A' for Active; 'I' for Inactive)
REMARK    1  A    between atoms: C_16  and  O_19
REMARK    2  A    between atoms: C_18  and  O_21
REMARK                            x       y       z     vdW  Elec       q    Type
REMARK                         _______ _______ _______ _____ _____    ______ ____
ROOT
ATOM      1  O   UNL     1      21.741 -14.193  23.393  0.00  0.00    +0.000 OA
ATOM      2  O   UNL     1      21.375 -10.531  25.165  0.00  0.00    +0.000 OA
ATOM      3  O   UNL     1      23.682 -10.455  25.279  0.00  0.00    +0.000 OA
ATOM      4  C   UNL     1      22.702 -12.367  24.315  0.00  0.00    +0.000 A 
ATOM      5  C   UNL     1      21.532 -12.991  23.972  0.00  0.00    +0.000 A 
ATOM      6  C   UNL     1      23.740 -13.247  23.920  0.00  0.00    +0.000 A 
ATOM      7  C   UNL     1      20.215 -12.468  24.183  0.00  0.00    +0.000 A 
ATOM      8  C   UNL     1      23.099 -14.356  23.359  0.00  0.00    +0.000 A 
ATOM      9  C   UNL     1      20.171 -11.207  24.796  0.00  0.00    +0.000 A 
ATOM     10  C   UNL     1      22.674 -11.068  24.947  0.00  0.00    +0.000 A 
ATOM     11  C   UNL     1      25.144 -13.237  23.972  0.00  0.00    +0.000 A 
ATOM     12  C   UNL     1      19.036 -13.112  23.831  0.00  0.00    +0.000 A 
ATOM     13  C   UNL     1      23.761 -15.468  22.839  0.00  0.00    +0.000 A 
ATOM     14  C   UNL     1      18.965 -10.573  25.065  0.00  0.00    +0.000 A 
ATOM     15  C   UNL     1      25.840 -14.336  23.459  0.00  0.00    +0.000 A 
ATOM     16  C   UNL     1      25.155 -15.418  22.909  0.00  0.00    +0.000 A 
ATOM     17  C   UNL     1      17.817 -12.487  24.095  0.00  0.00    +0.000 A 
ATOM     18  C   UNL     1      17.792 -11.230  24.706  0.00  0.00    +0.000 A 
ENDROOT
BRANCH  16  19
ATOM     19  O   UNL     1      25.901 -16.460  22.426  0.00  0.00    +0.000 OA
ATOM     20  H   UNL     1      26.563 -16.701  23.097  0.00  0.00    +0.000 HD
ENDBRANCH  16  19
BRANCH  18  21
ATOM     21  O   UNL     1      16.602 -10.612  24.968  0.00  0.00    +0.000 OA
ATOM     22  H   UNL     1      16.180 -10.386  24.121  0.00  0.00    +0.000 HD
ENDBRANCH  18  21
TORSDOF 2
ENDMDL
MODEL 6
REMARK VINA RESULT:      -6.2      3.968      6.380
REMARK  Name = COUMESTROL.pdbqt.pdb
REMARK  2 active torsions:
REMARK  status: ('A' for Active; 'I' for Inactive)
REMARK    1  A    between atoms: C_16  and  O_19
REMARK    2  A    between atoms: C_18  and  O_21
REMARK                            x       y       z     vdW  Elec       q    Type
REMARK                         _______ _______ _______ _____ _____    ______ ____
ROOT
ATOM      1  O   UNL     1      39.018 -16.650  -2.028  0.00  0.00    +0.000 OA
ATOM      2  O   UNL     1      42.747 -18.309  -2.202  0.00  0.00    +0.000 OA
ATOM      3  O   UNL     1      43.469 -16.612  -0.810  0.00  0.00    +0.000 OA
ATOM      4  C   UNL     1      41.196 -16.622  -1.425  0.00  0.00    +0.000 A 
ATOM      5  C   UNL     1      40.217 -17.261  -2.139  0.00  0.00    +0.000 A 
ATOM      6  C   UNL     1      40.564 -15.512  -0.810  0.00  0.00    +0.000 A 
ATOM      7  C   UNL     1      40.397 -18.444  -2.926  0.00  0.00    +0.000 A 
ATOM      8  C   UNL     1      39.226 -15.573  -1.211  0.00  0.00    +0.000 A 
ATOM      9  C   UNL     1      41.704 -18.954  -2.937  0.00  0.00    +0.000 A 
ATOM     10  C   UNL     1      42.548 -17.134  -1.425  0.00  0.00    +0.000 A 
ATOM     11  C   UNL     1      40.966 -14.466   0.036  0.00  0.00    +0.000 A 
ATOM     12  C   UNL     1      39.396 -19.083  -3.646  0.00  0.00    +0.000 A 
ATOM     13  C   UNL     1      38.248 -14.657  -0.826  0.00  0.00    +0.000 A 
ATOM     14  C   UNL     1      42.031 -20.096  -3.656  0.00  0.00    +0.000 A 
ATOM     15  C   UNL     1      40.010 -13.530   0.442  0.00  0.00    +0.000 A 
ATOM     16  C   UNL     1      38.688 -13.633   0.016  0.00  0.00    +0.000 A 
ATOM     17  C   UNL     1      39.710 -20.231  -4.373  0.00  0.00    +0.000 A 
ATOM     18  C   UNL     1      41.017 -20.725  -4.372  0.00  0.00    +0.000 A 
ENDROOT
BRANCH  16  19
ATOM     19  O   UNL     1      37.805 -12.681   0.452  0.00  0.00    +0.000 OA
ATOM     20  H   UNL     1      38.240 -12.153   1.144  0.00  0.00    +0.000 HD
ENDBRANCH  16  19
BRANCH  18  21
ATOM     21  O   UNL     1      41.332 -21.849  -5.082  0.00  0.00    +0.000 OA
ATOM     22  H   UNL     1      41.053 -21.718  -6.005  0.00  0.00    +0.000 HD
ENDBRANCH  18  21
TORSDOF 2
ENDMDL
MODEL 7
REMARK VINA RESULT:      -6.2     32.540     34.761
REMARK  Name = COUMESTROL.pdbqt.pdb
REMARK  2 active torsions:
REMARK  status: ('A' for Active; 'I' for Inactive)
REMARK    1  A    between atoms: C_16  and  O_19
REMARK    2  A    between atoms: C_18  and  O_21
REMARK                            x       y       z     vdW  Elec       q    Type
REMARK                         _______ _______ _______ _____ _____    ______ ____
ROOT
ATOM      1  O   UNL     1      46.679  10.326  20.317  0.00  0.00    +0.000 OA
ATOM      2  O   UNL     1      45.187   6.921  22.010  0.00  0.00    +0.000 OA
ATOM      3  O   UNL     1      47.198   6.701  23.126  0.00  0.00    +0.000 OA
ATOM      4  C   UNL     1      46.944   8.554  21.695  0.00  0.00    +0.000 A 
ATOM      5  C   UNL     1      46.110   9.214  20.831  0.00  0.00    +0.000 A 
ATOM      6  C   UNL     1      48.141   9.312  21.732  0.00  0.00    +0.000 A 
ATOM      7  C   UNL     1      44.782   8.810  20.482  0.00  0.00    +0.000 A 
ATOM      8  C   UNL     1      47.930  10.391  20.868  0.00  0.00    +0.000 A 
ATOM      9  C   UNL     1      44.340   7.632  21.103  0.00  0.00    +0.000 A 
ATOM     10  C   UNL     1      46.504   7.340  22.343  0.00  0.00    +0.000 A 
ATOM     11  C   UNL     1      49.376   9.212  22.392  0.00  0.00    +0.000 A 
ATOM     12  C   UNL     1      43.946   9.488  19.604  0.00  0.00    +0.000 A 
ATOM     13  C   UNL     1      48.869  11.389  20.612  0.00  0.00    +0.000 A 
ATOM     14  C   UNL     1      43.073   7.116  20.863  0.00  0.00    +0.000 A 
ATOM     15  C   UNL     1      50.342  10.196  22.158  0.00  0.00    +0.000 A 
ATOM     16  C   UNL     1      50.083  11.253  21.288  0.00  0.00    +0.000 A 
ATOM     17  C   UNL     1      42.671   8.981  19.353  0.00  0.00    +0.000 A 
ATOM     18  C   UNL     1      42.248   7.807  19.981  0.00  0.00    +0.000 A 
ENDROOT
BRANCH  16  19
ATOM     19  O   UNL     1      51.074  12.180  21.106  0.00  0.00    +0.000 OA
ATOM     20  H   UNL     1      51.916  11.793  21.401  0.00  0.00    +0.000 HD
ENDBRANCH  16  19
BRANCH  18  21
ATOM     21  O   UNL     1      41.000   7.305  19.740  0.00  0.00    +0.000 OA
ATOM     22  H   UNL     1      41.007   6.353  19.942  0.00  0.00    +0.000 HD
ENDBRANCH  18  21
TORSDOF 2
ENDMDL
MODEL 8
REMARK VINA RESULT:      -6.1     19.422     22.000
REMARK  Name = COUMESTROL.pdbqt.pdb
REMARK  2 active torsions:
REMARK  status: ('A' for Active; 'I' for Inactive)
REMARK    1  A    between atoms: C_16  and  O_19
REMARK    2  A    between atoms: C_18  and  O_21
REMARK                            x       y       z     vdW  Elec       q    Type
REMARK                         _______ _______ _______ _____ _____    ______ ____
ROOT
ATOM      1  O   UNL     1      40.514   1.929  11.406  0.00  0.00    +0.000 OA
ATOM      2  O   UNL     1      40.011  -1.947  10.221  0.00  0.00    +0.000 OA
ATOM      3  O   UNL     1      42.135  -2.375  11.022  0.00  0.00    +0.000 OA
ATOM      4  C   UNL     1      41.318  -0.176  11.223  0.00  0.00    +0.000 A 
ATOM      5  C   UNL     1      40.266   0.670  10.985  0.00  0.00    +0.000 A 
ATOM      6  C   UNL     1      42.316   0.614  11.848  0.00  0.00    +0.000 A 
ATOM      7  C   UNL     1      39.028   0.306  10.365  0.00  0.00    +0.000 A 
ATOM      8  C   UNL     1      41.774   1.900  11.938  0.00  0.00    +0.000 A 
ATOM      9  C   UNL     1      38.930  -1.041   9.986  0.00  0.00    +0.000 A 
ATOM     10  C   UNL     1      41.233  -1.566  10.839  0.00  0.00    +0.000 A 
ATOM     11  C   UNL     1      43.610   0.393  12.346  0.00  0.00    +0.000 A 
ATOM     12  C   UNL     1      37.969   1.173  10.129  0.00  0.00    +0.000 A 
ATOM     13  C   UNL     1      42.436   2.994  12.495  0.00  0.00    +0.000 A 
ATOM     14  C   UNL     1      37.789  -1.541   9.372  0.00  0.00    +0.000 A 
ATOM     15  C   UNL     1      44.302   1.469  12.911  0.00  0.00    +0.000 A 
ATOM     16  C   UNL     1      43.719   2.732  12.978  0.00  0.00    +0.000 A 
ATOM     17  C   UNL     1      36.817   0.685   9.514  0.00  0.00    +0.000 A 
ATOM     18  C   UNL     1      36.737  -0.660   9.143  0.00  0.00    +0.000 A 
ENDROOT
BRANCH  16  19
ATOM     19  O   UNL     1      44.454   3.740  13.545  0.00  0.00    +0.000 OA
ATOM     20  H   UNL     1      43.909   4.545  13.561  0.00  0.00    +0.000 HD
ENDBRANCH  16  19
BRANCH  18  21
ATOM     21  O   UNL     1      35.611  -1.145   8.540  0.00  0.00    +0.000 OA
ATOM     22  H   UNL     1      35.775  -1.202   7.582  0.00  0.00    +0.000 HD
ENDBRANCH  18  21
TORSDOF 2
ENDMDL
MODEL 9
REMARK VINA RESULT:      -6.0     52.142     54.685
REMARK  Name = COUMESTROL.pdbqt.pdb
REMARK  2 active torsions:
REMARK  status: ('A' for Active; 'I' for Inactive)
REMARK    1  A    between atoms: C_16  and  O_19
REMARK    2  A    between atoms: C_18  and  O_21
REMARK                            x       y       z     vdW  Elec       q    Type
REMARK                         _______ _______ _______ _____ _____    ______ ____
ROOT
ATOM      1  O   UNL     1      30.434  23.760  32.931  0.00  0.00    +0.000 OA
ATOM      2  O   UNL     1      27.270  21.574  34.307  0.00  0.00    +0.000 OA
ATOM      3  O   UNL     1      26.866  20.947  32.120  0.00  0.00    +0.000 OA
ATOM      4  C   UNL     1      28.689  22.382  32.522  0.00  0.00    +0.000 A 
ATOM      5  C   UNL     1      29.408  23.064  33.468  0.00  0.00    +0.000 A 
ATOM      6  C   UNL     1      29.311  22.670  31.282  0.00  0.00    +0.000 A 
ATOM      7  C   UNL     1      29.141  23.070  34.875  0.00  0.00    +0.000 A 
ATOM      8  C   UNL     1      30.379  23.520  31.585  0.00  0.00    +0.000 A 
ATOM      9  C   UNL     1      28.040  22.297  35.270  0.00  0.00    +0.000 A 
ATOM     10  C   UNL     1      27.552  21.581  32.913  0.00  0.00    +0.000 A 
ATOM     11  C   UNL     1      29.098  22.311  29.941  0.00  0.00    +0.000 A 
ATOM     12  C   UNL     1      29.879  23.766  35.824  0.00  0.00    +0.000 A 
ATOM     13  C   UNL     1      31.259  24.045  30.640  0.00  0.00    +0.000 A 
ATOM     14  C   UNL     1      27.659  22.205  36.603  0.00  0.00    +0.000 A 
ATOM     15  C   UNL     1      29.962  22.820  28.966  0.00  0.00    +0.000 A 
ATOM     16  C   UNL     1      31.012  23.665  29.319  0.00  0.00    +0.000 A 
ATOM     17  C   UNL     1      29.507  23.683  37.166  0.00  0.00    +0.000 A 
ATOM     18  C   UNL     1      28.407  22.908  37.542  0.00  0.00    +0.000 A 
ENDROOT
BRANCH  16  19
ATOM     19  O   UNL     1      31.819  24.126  28.313  0.00  0.00    +0.000 OA
ATOM     20  H   UNL     1      32.719  24.233  28.667  0.00  0.00    +0.000 HD
ENDBRANCH  16  19
BRANCH  18  21
ATOM     21  O   UNL     1      28.038  22.822  38.854  0.00  0.00    +0.000 OA
ATOM     22  H   UNL     1      27.116  23.123  38.935  0.00  0.00    +0.000 HD
ENDBRANCH  18  21
TORSDOF 2
ENDMDL
