MODEL 1
REMARK VINA RESULT:      -8.6      0.000      0.000
REMARK  Name = CP466722.pdbqt.pdb
REMARK  3 active torsions:
REMARK  status: ('A' for Active; 'I' for Inactive)
REMARK    1  A    between atoms: C_5  and  C_23
REMARK    2  A    between atoms: C_14  and  O_16
REMARK    3  A    between atoms: C_15  and  O_18
REMARK                            x       y       z     vdW  Elec       q    Type
REMARK                         _______ _______ _______ _____ _____    ______ ____
ROOT
ATOM      1  N   UNL     1      32.234  -1.510  39.614  0.00  0.00    +0.000 N 
ATOM      2  N   UNL     1      32.339  -0.529  38.688  0.00  0.00    +0.000 NA
ATOM      3  N   UNL     1      30.167  -1.177  38.902  0.00  0.00    +0.000 NA
ATOM      4  C   UNL     1      30.892  -1.878  39.736  0.00  0.00    +0.000 A 
ATOM      5  C   UNL     1      31.075  -0.354  38.276  0.00  0.00    +0.000 A 
ATOM      6  C   UNL     1      33.368  -2.067  40.296  0.00  0.00    +0.000 A 
ATOM      7  N   UNL     1      33.133  -3.137  41.101  0.00  0.00    +0.000 NA
ATOM      8  C   UNL     1      34.194  -3.669  41.718  0.00  0.00    +0.000 A 
ATOM      9  N   UNL     1      35.455  -3.243  41.600  0.00  0.00    +0.000 NA
ATOM     10  C   UNL     1      35.678  -2.191  40.809  0.00  0.00    +0.000 A 
ATOM     11  C   UNL     1      34.657  -1.530  40.113  0.00  0.00    +0.000 A 
ATOM     12  C   UNL     1      36.986  -1.745  40.672  0.00  0.00    +0.000 A 
ATOM     13  C   UNL     1      35.002  -0.405  39.327  0.00  0.00    +0.000 A 
ATOM     14  C   UNL     1      36.309   0.057  39.227  0.00  0.00    +0.000 A 
ATOM     15  C   UNL     1      37.319  -0.656  39.863  0.00  0.00    +0.000 A 
ATOM     16  N   UNL     1      30.423  -2.808  40.590  0.00  0.00    +0.000 N 
ATOM     17  H   UNL     1      29.488  -3.170  40.437  0.00  0.00    +0.000 HD
ATOM     18  H   UNL     1      31.074  -3.454  41.036  0.00  0.00    +0.000 HD
ENDROOT
BRANCH   5  19
ATOM     19  C   UNL     1      30.671   0.613  37.251  0.00  0.00    +0.000 A 
ATOM     20  N   UNL     1      29.549   0.345  36.527  0.00  0.00    +0.000 NA
ATOM     21  C   UNL     1      29.199   1.251  35.588  0.00  0.00    +0.000 A 
ATOM     22  C   UNL     1      29.902   2.414  35.328  0.00  0.00    +0.000 A 
ATOM     23  C   UNL     1      31.040   2.661  36.085  0.00  0.00    +0.000 A 
ATOM     24  C   UNL     1      31.437   1.756  37.060  0.00  0.00    +0.000 A 
ENDBRANCH   5  19
BRANCH  14  25
ATOM     25  O   UNL     1      36.558   1.139  38.427  0.00  0.00    +0.000 OA
ATOM     26  C   UNL     1      36.295   2.333  39.120  0.00  0.00    +0.000 C 
ENDBRANCH  14  25
BRANCH  15  27
ATOM     27  O   UNL     1      38.625  -0.256  39.780  0.00  0.00    +0.000 OA
ATOM     28  C   UNL     1      39.176  -0.653  38.549  0.00  0.00    +0.000 C 
ENDBRANCH  15  27
TORSDOF 3
ENDMDL
MODEL 2
REMARK VINA RESULT:      -8.2     24.981     27.644
REMARK  Name = CP466722.pdbqt.pdb
REMARK  3 active torsions:
REMARK  status: ('A' for Active; 'I' for Inactive)
REMARK    1  A    between atoms: C_5  and  C_23
REMARK    2  A    between atoms: C_14  and  O_16
REMARK    3  A    between atoms: C_15  and  O_18
REMARK                            x       y       z     vdW  Elec       q    Type
REMARK                         _______ _______ _______ _____ _____    ______ ____
ROOT
ATOM      1  N   UNL     1      37.655   2.729  13.502  0.00  0.00    +0.000 N 
ATOM      2  N   UNL     1      36.756   1.718  13.519  0.00  0.00    +0.000 NA
ATOM      3  N   UNL     1      36.849   2.721  15.561  0.00  0.00    +0.000 NA
ATOM      4  C   UNL     1      37.681   3.335  14.760  0.00  0.00    +0.000 A 
ATOM      5  C   UNL     1      36.290   1.738  14.777  0.00  0.00    +0.000 A 
ATOM      6  C   UNL     1      38.452   3.048  12.352  0.00  0.00    +0.000 A 
ATOM      7  N   UNL     1      39.410   3.999  12.515  0.00  0.00    +0.000 NA
ATOM      8  C   UNL     1      40.167   4.279  11.448  0.00  0.00    +0.000 A 
ATOM      9  N   UNL     1      40.063   3.697  10.250  0.00  0.00    +0.000 NA
ATOM     10  C   UNL     1      39.122   2.765  10.096  0.00  0.00    +0.000 A 
ATOM     11  C   UNL     1      38.251   2.384  11.126  0.00  0.00    +0.000 A 
ATOM     12  C   UNL     1      39.012   2.147   8.858  0.00  0.00    +0.000 A 
ATOM     13  C   UNL     1      37.266   1.407  10.844  0.00  0.00    +0.000 A 
ATOM     14  C   UNL     1      37.141   0.822   9.589  0.00  0.00    +0.000 A 
ATOM     15  C   UNL     1      38.060   1.157   8.603  0.00  0.00    +0.000 A 
ATOM     16  N   UNL     1      38.444   4.396  15.089  0.00  0.00    +0.000 N 
ATOM     17  H   UNL     1      38.571   4.608  16.073  0.00  0.00    +0.000 HD
ATOM     18  H   UNL     1      39.216   4.666  14.481  0.00  0.00    +0.000 HD
ENDROOT
BRANCH   5  19
ATOM     19  C   UNL     1      35.283   0.807  15.295  0.00  0.00    +0.000 A 
ATOM     20  N   UNL     1      35.380   0.421  16.597  0.00  0.00    +0.000 NA
ATOM     21  C   UNL     1      34.441  -0.438  17.051  0.00  0.00    +0.000 A 
ATOM     22  C   UNL     1      33.405  -0.935  16.280  0.00  0.00    +0.000 A 
ATOM     23  C   UNL     1      33.330  -0.521  14.956  0.00  0.00    +0.000 A 
ATOM     24  C   UNL     1      34.276   0.360  14.449  0.00  0.00    +0.000 A 
ENDBRANCH   5  19
BRANCH  14  25
ATOM     25  O   UNL     1      36.175  -0.130   9.410  0.00  0.00    +0.000 OA
ATOM     26  C   UNL     1      36.731  -1.418   9.501  0.00  0.00    +0.000 C 
ENDBRANCH  14  25
BRANCH  15  27
ATOM     27  O   UNL     1      37.993   0.596   7.356  0.00  0.00    +0.000 OA
ATOM     28  C   UNL     1      39.242   0.055   7.000  0.00  0.00    +0.000 C 
ENDBRANCH  15  27
TORSDOF 3
ENDMDL
MODEL 3
REMARK VINA RESULT:      -7.9     22.131     24.739
REMARK  Name = CP466722.pdbqt.pdb
REMARK  3 active torsions:
REMARK  status: ('A' for Active; 'I' for Inactive)
REMARK    1  A    between atoms: C_5  and  C_23
REMARK    2  A    between atoms: C_14  and  O_16
REMARK    3  A    between atoms: C_15  and  O_18
REMARK                            x       y       z     vdW  Elec       q    Type
REMARK                         _______ _______ _______ _____ _____    ______ ____
ROOT
ATOM      1  N   UNL     1      37.877   2.343  13.966  0.00  0.00    +0.000 N 
ATOM      2  N   UNL     1      37.033   2.006  14.969  0.00  0.00    +0.000 NA
ATOM      3  N   UNL     1      36.812   0.549  13.234  0.00  0.00    +0.000 NA
ATOM      4  C   UNL     1      37.731   1.426  12.923  0.00  0.00    +0.000 A 
ATOM      5  C   UNL     1      36.404   0.921  14.494  0.00  0.00    +0.000 A 
ATOM      6  C   UNL     1      38.729   3.497  14.015  0.00  0.00    +0.000 A 
ATOM      7  N   UNL     1      39.425   3.793  12.885  0.00  0.00    +0.000 NA
ATOM      8  C   UNL     1      40.201   4.881  12.925  0.00  0.00    +0.000 A 
ATOM      9  N   UNL     1      40.338   5.698  13.974  0.00  0.00    +0.000 NA
ATOM     10  C   UNL     1      39.653   5.402  15.079  0.00  0.00    +0.000 A 
ATOM     11  C   UNL     1      38.813   4.285  15.180  0.00  0.00    +0.000 A 
ATOM     12  C   UNL     1      39.781   6.249  16.171  0.00  0.00    +0.000 A 
ATOM     13  C   UNL     1      38.158   4.047  16.412  0.00  0.00    +0.000 A 
ATOM     14  C   UNL     1      38.324   4.881  17.511  0.00  0.00    +0.000 A 
ATOM     15  C   UNL     1      39.101   6.025  17.370  0.00  0.00    +0.000 A 
ATOM     16  N   UNL     1      38.439   1.445  11.776  0.00  0.00    +0.000 N 
ATOM     17  H   UNL     1      38.099   0.894  10.995  0.00  0.00    +0.000 HD
ATOM     18  H   UNL     1      38.966   2.281  11.525  0.00  0.00    +0.000 HD
ENDROOT
BRANCH   5  19
ATOM     19  C   UNL     1      35.369   0.185  15.226  0.00  0.00    +0.000 A 
ATOM     20  N   UNL     1      35.736  -0.483  16.354  0.00  0.00    +0.000 NA
ATOM     21  C   UNL     1      34.765  -1.154  17.010  0.00  0.00    +0.000 A 
ATOM     22  C   UNL     1      33.442  -1.197  16.607  0.00  0.00    +0.000 A 
ATOM     23  C   UNL     1      33.096  -0.504  15.455  0.00  0.00    +0.000 A 
ATOM     24  C   UNL     1      34.064   0.198  14.748  0.00  0.00    +0.000 A 
ENDBRANCH   5  19
BRANCH  14  25
ATOM     25  O   UNL     1      37.635   4.590  18.658  0.00  0.00    +0.000 OA
ATOM     26  C   UNL     1      36.862   3.429  18.485  0.00  0.00    +0.000 C 
ENDBRANCH  14  25
BRANCH  15  27
ATOM     27  O   UNL     1      39.279   6.890  18.416  0.00  0.00    +0.000 OA
ATOM     28  C   UNL     1      39.763   8.124  17.947  0.00  0.00    +0.000 C 
ENDBRANCH  15  27
TORSDOF 3
ENDMDL
MODEL 4
REMARK VINA RESULT:      -7.2      5.169      7.457
REMARK  Name = CP466722.pdbqt.pdb
REMARK  3 active torsions:
REMARK  status: ('A' for Active; 'I' for Inactive)
REMARK    1  A    between atoms: C_5  and  C_23
REMARK    2  A    between atoms: C_14  and  O_16
REMARK    3  A    between atoms: C_15  and  O_18
REMARK                            x       y       z     vdW  Elec       q    Type
REMARK                         _______ _______ _______ _____ _____    ______ ____
ROOT
ATOM      1  N   UNL     1      35.914  -7.347  40.317  0.00  0.00    +0.000 N 
ATOM      2  N   UNL     1      35.728  -6.019  40.138  0.00  0.00    +0.000 NA
ATOM      3  N   UNL     1      35.780  -7.083  38.126  0.00  0.00    +0.000 NA
ATOM      4  C   UNL     1      35.927  -7.976  39.070  0.00  0.00    +0.000 A 
ATOM      5  C   UNL     1      35.654  -5.893  38.805  0.00  0.00    +0.000 A 
ATOM      6  C   UNL     1      36.102  -7.944  41.609  0.00  0.00    +0.000 A 
ATOM      7  N   UNL     1      36.413  -9.267  41.634  0.00  0.00    +0.000 NA
ATOM      8  C   UNL     1      36.610  -9.816  42.837  0.00  0.00    +0.000 A 
ATOM      9  N   UNL     1      36.536  -9.172  44.005  0.00  0.00    +0.000 NA
ATOM     10  C   UNL     1      36.231  -7.873  43.975  0.00  0.00    +0.000 A 
ATOM     11  C   UNL     1      35.986  -7.176  42.784  0.00  0.00    +0.000 A 
ATOM     12  C   UNL     1      36.161  -7.192  45.182  0.00  0.00    +0.000 A 
ATOM     13  C   UNL     1      35.637  -5.806  42.869  0.00  0.00    +0.000 A 
ATOM     14  C   UNL     1      35.533  -5.143  44.087  0.00  0.00    +0.000 A 
ATOM     15  C   UNL     1      35.852  -5.832  45.251  0.00  0.00    +0.000 A 
ATOM     16  N   UNL     1      36.063  -9.303  38.878  0.00  0.00    +0.000 N 
ATOM     17  H   UNL     1      36.300  -9.630  37.947  0.00  0.00    +0.000 HD
ATOM     18  H   UNL     1      36.393  -9.890  39.644  0.00  0.00    +0.000 HD
ENDROOT
BRANCH   5  19
ATOM     19  C   UNL     1      35.463  -4.617  38.109  0.00  0.00    +0.000 A 
ATOM     20  N   UNL     1      36.527  -4.085  37.446  0.00  0.00    +0.000 NA
ATOM     21  C   UNL     1      36.326  -2.908  36.814  0.00  0.00    +0.000 A 
ATOM     22  C   UNL     1      35.121  -2.228  36.803  0.00  0.00    +0.000 A 
ATOM     23  C   UNL     1      34.053  -2.795  37.485  0.00  0.00    +0.000 A 
ATOM     24  C   UNL     1      34.217  -4.004  38.150  0.00  0.00    +0.000 A 
ENDBRANCH   5  19
BRANCH  14  25
ATOM     25  O   UNL     1      35.212  -3.813  44.077  0.00  0.00    +0.000 OA
ATOM     26  C   UNL     1      33.889  -3.629  43.640  0.00  0.00    +0.000 C 
ENDBRANCH  14  25
BRANCH  15  27
ATOM     27  O   UNL     1      35.785  -5.219  46.473  0.00  0.00    +0.000 OA
ATOM     28  C   UNL     1      36.750  -5.761  47.340  0.00  0.00    +0.000 C 
ENDBRANCH  15  27
TORSDOF 3
ENDMDL
MODEL 5
REMARK VINA RESULT:      -7.1     34.161     37.215
REMARK  Name = CP466722.pdbqt.pdb
REMARK  3 active torsions:
REMARK  status: ('A' for Active; 'I' for Inactive)
REMARK    1  A    between atoms: C_5  and  C_23
REMARK    2  A    between atoms: C_14  and  O_16
REMARK    3  A    between atoms: C_15  and  O_18
REMARK                            x       y       z     vdW  Elec       q    Type
REMARK                         _______ _______ _______ _____ _____    ______ ____
ROOT
ATOM      1  N   UNL     1      24.636  -1.072   5.138  0.00  0.00    +0.000 N 
ATOM      2  N   UNL     1      25.659  -0.988   4.256  0.00  0.00    +0.000 NA
ATOM      3  N   UNL     1      26.437  -0.774   6.385  0.00  0.00    +0.000 NA
ATOM      4  C   UNL     1      25.142  -0.952   6.434  0.00  0.00    +0.000 A 
ATOM      5  C   UNL     1      26.731  -0.806   5.042  0.00  0.00    +0.000 A 
ATOM      6  C   UNL     1      23.266  -1.218   4.735  0.00  0.00    +0.000 A 
ATOM      7  N   UNL     1      22.328  -1.153   5.717  0.00  0.00    +0.000 NA
ATOM      8  C   UNL     1      21.051  -1.266   5.337  0.00  0.00    +0.000 A 
ATOM      9  N   UNL     1      20.627  -1.428   4.081  0.00  0.00    +0.000 NA
ATOM     10  C   UNL     1      21.552  -1.492   3.121  0.00  0.00    +0.000 A 
ATOM     11  C   UNL     1      22.926  -1.400   3.380  0.00  0.00    +0.000 A 
ATOM     12  C   UNL     1      21.122  -1.651   1.811  0.00  0.00    +0.000 A 
ATOM     13  C   UNL     1      23.822  -1.513   2.291  0.00  0.00    +0.000 A 
ATOM     14  C   UNL     1      23.382  -1.710   0.987  0.00  0.00    +0.000 A 
ATOM     15  C   UNL     1      22.015  -1.723   0.739  0.00  0.00    +0.000 A 
ATOM     16  N   UNL     1      24.403  -1.019   7.559  0.00  0.00    +0.000 N 
ATOM     17  H   UNL     1      24.816  -0.685   8.423  0.00  0.00    +0.000 HD
ATOM     18  H   UNL     1      23.389  -0.935   7.499  0.00  0.00    +0.000 HD
ENDROOT
BRANCH   5  19
ATOM     19  C   UNL     1      28.099  -0.647   4.540  0.00  0.00    +0.000 A 
ATOM     20  N   UNL     1      28.427   0.530   3.940  0.00  0.00    +0.000 NA
ATOM     21  C   UNL     1      29.693   0.652   3.485  0.00  0.00    +0.000 A 
ATOM     22  C   UNL     1      30.657  -0.334   3.596  0.00  0.00    +0.000 A 
ATOM     23  C   UNL     1      30.295  -1.523   4.216  0.00  0.00    +0.000 A 
ATOM     24  C   UNL     1      29.003  -1.691   4.697  0.00  0.00    +0.000 A 
ENDBRANCH   5  19
BRANCH  14  25
ATOM     25  O   UNL     1      24.316  -1.786  -0.010  0.00  0.00    +0.000 OA
ATOM     26  C   UNL     1      24.895  -0.526  -0.240  0.00  0.00    +0.000 C 
ENDBRANCH  14  25
BRANCH  15  27
ATOM     27  O   UNL     1      21.529  -1.894  -0.529  0.00  0.00    +0.000 OA
ATOM     28  C   UNL     1      21.140  -0.656  -1.070  0.00  0.00    +0.000 C 
ENDBRANCH  15  27
TORSDOF 3
ENDMDL
MODEL 6
REMARK VINA RESULT:      -7.1      1.964      2.233
REMARK  Name = CP466722.pdbqt.pdb
REMARK  3 active torsions:
REMARK  status: ('A' for Active; 'I' for Inactive)
REMARK    1  A    between atoms: C_5  and  C_23
REMARK    2  A    between atoms: C_14  and  O_16
REMARK    3  A    between atoms: C_15  and  O_18
REMARK                            x       y       z     vdW  Elec       q    Type
REMARK                         _______ _______ _______ _____ _____    ______ ____
ROOT
ATOM      1  N   UNL     1      33.734  -2.263  38.173  0.00  0.00    +0.000 N 
ATOM      2  N   UNL     1      33.374  -1.019  37.779  0.00  0.00    +0.000 NA
ATOM      3  N   UNL     1      31.529  -2.332  38.017  0.00  0.00    +0.000 NA
ATOM      4  C   UNL     1      32.584  -3.042  38.325  0.00  0.00    +0.000 A 
ATOM      5  C   UNL     1      32.037  -1.096  37.692  0.00  0.00    +0.000 A 
ATOM      6  C   UNL     1      35.101  -2.664  38.347  0.00  0.00    +0.000 A 
ATOM      7  N   UNL     1      35.325  -3.978  38.613  0.00  0.00    +0.000 NA
ATOM      8  C   UNL     1      36.601  -4.354  38.753  0.00  0.00    +0.000 A 
ATOM      9  N   UNL     1      37.663  -3.550  38.643  0.00  0.00    +0.000 NA
ATOM     10  C   UNL     1      37.436  -2.261  38.381  0.00  0.00    +0.000 A 
ATOM     11  C   UNL     1      36.149  -1.730  38.225  0.00  0.00    +0.000 A 
ATOM     12  C   UNL     1      38.533  -1.419  38.256  0.00  0.00    +0.000 A 
ATOM     13  C   UNL     1      36.022  -0.342  37.982  0.00  0.00    +0.000 A 
ATOM     14  C   UNL     1      37.126   0.499  37.896  0.00  0.00    +0.000 A 
ATOM     15  C   UNL     1      38.396  -0.057  37.979  0.00  0.00    +0.000 A 
ATOM     16  N   UNL     1      32.572  -4.325  38.735  0.00  0.00    +0.000 N 
ATOM     17  H   UNL     1      31.728  -4.868  38.584  0.00  0.00    +0.000 HD
ATOM     18  H   UNL     1      33.440  -4.860  38.736  0.00  0.00    +0.000 HD
ENDROOT
BRANCH   5  19
ATOM     19  C   UNL     1      31.175   0.018  37.285  0.00  0.00    +0.000 A 
ATOM     20  N   UNL     1      30.059  -0.270  36.561  0.00  0.00    +0.000 NA
ATOM     21  C   UNL     1      29.282   0.773  36.196  0.00  0.00    +0.000 A 
ATOM     22  C   UNL     1      29.552   2.092  36.516  0.00  0.00    +0.000 A 
ATOM     23  C   UNL     1      30.695   2.355  37.258  0.00  0.00    +0.000 A 
ATOM     24  C   UNL     1      31.524   1.312  37.652  0.00  0.00    +0.000 A 
ENDBRANCH   5  19
BRANCH  14  25
ATOM     25  O   UNL     1      36.913   1.826  37.636  0.00  0.00    +0.000 OA
ATOM     26  C   UNL     1      36.291   2.448  38.732  0.00  0.00    +0.000 C 
ENDBRANCH  14  25
BRANCH  15  27
ATOM     27  O   UNL     1      39.516   0.724  37.881  0.00  0.00    +0.000 OA
ATOM     28  C   UNL     1      39.979   0.742  36.553  0.00  0.00    +0.000 C 
ENDBRANCH  15  27
TORSDOF 3
ENDMDL
MODEL 7
REMARK VINA RESULT:      -6.8     31.008     32.637
REMARK  Name = CP466722.pdbqt.pdb
REMARK  3 active torsions:
REMARK  status: ('A' for Active; 'I' for Inactive)
REMARK    1  A    between atoms: C_5  and  C_23
REMARK    2  A    between atoms: C_14  and  O_16
REMARK    3  A    between atoms: C_15  and  O_18
REMARK                            x       y       z     vdW  Elec       q    Type
REMARK                         _______ _______ _______ _____ _____    ______ ____
ROOT
ATOM      1  N   UNL     1      43.707  -2.473   9.901  0.00  0.00    +0.000 N 
ATOM      2  N   UNL     1      42.758  -2.172   8.984  0.00  0.00    +0.000 NA
ATOM      3  N   UNL     1      41.964  -1.804  11.086  0.00  0.00    +0.000 NA
ATOM      4  C   UNL     1      43.199  -2.224  11.178  0.00  0.00    +0.000 A 
ATOM      5  C   UNL     1      41.718  -1.774   9.733  0.00  0.00    +0.000 A 
ATOM      6  C   UNL     1      44.995  -2.999   9.550  0.00  0.00    +0.000 A 
ATOM      7  N   UNL     1      45.800  -3.383  10.576  0.00  0.00    +0.000 NA
ATOM      8  C   UNL     1      46.991  -3.895  10.246  0.00  0.00    +0.000 A 
ATOM      9  N   UNL     1      47.444  -4.065   9.001  0.00  0.00    +0.000 NA
ATOM     10  C   UNL     1      46.650  -3.686   7.999  0.00  0.00    +0.000 A 
ATOM     11  C   UNL     1      45.383  -3.124   8.201  0.00  0.00    +0.000 A 
ATOM     12  C   UNL     1      47.107  -3.868   6.701  0.00  0.00    +0.000 A 
ATOM     13  C   UNL     1      44.636  -2.727   7.066  0.00  0.00    +0.000 A 
ATOM     14  C   UNL     1      45.120  -2.878   5.772  0.00  0.00    +0.000 A 
ATOM     15  C   UNL     1      46.345  -3.506   5.587  0.00  0.00    +0.000 A 
ATOM     16  N   UNL     1      43.886  -2.387  12.326  0.00  0.00    +0.000 N 
ATOM     17  H   UNL     1      43.366  -2.412  13.196  0.00  0.00    +0.000 HD
ATOM     18  H   UNL     1      44.753  -2.924  12.320  0.00  0.00    +0.000 HD
ENDROOT
BRANCH   5  19
ATOM     19  C   UNL     1      40.427  -1.349   9.185  0.00  0.00    +0.000 A 
ATOM     20  N   UNL     1      39.298  -1.711   9.854  0.00  0.00    +0.000 NA
ATOM     21  C   UNL     1      38.121  -1.307   9.329  0.00  0.00    +0.000 A 
ATOM     22  C   UNL     1      38.002  -0.559   8.172  0.00  0.00    +0.000 A 
ATOM     23  C   UNL     1      39.170  -0.202   7.511  0.00  0.00    +0.000 A 
ATOM     24  C   UNL     1      40.403  -0.597   8.016  0.00  0.00    +0.000 A 
ENDBRANCH   5  19
BRANCH  14  25
ATOM     25  O   UNL     1      44.323  -2.488   4.730  0.00  0.00    +0.000 OA
ATOM     26  C   UNL     1      43.839  -1.185   4.943  0.00  0.00    +0.000 C 
ENDBRANCH  14  25
BRANCH  15  27
ATOM     27  O   UNL     1      46.858  -3.698   4.332  0.00  0.00    +0.000 OA
ATOM     28  C   UNL     1      47.988  -2.885   4.141  0.00  0.00    +0.000 C 
ENDBRANCH  15  27
TORSDOF 3
ENDMDL
MODEL 8
REMARK VINA RESULT:      -6.8     24.459     26.582
REMARK  Name = CP466722.pdbqt.pdb
REMARK  3 active torsions:
REMARK  status: ('A' for Active; 'I' for Inactive)
REMARK    1  A    between atoms: C_5  and  C_23
REMARK    2  A    between atoms: C_14  and  O_16
REMARK    3  A    between atoms: C_15  and  O_18
REMARK                            x       y       z     vdW  Elec       q    Type
REMARK                         _______ _______ _______ _____ _____    ______ ____
ROOT
ATOM      1  N   UNL     1      27.908  22.452  31.264  0.00  0.00    +0.000 N 
ATOM      2  N   UNL     1      26.774  22.896  30.674  0.00  0.00    +0.000 NA
ATOM      3  N   UNL     1      26.273  21.740  32.571  0.00  0.00    +0.000 NA
ATOM      4  C   UNL     1      27.573  21.760  32.430  0.00  0.00    +0.000 A 
ATOM      5  C   UNL     1      25.806  22.447  31.487  0.00  0.00    +0.000 A 
ATOM      6  C   UNL     1      29.214  22.657  30.704  0.00  0.00    +0.000 A 
ATOM      7  N   UNL     1      30.253  22.042  31.329  0.00  0.00    +0.000 NA
ATOM      8  C   UNL     1      31.465  22.217  30.792  0.00  0.00    +0.000 A 
ATOM      9  N   UNL     1      31.733  22.933  29.696  0.00  0.00    +0.000 NA
ATOM     10  C   UNL     1      30.709  23.534  29.088  0.00  0.00    +0.000 A 
ATOM     11  C   UNL     1      29.389  23.446  29.550  0.00  0.00    +0.000 A 
ATOM     12  C   UNL     1      30.975  24.273  27.943  0.00  0.00    +0.000 A 
ATOM     13  C   UNL     1      28.384  24.151  28.846  0.00  0.00    +0.000 A 
ATOM     14  C   UNL     1      28.668  24.919  27.722  0.00  0.00    +0.000 A 
ATOM     15  C   UNL     1      29.969  24.934  27.235  0.00  0.00    +0.000 A 
ATOM     16  N   UNL     1      28.461  21.207  33.280  0.00  0.00    +0.000 N 
ATOM     17  H   UNL     1      28.120  20.532  33.956  0.00  0.00    +0.000 HD
ATOM     18  H   UNL     1      29.427  21.077  32.982  0.00  0.00    +0.000 HD
ENDROOT
BRANCH   5  19
ATOM     19  C   UNL     1      24.375  22.670  31.261  0.00  0.00    +0.000 A 
ATOM     20  N   UNL     1      24.009  23.469  30.221  0.00  0.00    +0.000 NA
ATOM     21  C   UNL     1      22.685  23.660  30.034  0.00  0.00    +0.000 A 
ATOM     22  C   UNL     1      21.699  23.096  30.824  0.00  0.00    +0.000 A 
ATOM     23  C   UNL     1      22.102  22.283  31.876  0.00  0.00    +0.000 A 
ATOM     24  C   UNL     1      23.454  22.061  32.105  0.00  0.00    +0.000 A 
ENDBRANCH   5  19
BRANCH  14  25
ATOM     25  O   UNL     1      27.632  25.551  27.088  0.00  0.00    +0.000 OA
ATOM     26  C   UNL     1      26.415  24.908  27.374  0.00  0.00    +0.000 C 
ENDBRANCH  14  25
BRANCH  15  27
ATOM     27  O   UNL     1      30.297  25.658  26.120  0.00  0.00    +0.000 OA
ATOM     28  C   UNL     1      31.635  26.083  26.195  0.00  0.00    +0.000 C 
ENDBRANCH  15  27
TORSDOF 3
ENDMDL
MODEL 9
REMARK VINA RESULT:      -6.7     24.004     27.006
REMARK  Name = CP466722.pdbqt.pdb
REMARK  3 active torsions:
REMARK  status: ('A' for Active; 'I' for Inactive)
REMARK    1  A    between atoms: C_5  and  C_23
REMARK    2  A    between atoms: C_14  and  O_16
REMARK    3  A    between atoms: C_15  and  O_18
REMARK                            x       y       z     vdW  Elec       q    Type
REMARK                         _______ _______ _______ _____ _____    ______ ____
ROOT
ATOM      1  N   UNL     1      29.810  22.829  30.234  0.00  0.00    +0.000 N 
ATOM      2  N   UNL     1      29.632  23.701  29.214  0.00  0.00    +0.000 NA
ATOM      3  N   UNL     1      31.854  23.338  29.559  0.00  0.00    +0.000 NA
ATOM      4  C   UNL     1      31.178  22.614  30.414  0.00  0.00    +0.000 A 
ATOM      5  C   UNL     1      30.885  23.990  28.831  0.00  0.00    +0.000 A 
ATOM      6  C   UNL     1      28.723  22.283  30.994  0.00  0.00    +0.000 A 
ATOM      7  N   UNL     1      29.050  21.526  32.076  0.00  0.00    +0.000 NA
ATOM      8  C   UNL     1      28.035  21.037  32.796  0.00  0.00    +0.000 A 
ATOM      9  N   UNL     1      26.738  21.237  32.546  0.00  0.00    +0.000 NA
ATOM     10  C   UNL     1      26.423  21.980  31.484  0.00  0.00    +0.000 A 
ATOM     11  C   UNL     1      27.385  22.544  30.635  0.00  0.00    +0.000 A 
ATOM     12  C   UNL     1      25.079  22.204  31.220  0.00  0.00    +0.000 A 
ATOM     13  C   UNL     1      26.940  23.288  29.517  0.00  0.00    +0.000 A 
ATOM     14  C   UNL     1      25.590  23.473  29.241  0.00  0.00    +0.000 A 
ATOM     15  C   UNL     1      24.652  22.971  30.134  0.00  0.00    +0.000 A 
ATOM     16  N   UNL     1      31.713  21.779  31.327  0.00  0.00    +0.000 N 
ATOM     17  H   UNL     1      32.701  21.872  31.540  0.00  0.00    +0.000 HD
ATOM     18  H   UNL     1      31.133  21.431  32.090  0.00  0.00    +0.000 HD
ENDROOT
BRANCH   5  19
ATOM     19  C   UNL     1      31.219  24.916  27.746  0.00  0.00    +0.000 A 
ATOM     20  N   UNL     1      32.469  24.849  27.210  0.00  0.00    +0.000 NA
ATOM     21  C   UNL     1      32.753  25.714  26.211  0.00  0.00    +0.000 A 
ATOM     22  C   UNL     1      31.860  26.644  25.712  0.00  0.00    +0.000 A 
ATOM     23  C   UNL     1      30.591  26.689  26.276  0.00  0.00    +0.000 A 
ATOM     24  C   UNL     1      30.258  25.818  27.306  0.00  0.00    +0.000 A 
ENDBRANCH   5  19
BRANCH  14  25
ATOM     25  O   UNL     1      25.247  24.225  28.150  0.00  0.00    +0.000 OA
ATOM     26  C   UNL     1      26.397  24.640  27.457  0.00  0.00    +0.000 C 
ENDBRANCH  14  25
BRANCH  15  27
ATOM     27  O   UNL     1      23.311  23.143  29.920  0.00  0.00    +0.000 OA
ATOM     28  C   UNL     1      22.583  22.751  31.058  0.00  0.00    +0.000 C 
ENDBRANCH  15  27
TORSDOF 3
ENDMDL
