MODEL 1
REMARK VINA RESULT:      -7.3      0.000      0.000
REMARK  Name = Curcumin.pdbqt.pdb
REMARK  8 active torsions:
REMARK  status: ('A' for Active; 'I' for Inactive)
REMARK    1  A    between atoms: C_2  and  C_4
REMARK    2  A    between atoms: C_5  and  C_6
REMARK    3  A    between atoms: C_8  and  O_12
REMARK    4  A    between atoms: C_9  and  O_14
REMARK    5  A    between atoms: C_16  and  C_18
REMARK    6  A    between atoms: C_19  and  C_20
REMARK    7  A    between atoms: C_22  and  O_26
REMARK    8  A    between atoms: C_23  and  O_28
REMARK                            x       y       z     vdW  Elec       q    Type
REMARK                         _______ _______ _______ _____ _____    ______ ____
ROOT
ATOM      1  C   UNL     1      39.135   5.897  17.039  0.00  0.00    +0.000 C 
ATOM      2  C   UNL     1      39.129   4.882  16.039  0.00  0.00    +0.000 C 
ATOM      3  O   UNL     1      40.085   4.769  15.286  0.00  0.00    +0.000 OA
ATOM      4  C   UNL     1      39.141   6.914  18.037  0.00  0.00    +0.000 C 
ATOM      5  O   UNL     1      38.093   7.241  18.577  0.00  0.00    +0.000 OA
ENDROOT
BRANCH   2   6
ATOM      6  C   UNL     1      37.999   3.996  15.923  0.00  0.00    +0.000 C 
ATOM      7  C   UNL     1      37.055   3.259  15.827  0.00  0.00    +0.000 C 
BRANCH   7   8
ATOM      8  C   UNL     1      35.935   2.383  15.710  0.00  0.00    +0.000 A 
ATOM      9  C   UNL     1      35.782   1.328  16.608  0.00  0.00    +0.000 A 
ATOM     10  C   UNL     1      34.690   0.460  16.509  0.00  0.00    +0.000 A 
ATOM     11  C   UNL     1      33.754   0.671  15.491  0.00  0.00    +0.000 A 
ATOM     12  C   UNL     1      33.905   1.726  14.592  0.00  0.00    +0.000 A 
ATOM     13  C   UNL     1      34.997   2.583  14.702  0.00  0.00    +0.000 A 
BRANCH  10  14
ATOM     14  O   UNL     1      34.473  -0.597  17.356  0.00  0.00    +0.000 OA
ATOM     15  C   UNL     1      35.290  -1.717  17.165  0.00  0.00    +0.000 C 
ENDBRANCH  10  14
BRANCH  11  16
ATOM     16  O   UNL     1      32.656  -0.124  15.315  0.00  0.00    +0.000 OA
ATOM     17  H   UNL     1      32.124  -0.159  16.128  0.00  0.00    +0.000 HD
ENDBRANCH  11  16
ENDBRANCH   7   8
ENDBRANCH   2   6
BRANCH   4  18
ATOM     18  C   UNL     1      40.380   7.551  18.403  0.00  0.00    +0.000 C 
ATOM     19  C   UNL     1      41.412   8.086  18.709  0.00  0.00    +0.000 C 
BRANCH  19  20
ATOM     20  C   UNL     1      42.634   8.723  19.071  0.00  0.00    +0.000 A 
ATOM     21  C   UNL     1      43.441   8.165  20.062  0.00  0.00    +0.000 A 
ATOM     22  C   UNL     1      44.642   8.777  20.429  0.00  0.00    +0.000 A 
ATOM     23  C   UNL     1      45.018   9.959  19.784  0.00  0.00    +0.000 A 
ATOM     24  C   UNL     1      44.215  10.521  18.792  0.00  0.00    +0.000 A 
ATOM     25  C   UNL     1      43.021   9.901  18.436  0.00  0.00    +0.000 A 
BRANCH  22  26
ATOM     26  O   UNL     1      45.494   8.295  21.393  0.00  0.00    +0.000 OA
ATOM     27  C   UNL     1      45.887   6.957  21.239  0.00  0.00    +0.000 C 
ENDBRANCH  22  26
BRANCH  23  28
ATOM     28  O   UNL     1      46.190  10.574  20.129  0.00  0.00    +0.000 OA
ATOM     29  H   UNL     1      46.339  11.324  19.525  0.00  0.00    +0.000 HD
ENDBRANCH  23  28
ENDBRANCH  19  20
ENDBRANCH   4  18
TORSDOF 8
ENDMDL
MODEL 2
REMARK VINA RESULT:      -6.7     17.712     21.961
REMARK  Name = Curcumin.pdbqt.pdb
REMARK  8 active torsions:
REMARK  status: ('A' for Active; 'I' for Inactive)
REMARK    1  A    between atoms: C_2  and  C_4
REMARK    2  A    between atoms: C_5  and  C_6
REMARK    3  A    between atoms: C_8  and  O_12
REMARK    4  A    between atoms: C_9  and  O_14
REMARK    5  A    between atoms: C_16  and  C_18
REMARK    6  A    between atoms: C_19  and  C_20
REMARK    7  A    between atoms: C_22  and  O_26
REMARK    8  A    between atoms: C_23  and  O_28
REMARK                            x       y       z     vdW  Elec       q    Type
REMARK                         _______ _______ _______ _____ _____    ______ ____
ROOT
ATOM      1  C   UNL     1      25.068  -1.136   5.689  0.00  0.00    +0.000 C 
ATOM      2  C   UNL     1      25.993  -0.053   5.737  0.00  0.00    +0.000 C 
ATOM      3  O   UNL     1      25.687   0.980   6.314  0.00  0.00    +0.000 OA
ATOM      4  C   UNL     1      24.140  -2.216   5.639  0.00  0.00    +0.000 C 
ATOM      5  O   UNL     1      24.296  -3.112   4.822  0.00  0.00    +0.000 OA
ENDROOT
BRANCH   2   6
ATOM      6  C   UNL     1      27.283  -0.184   5.108  0.00  0.00    +0.000 C 
ATOM      7  C   UNL     1      28.357  -0.293   4.582  0.00  0.00    +0.000 C 
BRANCH   7   8
ATOM      8  C   UNL     1      29.634  -0.421   3.959  0.00  0.00    +0.000 A 
ATOM      9  C   UNL     1      30.168   0.649   3.243  0.00  0.00    +0.000 A 
ATOM     10  C   UNL     1      31.418   0.542   2.626  0.00  0.00    +0.000 A 
ATOM     11  C   UNL     1      32.122  -0.661   2.740  0.00  0.00    +0.000 A 
ATOM     12  C   UNL     1      31.590  -1.733   3.455  0.00  0.00    +0.000 A 
ATOM     13  C   UNL     1      30.344  -1.613   4.065  0.00  0.00    +0.000 A 
BRANCH  10  14
ATOM     14  O   UNL     1      32.006   1.552   1.907  0.00  0.00    +0.000 OA
ATOM     15  C   UNL     1      32.680   2.527   2.651  0.00  0.00    +0.000 C 
ENDBRANCH  10  14
BRANCH  11  16
ATOM     16  O   UNL     1      33.349  -0.860   2.171  0.00  0.00    +0.000 OA
ATOM     17  H   UNL     1      33.868  -0.038   2.176  0.00  0.00    +0.000 HD
ENDBRANCH  11  16
ENDBRANCH   7   8
ENDBRANCH   2   6
BRANCH   4  18
ATOM     18  C   UNL     1      23.025  -2.245   6.551  0.00  0.00    +0.000 C 
ATOM     19  C   UNL     1      22.094  -2.273   7.311  0.00  0.00    +0.000 C 
BRANCH  19  20
ATOM     20  C   UNL     1      20.989  -2.310   8.210  0.00  0.00    +0.000 A 
ATOM     21  C   UNL     1      21.119  -2.948   9.443  0.00  0.00    +0.000 A 
ATOM     22  C   UNL     1      20.045  -2.993  10.336  0.00  0.00    +0.000 A 
ATOM     23  C   UNL     1      18.841  -2.386   9.969  0.00  0.00    +0.000 A 
ATOM     24  C   UNL     1      18.706  -1.747   8.737  0.00  0.00    +0.000 A 
ATOM     25  C   UNL     1      19.783  -1.709   7.857  0.00  0.00    +0.000 A 
BRANCH  22  26
ATOM     26  O   UNL     1      20.087  -3.599  11.568  0.00  0.00    +0.000 OA
ATOM     27  C   UNL     1      20.087  -5.003  11.552  0.00  0.00    +0.000 C 
ENDBRANCH  22  26
BRANCH  23  28
ATOM     28  O   UNL     1      17.777  -2.419  10.829  0.00  0.00    +0.000 OA
ATOM     29  H   UNL     1      17.961  -3.074  11.527  0.00  0.00    +0.000 HD
ENDBRANCH  23  28
ENDBRANCH  19  20
ENDBRANCH   4  18
TORSDOF 8
ENDMDL
MODEL 3
REMARK VINA RESULT:      -6.7      9.117     12.984
REMARK  Name = Curcumin.pdbqt.pdb
REMARK  8 active torsions:
REMARK  status: ('A' for Active; 'I' for Inactive)
REMARK    1  A    between atoms: C_2  and  C_4
REMARK    2  A    between atoms: C_5  and  C_6
REMARK    3  A    between atoms: C_8  and  O_12
REMARK    4  A    between atoms: C_9  and  O_14
REMARK    5  A    between atoms: C_16  and  C_18
REMARK    6  A    between atoms: C_19  and  C_20
REMARK    7  A    between atoms: C_22  and  O_26
REMARK    8  A    between atoms: C_23  and  O_28
REMARK                            x       y       z     vdW  Elec       q    Type
REMARK                         _______ _______ _______ _____ _____    ______ ____
ROOT
ATOM      1  C   UNL     1      41.055  -0.844  11.245  0.00  0.00    +0.000 C 
ATOM      2  C   UNL     1      42.354  -1.400  11.429  0.00  0.00    +0.000 C 
ATOM      3  O   UNL     1      42.802  -1.530  12.559  0.00  0.00    +0.000 OA
ATOM      4  C   UNL     1      39.758  -0.283  11.061  0.00  0.00    +0.000 C 
ATOM      5  O   UNL     1      39.428   0.137   9.961  0.00  0.00    +0.000 OA
ENDROOT
BRANCH   2   6
ATOM      6  C   UNL     1      43.128  -1.809  10.285  0.00  0.00    +0.000 C 
ATOM      7  C   UNL     1      43.773  -2.152   9.331  0.00  0.00    +0.000 C 
BRANCH   7   8
ATOM      8  C   UNL     1      44.537  -2.557   8.197  0.00  0.00    +0.000 A 
ATOM      9  C   UNL     1      44.251  -2.027   6.941  0.00  0.00    +0.000 A 
ATOM     10  C   UNL     1      44.991  -2.412   5.818  0.00  0.00    +0.000 A 
ATOM     11  C   UNL     1      46.023  -3.341   5.980  0.00  0.00    +0.000 A 
ATOM     12  C   UNL     1      46.312  -3.873   7.236  0.00  0.00    +0.000 A 
ATOM     13  C   UNL     1      45.568  -3.481   8.346  0.00  0.00    +0.000 A 
BRANCH  10  14
ATOM     14  O   UNL     1      44.767  -1.932   4.552  0.00  0.00    +0.000 OA
ATOM     15  C   UNL     1      43.547  -1.278   4.347  0.00  0.00    +0.000 C 
ENDBRANCH  10  14
BRANCH  11  16
ATOM     16  O   UNL     1      46.800  -3.777   4.943  0.00  0.00    +0.000 OA
ATOM     17  H   UNL     1      47.743  -3.681   5.156  0.00  0.00    +0.000 HD
ENDBRANCH  11  16
ENDBRANCH   7   8
ENDBRANCH   2   6
BRANCH   4  18
ATOM     18  C   UNL     1      38.844  -0.215  12.173  0.00  0.00    +0.000 C 
ATOM     19  C   UNL     1      38.078  -0.158  13.097  0.00  0.00    +0.000 C 
BRANCH  19  20
ATOM     20  C   UNL     1      37.168  -0.089  14.191  0.00  0.00    +0.000 A 
ATOM     21  C   UNL     1      36.526   1.113  14.485  0.00  0.00    +0.000 A 
ATOM     22  C   UNL     1      35.630   1.198  15.555  0.00  0.00    +0.000 A 
ATOM     23  C   UNL     1      35.390   0.054  16.321  0.00  0.00    +0.000 A 
ATOM     24  C   UNL     1      36.029  -1.151  16.032  0.00  0.00    +0.000 A 
ATOM     25  C   UNL     1      36.919  -1.221  14.965  0.00  0.00    +0.000 A 
BRANCH  22  26
ATOM     26  O   UNL     1      34.956   2.341  15.912  0.00  0.00    +0.000 OA
ATOM     27  C   UNL     1      34.463   3.110  14.847  0.00  0.00    +0.000 C 
ENDBRANCH  22  26
BRANCH  23  28
ATOM     28  O   UNL     1      34.517   0.116  17.372  0.00  0.00    +0.000 OA
ATOM     29  H   UNL     1      33.667  -0.272  17.095  0.00  0.00    +0.000 HD
ENDBRANCH  23  28
ENDBRANCH  19  20
ENDBRANCH   4  18
TORSDOF 8
ENDMDL
MODEL 4
REMARK VINA RESULT:      -6.7      8.717     12.796
REMARK  Name = Curcumin.pdbqt.pdb
REMARK  8 active torsions:
REMARK  status: ('A' for Active; 'I' for Inactive)
REMARK    1  A    between atoms: C_2  and  C_4
REMARK    2  A    between atoms: C_5  and  C_6
REMARK    3  A    between atoms: C_8  and  O_12
REMARK    4  A    between atoms: C_9  and  O_14
REMARK    5  A    between atoms: C_16  and  C_18
REMARK    6  A    between atoms: C_19  and  C_20
REMARK    7  A    between atoms: C_22  and  O_26
REMARK    8  A    between atoms: C_23  and  O_28
REMARK                            x       y       z     vdW  Elec       q    Type
REMARK                         _______ _______ _______ _____ _____    ______ ____
ROOT
ATOM      1  C   UNL     1      38.866   0.470  10.461  0.00  0.00    +0.000 C 
ATOM      2  C   UNL     1      39.489  -0.537   9.669  0.00  0.00    +0.000 C 
ATOM      3  O   UNL     1      39.454  -1.703  10.035  0.00  0.00    +0.000 OA
ATOM      4  C   UNL     1      38.246   1.477  11.256  0.00  0.00    +0.000 C 
ATOM      5  O   UNL     1      38.533   2.653  11.078  0.00  0.00    +0.000 OA
ENDROOT
BRANCH   2   6
ATOM      6  C   UNL     1      40.153  -0.176   8.442  0.00  0.00    +0.000 C 
ATOM      7  C   UNL     1      40.706   0.123   7.418  0.00  0.00    +0.000 C 
BRANCH   7   8
ATOM      8  C   UNL     1      41.361   0.481   6.202  0.00  0.00    +0.000 A 
ATOM      9  C   UNL     1      42.513  -0.196   5.808  0.00  0.00    +0.000 A 
ATOM     10  C   UNL     1      43.168   0.141   4.620  0.00  0.00    +0.000 A 
ATOM     11  C   UNL     1      42.644   1.172   3.834  0.00  0.00    +0.000 A 
ATOM     12  C   UNL     1      41.492   1.852   4.226  0.00  0.00    +0.000 A 
ATOM     13  C   UNL     1      40.850   1.506   5.412  0.00  0.00    +0.000 A 
BRANCH  10  14
ATOM     14  O   UNL     1      44.304  -0.482   4.168  0.00  0.00    +0.000 OA
ATOM     15  C   UNL     1      44.351  -1.871   4.330  0.00  0.00    +0.000 C 
ENDBRANCH  10  14
BRANCH  11  16
ATOM     16  O   UNL     1      43.215   1.573   2.658  0.00  0.00    +0.000 OA
ATOM     17  H   UNL     1      44.183   1.596   2.736  0.00  0.00    +0.000 HD
ENDBRANCH  11  16
ENDBRANCH   7   8
ENDBRANCH   2   6
BRANCH   4  18
ATOM     18  C   UNL     1      37.285   1.104  12.262  0.00  0.00    +0.000 C 
ATOM     19  C   UNL     1      36.487   0.791  13.105  0.00  0.00    +0.000 C 
BRANCH  19  20
ATOM     20  C   UNL     1      35.544   0.420  14.106  0.00  0.00    +0.000 A 
ATOM     21  C   UNL     1      35.849  -0.603  15.002  0.00  0.00    +0.000 A 
ATOM     22  C   UNL     1      34.935  -0.980  15.990  0.00  0.00    +0.000 A 
ATOM     23  C   UNL     1      33.711  -0.309  16.062  0.00  0.00    +0.000 A 
ATOM     24  C   UNL     1      33.400   0.715  15.169  0.00  0.00    +0.000 A 
ATOM     25  C   UNL     1      34.319   1.079  14.189  0.00  0.00    +0.000 A 
BRANCH  22  26
ATOM     26  O   UNL     1      35.156  -1.975  16.911  0.00  0.00    +0.000 OA
ATOM     27  C   UNL     1      36.459  -2.044  17.427  0.00  0.00    +0.000 C 
ENDBRANCH  22  26
BRANCH  23  28
ATOM     28  O   UNL     1      32.803  -0.663  17.022  0.00  0.00    +0.000 OA
ATOM     29  H   UNL     1      33.087  -1.503  17.427  0.00  0.00    +0.000 HD
ENDBRANCH  23  28
ENDBRANCH  19  20
ENDBRANCH   4  18
TORSDOF 8
ENDMDL
MODEL 5
REMARK VINA RESULT:      -6.6     17.801     19.964
REMARK  Name = Curcumin.pdbqt.pdb
REMARK  8 active torsions:
REMARK  status: ('A' for Active; 'I' for Inactive)
REMARK    1  A    between atoms: C_2  and  C_4
REMARK    2  A    between atoms: C_5  and  C_6
REMARK    3  A    between atoms: C_8  and  O_12
REMARK    4  A    between atoms: C_9  and  O_14
REMARK    5  A    between atoms: C_16  and  C_18
REMARK    6  A    between atoms: C_19  and  C_20
REMARK    7  A    between atoms: C_22  and  O_26
REMARK    8  A    between atoms: C_23  and  O_28
REMARK                            x       y       z     vdW  Elec       q    Type
REMARK                         _______ _______ _______ _____ _____    ______ ____
ROOT
ATOM      1  C   UNL     1      25.072  -1.161   5.688  0.00  0.00    +0.000 C 
ATOM      2  C   UNL     1      24.157  -2.252   5.631  0.00  0.00    +0.000 C 
ATOM      3  O   UNL     1      24.330  -3.145   4.815  0.00  0.00    +0.000 OA
ATOM      4  C   UNL     1      25.986  -0.069   5.740  0.00  0.00    +0.000 C 
ATOM      5  O   UNL     1      25.667   0.962   6.315  0.00  0.00    +0.000 OA
ENDROOT
BRANCH   2   6
ATOM      6  C   UNL     1      23.038  -2.297   6.538  0.00  0.00    +0.000 C 
ATOM      7  C   UNL     1      22.106  -2.333   7.295  0.00  0.00    +0.000 C 
BRANCH   7   8
ATOM      8  C   UNL     1      20.997  -2.375   8.192  0.00  0.00    +0.000 A 
ATOM      9  C   UNL     1      21.179  -2.056   9.536  0.00  0.00    +0.000 A 
ATOM     10  C   UNL     1      20.103  -2.092  10.429  0.00  0.00    +0.000 A 
ATOM     11  C   UNL     1      18.842  -2.455   9.947  0.00  0.00    +0.000 A 
ATOM     12  C   UNL     1      18.658  -2.774   8.602  0.00  0.00    +0.000 A 
ATOM     13  C   UNL     1      19.737  -2.735   7.724  0.00  0.00    +0.000 A 
BRANCH  10  14
ATOM     14  O   UNL     1      20.205  -1.790  11.764  0.00  0.00    +0.000 OA
ATOM     15  C   UNL     1      21.422  -1.237  12.179  0.00  0.00    +0.000 C 
ENDBRANCH  10  14
BRANCH  11  16
ATOM     16  O   UNL     1      17.732  -2.518  10.743  0.00  0.00    +0.000 OA
ATOM     17  H   UNL     1      17.547  -1.652  11.145  0.00  0.00    +0.000 HD
ENDBRANCH  11  16
ENDBRANCH   7   8
ENDBRANCH   2   6
BRANCH   4  18
ATOM     18  C   UNL     1      27.279  -0.187   5.116  0.00  0.00    +0.000 C 
ATOM     19  C   UNL     1      28.356  -0.288   4.592  0.00  0.00    +0.000 C 
BRANCH  19  20
ATOM     20  C   UNL     1      29.631  -0.411   3.968  0.00  0.00    +0.000 A 
ATOM     21  C   UNL     1      30.166   0.667   3.263  0.00  0.00    +0.000 A 
ATOM     22  C   UNL     1      31.415   0.563   2.646  0.00  0.00    +0.000 A 
ATOM     23  C   UNL     1      32.118  -0.641   2.751  0.00  0.00    +0.000 A 
ATOM     24  C   UNL     1      31.588  -1.721   3.455  0.00  0.00    +0.000 A 
ATOM     25  C   UNL     1      30.343  -1.605   4.064  0.00  0.00    +0.000 A 
BRANCH  22  26
ATOM     26  O   UNL     1      32.013   1.574   1.933  0.00  0.00    +0.000 OA
ATOM     27  C   UNL     1      32.243   2.762   2.644  0.00  0.00    +0.000 C 
ENDBRANCH  22  26
BRANCH  23  28
ATOM     28  O   UNL     1      33.342  -0.763   2.153  0.00  0.00    +0.000 OA
ATOM     29  H   UNL     1      34.010  -0.336   2.720  0.00  0.00    +0.000 HD
ENDBRANCH  23  28
ENDBRANCH  19  20
ENDBRANCH   4  18
TORSDOF 8
ENDMDL
MODEL 6
REMARK VINA RESULT:      -6.5      6.733     12.044
REMARK  Name = Curcumin.pdbqt.pdb
REMARK  8 active torsions:
REMARK  status: ('A' for Active; 'I' for Inactive)
REMARK    1  A    between atoms: C_2  and  C_4
REMARK    2  A    between atoms: C_5  and  C_6
REMARK    3  A    between atoms: C_8  and  O_12
REMARK    4  A    between atoms: C_9  and  O_14
REMARK    5  A    between atoms: C_16  and  C_18
REMARK    6  A    between atoms: C_19  and  C_20
REMARK    7  A    between atoms: C_22  and  O_26
REMARK    8  A    between atoms: C_23  and  O_28
REMARK                            x       y       z     vdW  Elec       q    Type
REMARK                         _______ _______ _______ _____ _____    ______ ____
ROOT
ATOM      1  C   UNL     1      38.410   3.742  11.796  0.00  0.00    +0.000 C 
ATOM      2  C   UNL     1      38.605   3.738  10.385  0.00  0.00    +0.000 C 
ATOM      3  O   UNL     1      38.176   2.809   9.717  0.00  0.00    +0.000 OA
ATOM      4  C   UNL     1      38.218   3.743  13.208  0.00  0.00    +0.000 C 
ATOM      5  O   UNL     1      38.893   4.480  13.913  0.00  0.00    +0.000 OA
ENDROOT
BRANCH   2   6
ATOM      6  C   UNL     1      39.304   4.830   9.754  0.00  0.00    +0.000 C 
ATOM      7  C   UNL     1      39.884   5.741   9.229  0.00  0.00    +0.000 C 
BRANCH   7   8
ATOM      8  C   UNL     1      40.575   6.824   8.607  0.00  0.00    +0.000 A 
ATOM      9  C   UNL     1      39.857   7.899   8.089  0.00  0.00    +0.000 A 
ATOM     10  C   UNL     1      40.518   8.969   7.476  0.00  0.00    +0.000 A 
ATOM     11  C   UNL     1      41.913   8.938   7.393  0.00  0.00    +0.000 A 
ATOM     12  C   UNL     1      42.634   7.862   7.911  0.00  0.00    +0.000 A 
ATOM     13  C   UNL     1      41.963   6.804   8.519  0.00  0.00    +0.000 A 
BRANCH  10  14
ATOM     14  O   UNL     1      39.879  10.061   6.945  0.00  0.00    +0.000 OA
ATOM     15  C   UNL     1      38.746   9.795   6.168  0.00  0.00    +0.000 C 
ENDBRANCH  10  14
BRANCH  11  16
ATOM     16  O   UNL     1      42.646   9.936   6.813  0.00  0.00    +0.000 OA
ATOM     17  H   UNL     1      42.227  10.234   5.988  0.00  0.00    +0.000 HD
ENDBRANCH  11  16
ENDBRANCH   7   8
ENDBRANCH   2   6
BRANCH   4  18
ATOM     18  C   UNL     1      37.229   2.875  13.796  0.00  0.00    +0.000 C 
ATOM     19  C   UNL     1      36.403   2.155  14.289  0.00  0.00    +0.000 C 
BRANCH  19  20
ATOM     20  C   UNL     1      35.424   1.302  14.878  0.00  0.00    +0.000 A 
ATOM     21  C   UNL     1      35.805   0.372  15.844  0.00  0.00    +0.000 A 
ATOM     22  C   UNL     1      34.858  -0.471  16.431  0.00  0.00    +0.000 A 
ATOM     23  C   UNL     1      33.523  -0.363  16.031  0.00  0.00    +0.000 A 
ATOM     24  C   UNL     1      33.137   0.565  15.065  0.00  0.00    +0.000 A 
ATOM     25  C   UNL     1      34.090   1.398  14.488  0.00  0.00    +0.000 A 
BRANCH  22  26
ATOM     26  O   UNL     1      35.147  -1.414  17.389  0.00  0.00    +0.000 OA
ATOM     27  C   UNL     1      36.455  -1.923  17.361  0.00  0.00    +0.000 C 
ENDBRANCH  22  26
BRANCH  23  28
ATOM     28  O   UNL     1      32.581  -1.180  16.593  0.00  0.00    +0.000 OA
ATOM     29  H   UNL     1      31.857  -1.308  15.953  0.00  0.00    +0.000 HD
ENDBRANCH  23  28
ENDBRANCH  19  20
ENDBRANCH   4  18
TORSDOF 8
ENDMDL
MODEL 7
REMARK VINA RESULT:      -6.3      1.566     11.619
REMARK  Name = Curcumin.pdbqt.pdb
REMARK  8 active torsions:
REMARK  status: ('A' for Active; 'I' for Inactive)
REMARK    1  A    between atoms: C_2  and  C_4
REMARK    2  A    between atoms: C_5  and  C_6
REMARK    3  A    between atoms: C_8  and  O_12
REMARK    4  A    between atoms: C_9  and  O_14
REMARK    5  A    between atoms: C_16  and  C_18
REMARK    6  A    between atoms: C_19  and  C_20
REMARK    7  A    between atoms: C_22  and  O_26
REMARK    8  A    between atoms: C_23  and  O_28
REMARK                            x       y       z     vdW  Elec       q    Type
REMARK                         _______ _______ _______ _____ _____    ______ ____
ROOT
ATOM      1  C   UNL     1      40.868   6.496  17.256  0.00  0.00    +0.000 C 
ATOM      2  C   UNL     1      40.812   7.481  18.283  0.00  0.00    +0.000 C 
ATOM      3  O   UNL     1      39.733   7.947  18.617  0.00  0.00    +0.000 OA
ATOM      4  C   UNL     1      40.922   5.513  16.225  0.00  0.00    +0.000 C 
ATOM      5  O   UNL     1      41.986   5.272  15.672  0.00  0.00    +0.000 OA
ENDROOT
BRANCH   2   6
ATOM      6  C   UNL     1      42.027   7.920  18.923  0.00  0.00    +0.000 C 
ATOM      7  C   UNL     1      43.041   8.283  19.455  0.00  0.00    +0.000 C 
BRANCH   7   8
ATOM      8  C   UNL     1      44.244   8.717  20.086  0.00  0.00    +0.000 A 
ATOM      9  C   UNL     1      44.910   7.870  20.969  0.00  0.00    +0.000 A 
ATOM     10  C   UNL     1      46.092   8.278  21.596  0.00  0.00    +0.000 A 
ATOM     11  C   UNL     1      46.592   9.555  21.320  0.00  0.00    +0.000 A 
ATOM     12  C   UNL     1      45.927  10.405  20.437  0.00  0.00    +0.000 A 
ATOM     13  C   UNL     1      44.752   9.985  19.819  0.00  0.00    +0.000 A 
BRANCH  10  14
ATOM     14  O   UNL     1      46.802   7.499  22.474  0.00  0.00    +0.000 OA
ATOM     15  C   UNL     1      47.395   6.350  21.939  0.00  0.00    +0.000 C 
ENDBRANCH  10  14
BRANCH  11  16
ATOM     16  O   UNL     1      47.738  10.042  21.884  0.00  0.00    +0.000 OA
ATOM     17  H   UNL     1      48.391   9.331  22.003  0.00  0.00    +0.000 HD
ENDBRANCH  11  16
ENDBRANCH   7   8
ENDBRANCH   2   6
BRANCH   4  18
ATOM     18  C   UNL     1      39.724   4.810  15.843  0.00  0.00    +0.000 C 
ATOM     19  C   UNL     1      38.726   4.219  15.528  0.00  0.00    +0.000 C 
BRANCH  19  20
ATOM     20  C   UNL     1      37.544   3.517  15.155  0.00  0.00    +0.000 A 
ATOM     21  C   UNL     1      36.632   3.124  16.134  0.00  0.00    +0.000 A 
ATOM     22  C   UNL     1      35.467   2.434  15.785  0.00  0.00    +0.000 A 
ATOM     23  C   UNL     1      35.236   2.147  14.437  0.00  0.00    +0.000 A 
ATOM     24  C   UNL     1      36.144   2.537  13.454  0.00  0.00    +0.000 A 
ATOM     25  C   UNL     1      37.300   3.223  13.815  0.00  0.00    +0.000 A 
BRANCH  22  26
ATOM     26  O   UNL     1      34.519   2.011  16.684  0.00  0.00    +0.000 OA
ATOM     27  C   UNL     1      34.957   1.068  17.627  0.00  0.00    +0.000 C 
ENDBRANCH  22  26
BRANCH  23  28
ATOM     28  O   UNL     1      34.102   1.473  14.075  0.00  0.00    +0.000 OA
ATOM     29  H   UNL     1      33.330   1.943  14.439  0.00  0.00    +0.000 HD
ENDBRANCH  23  28
ENDBRANCH  19  20
ENDBRANCH   4  18
TORSDOF 8
ENDMDL
MODEL 8
REMARK VINA RESULT:      -6.3     17.737     23.438
REMARK  Name = Curcumin.pdbqt.pdb
REMARK  8 active torsions:
REMARK  status: ('A' for Active; 'I' for Inactive)
REMARK    1  A    between atoms: C_2  and  C_4
REMARK    2  A    between atoms: C_5  and  C_6
REMARK    3  A    between atoms: C_8  and  O_12
REMARK    4  A    between atoms: C_9  and  O_14
REMARK    5  A    between atoms: C_16  and  C_18
REMARK    6  A    between atoms: C_19  and  C_20
REMARK    7  A    between atoms: C_22  and  O_26
REMARK    8  A    between atoms: C_23  and  O_28
REMARK                            x       y       z     vdW  Elec       q    Type
REMARK                         _______ _______ _______ _____ _____    ______ ____
ROOT
ATOM      1  C   UNL     1      49.781   1.458  36.489  0.00  0.00    +0.000 C 
ATOM      2  C   UNL     1      50.333   2.007  37.682  0.00  0.00    +0.000 C 
ATOM      3  O   UNL     1      51.063   2.985  37.617  0.00  0.00    +0.000 OA
ATOM      4  C   UNL     1      49.232   0.907  35.295  0.00  0.00    +0.000 C 
ATOM      5  O   UNL     1      48.771  -0.226  35.304  0.00  0.00    +0.000 OA
ENDROOT
BRANCH   2   6
ATOM      6  C   UNL     1      50.027   1.407  38.956  0.00  0.00    +0.000 C 
ATOM      7  C   UNL     1      49.770   0.907  40.018  0.00  0.00    +0.000 C 
BRANCH   7   8
ATOM      8  C   UNL     1      49.467   0.311  41.278  0.00  0.00    +0.000 A 
ATOM      9  C   UNL     1      48.962   1.095  42.313  0.00  0.00    +0.000 A 
ATOM     10  C   UNL     1      48.659   0.528  43.555  0.00  0.00    +0.000 A 
ATOM     11  C   UNL     1      48.874  -0.842  43.738  0.00  0.00    +0.000 A 
ATOM     12  C   UNL     1      49.380  -1.628  42.704  0.00  0.00    +0.000 A 
ATOM     13  C   UNL     1      49.677  -1.051  41.473  0.00  0.00    +0.000 A 
BRANCH  10  14
ATOM     14  O   UNL     1      48.158   1.235  44.619  0.00  0.00    +0.000 OA
ATOM     15  C   UNL     1      48.944   2.299  45.077  0.00  0.00    +0.000 C 
ENDBRANCH  10  14
BRANCH  11  16
ATOM     16  O   UNL     1      48.608  -1.485  44.916  0.00  0.00    +0.000 OA
ATOM     17  H   UNL     1      48.336  -0.850  45.600  0.00  0.00    +0.000 HD
ENDBRANCH  11  16
ENDBRANCH   7   8
ENDBRANCH   2   6
BRANCH   4  18
ATOM     18  C   UNL     1      49.223   1.689  34.085  0.00  0.00    +0.000 C 
ATOM     19  C   UNL     1      49.215   2.338  33.073  0.00  0.00    +0.000 C 
BRANCH  19  20
ATOM     20  C   UNL     1      49.206   3.103  31.871  0.00  0.00    +0.000 A 
ATOM     21  C   UNL     1      49.929   2.664  30.763  0.00  0.00    +0.000 A 
ATOM     22  C   UNL     1      49.931   3.403  29.577  0.00  0.00    +0.000 A 
ATOM     23  C   UNL     1      49.194   4.590  29.524  0.00  0.00    +0.000 A 
ATOM     24  C   UNL     1      48.470   5.034  30.629  0.00  0.00    +0.000 A 
ATOM     25  C   UNL     1      48.476   4.288  31.805  0.00  0.00    +0.000 A 
BRANCH  22  26
ATOM     26  O   UNL     1      50.615   3.043  28.441  0.00  0.00    +0.000 OA
ATOM     27  C   UNL     1      51.373   1.866  28.538  0.00  0.00    +0.000 C 
ENDBRANCH  22  26
BRANCH  23  28
ATOM     28  O   UNL     1      49.183   5.328  28.372  0.00  0.00    +0.000 OA
ATOM     29  H   UNL     1      48.262   5.565  28.162  0.00  0.00    +0.000 HD
ENDBRANCH  23  28
ENDBRANCH  19  20
ENDBRANCH   4  18
TORSDOF 8
ENDMDL
MODEL 9
REMARK VINA RESULT:      -6.2     32.751     35.179
REMARK  Name = Curcumin.pdbqt.pdb
REMARK  8 active torsions:
REMARK  status: ('A' for Active; 'I' for Inactive)
REMARK    1  A    between atoms: C_2  and  C_4
REMARK    2  A    between atoms: C_5  and  C_6
REMARK    3  A    between atoms: C_8  and  O_12
REMARK    4  A    between atoms: C_9  and  O_14
REMARK    5  A    between atoms: C_16  and  C_18
REMARK    6  A    between atoms: C_19  and  C_20
REMARK    7  A    between atoms: C_22  and  O_26
REMARK    8  A    between atoms: C_23  and  O_28
REMARK                            x       y       z     vdW  Elec       q    Type
REMARK                         _______ _______ _______ _____ _____    ______ ____
ROOT
ATOM      1  C   UNL     1      20.201  -8.018  43.040  0.00  0.00    +0.000 C 
ATOM      2  C   UNL     1      20.565  -7.365  41.827  0.00  0.00    +0.000 C 
ATOM      3  O   UNL     1      21.692  -6.909  41.700  0.00  0.00    +0.000 OA
ATOM      4  C   UNL     1      19.837  -8.667  44.255  0.00  0.00    +0.000 C 
ATOM      5  O   UNL     1      18.656  -8.844  44.518  0.00  0.00    +0.000 OA
ENDROOT
BRANCH   2   6
ATOM      6  C   UNL     1      19.606  -7.250  40.758  0.00  0.00    +0.000 C 
ATOM      7  C   UNL     1      18.804  -7.154  39.869  0.00  0.00    +0.000 C 
BRANCH   7   8
ATOM      8  C   UNL     1      17.853  -7.038  38.812  0.00  0.00    +0.000 A 
ATOM      9  C   UNL     1      17.733  -8.058  37.870  0.00  0.00    +0.000 A 
ATOM     10  C   UNL     1      16.805  -7.962  36.828  0.00  0.00    +0.000 A 
ATOM     11  C   UNL     1      16.000  -6.821  36.749  0.00  0.00    +0.000 A 
ATOM     12  C   UNL     1      16.118  -5.799  37.690  0.00  0.00    +0.000 A 
ATOM     13  C   UNL     1      17.045  -5.908  38.723  0.00  0.00    +0.000 A 
BRANCH  10  14
ATOM     14  O   UNL     1      16.631  -8.924  35.866  0.00  0.00    +0.000 OA
ATOM     15  C   UNL     1      16.513 -10.241  36.326  0.00  0.00    +0.000 C 
ENDBRANCH  10  14
BRANCH  11  16
ATOM     16  O   UNL     1      15.067  -6.637  35.767  0.00  0.00    +0.000 OA
ATOM     17  H   UNL     1      15.352  -5.945  35.147  0.00  0.00    +0.000 HD
ENDBRANCH  11  16
ENDBRANCH   7   8
ENDBRANCH   2   6
BRANCH   4  18
ATOM     18  C   UNL     1      20.862  -9.109  45.165  0.00  0.00    +0.000 C 
ATOM     19  C   UNL     1      21.715  -9.477  45.928  0.00  0.00    +0.000 C 
BRANCH  19  20
ATOM     20  C   UNL     1      22.725  -9.911  46.835  0.00  0.00    +0.000 A 
ATOM     21  C   UNL     1      22.599  -9.639  48.196  0.00  0.00    +0.000 A 
ATOM     22  C   UNL     1      23.580 -10.057  49.099  0.00  0.00    +0.000 A 
ATOM     23  C   UNL     1      24.688 -10.755  48.610  0.00  0.00    +0.000 A 
ATOM     24  C   UNL     1      24.820 -11.030  47.250  0.00  0.00    +0.000 A 
ATOM     25  C   UNL     1      23.836 -10.607  46.362  0.00  0.00    +0.000 A 
BRANCH  22  26
ATOM     26  O   UNL     1      23.534  -9.831  50.454  0.00  0.00    +0.000 OA
ATOM     27  C   UNL     1      22.286 -10.043  51.060  0.00  0.00    +0.000 C 
ENDBRANCH  22  26
BRANCH  23  28
ATOM     28  O   UNL     1      25.660 -11.173  49.478  0.00  0.00    +0.000 OA
ATOM     29  H   UNL     1      25.550 -10.698  50.322  0.00  0.00    +0.000 HD
ENDBRANCH  23  28
ENDBRANCH  19  20
ENDBRANCH   4  18
TORSDOF 8
ENDMDL
