MODEL 1
REMARK VINA RESULT:      -6.3      0.000      0.000
REMARK  Name = CyclosporineA.pdb
REMARK  40 active torsions:
REMARK  status: ('A' for Active; 'I' for Inactive)
REMARK    1  A    between atoms: C1_1  and  C78_78
REMARK    2  A    between atoms: N7_7  and  C8_8
REMARK    3  A    between atoms: C9_9  and  C15_15
REMARK    4  A    between atoms: N11_11  and  C20_20
REMARK    5  A    between atoms: C12_12  and  C21_21
REMARK    6  A    between atoms: N14_14  and  C23_23
REMARK    7  A    between atoms: C15_15  and  C16_16
REMARK    8  A    between atoms: C16_16  and  C17_17
REMARK    9  A    between atoms: C16_16  and  C18_18
REMARK   10  A    between atoms: C21_21  and  C82_82
REMARK   11  A    between atoms: C24_24  and  C25_25
REMARK   12  A    between atoms: C25_25  and  C30_30
REMARK   13  A    between atoms: C25_25  and  C31_31
REMARK   14  A    between atoms: C26_26  and  O27_27
REMARK   15  A    between atoms: N28_28  and  C29_29
REMARK   16  A    between atoms: C32_32  and  C34_34
REMARK   17  A    between atoms: C34_34  and  C35_35
REMARK   18  A    between atoms: C34_34  and  O40_40
REMARK   19  A    between atoms: C35_35  and  C36_36
REMARK   20  A    between atoms: C35_35  and  C41_41
REMARK   21  A    between atoms: C36_36  and  C37_37
REMARK   22  A    between atoms: C38_38  and  C39_39
REMARK   23  A    between atoms: C44_44  and  C45_45
REMARK   24  A    between atoms: C45_45  and  C46_46
REMARK   25  A    between atoms: N49_49  and  C77_77
REMARK   26  A    between atoms: C53_53  and  C57_57
REMARK   27  A    between atoms: C57_57  and  C58_58
REMARK   28  A    between atoms: C58_58  and  C59_59
REMARK   29  A    between atoms: C58_58  and  C76_76
REMARK   30  A    between atoms: C61_61  and  C62_62
REMARK   31  A    between atoms: C62_62  and  C63_63
REMARK   32  A    between atoms: C62_62  and  C64_64
REMARK   33  A    between atoms: N66_66  and  C68_68
REMARK   34  A    between atoms: C67_67  and  C75_75
REMARK   35  A    between atoms: C73_73  and  C74_74
REMARK   36  A    between atoms: C75_75  and  C79_79
REMARK   37  A    between atoms: C79_79  and  C80_80
REMARK   38  A    between atoms: C79_79  and  C81_81
REMARK   39  A    between atoms: C82_82  and  C83_83
REMARK   40  A    between atoms: C82_82  and  C84_84
REMARK                            x       y       z     vdW  Elec       q    Type
REMARK                         _______ _______ _______ _____ _____    ______ ____
ROOT
ATOM      1  C1  UNK     0      49.387  -4.461  35.900  0.00  0.00    +0.000 C 
ATOM      2  C2  UNK     0      49.316  -3.049  36.544  0.00  0.00    +0.000 C 
ATOM      3  N3  UNK     0      50.478  -4.412  34.939  0.00  0.00    +0.000 N 
ATOM      4  C4  UNK     0      51.193  -5.517  34.545  0.00  0.00    +0.000 C 
ATOM      5  O5  UNK     0      51.030  -6.630  35.041  0.00  0.00    +0.000 OA
ATOM      6  C6  UNK     0      48.346  -2.204  36.140  0.00  0.00    +0.000 C 
ATOM      7  N7  UNK     0      50.307  -2.696  37.514  0.00  0.00    +0.000 N 
ATOM      8  C8  UNK     0      51.300  -3.683  37.978  0.00  0.00    +0.000 C 
ATOM      9  C9  UNK     0      50.418  -1.310  38.101  0.00  0.00    +0.000 C 
ATOM     10  C10 UNK     0      51.248  -0.363  37.163  0.00  0.00    +0.000 C 
ATOM     11  N11 UNK     0      50.885   1.018  37.087  0.00  0.00    +0.000 N 
ATOM     12  C12 UNK     0      51.227   1.884  35.911  0.00  0.00    +0.000 C 
ATOM     13  C13 UNK     0      52.328   2.932  36.281  0.00  0.00    +0.000 C 
ATOM     14  N14 UNK     0      52.365   4.137  35.529  0.00  0.00    +0.000 N 
ATOM     15  C19 UNK     0      52.268  -0.868  36.439  0.00  0.00    +0.000 C 
ATOM     16  C20 UNK     0      50.057   1.668  38.113  0.00  0.00    +0.000 C 
ATOM     17  C22 UNK     0      53.177   2.742  37.311  0.00  0.00    +0.000 C 
ATOM     18  C23 UNK     0      51.866   5.310  36.310  0.00  0.00    +0.000 C 
ATOM     19  C24 UNK     0      53.601   4.481  34.687  0.00  0.00    +0.000 C 
ATOM     20  C26 UNK     0      53.287   5.776  33.794  0.00  0.00    +0.000 C 
ATOM     21  N28 UNK     0      54.327   6.089  32.811  0.00  0.00    +0.000 NA
ATOM     22  C29 UNK     0      55.412   6.863  33.424  0.00  0.00    +0.000 C 
ATOM     23  C32 UNK     0      53.844   6.698  31.529  0.00  0.00    +0.000 C 
ATOM     24  C33 UNK     0      54.984   6.468  30.499  0.00  0.00    +0.000 C 
ATOM     25  O42 UNK     0      55.632   7.365  29.972  0.00  0.00    +0.000 OA
ATOM     26  N43 UNK     0      55.209   5.121  30.284  0.00  0.00    +0.000 N 
ATOM     27  C44 UNK     0      56.212   4.615  29.370  0.00  0.00    +0.000 C 
ATOM     28  C47 UNK     0      55.679   4.730  27.921  0.00  0.00    +0.000 C 
ATOM     29  C48 UNK     0      56.424   5.485  27.086  0.00  0.00    +0.000 C 
ATOM     30  N49 UNK     0      54.481   4.101  27.489  0.00  0.00    +0.000 N 
ATOM     31  C50 UNK     0      53.542   3.330  28.351  0.00  0.00    +0.000 C 
ATOM     32  C51 UNK     0      53.401   1.872  27.876  0.00  0.00    +0.000 C 
ATOM     33  N52 UNK     0      54.511   1.396  27.212  0.00  0.00    +0.000 N 
ATOM     34  C53 UNK     0      54.687  -0.019  26.921  0.00  0.00    +0.000 C 
ATOM     35  C54 UNK     0      55.129  -0.733  28.225  0.00  0.00    +0.000 C 
ATOM     36  N55 UNK     0      54.909  -2.097  28.217  0.00  0.00    +0.000 N 
ATOM     37  O56 UNK     0      52.411   1.183  28.107  0.00  0.00    +0.000 OA
ATOM     38  O60 UNK     0      55.673  -0.140  29.152  0.00  0.00    +0.000 OA
ATOM     39  C61 UNK     0      55.114  -2.969  29.383  0.00  0.00    +0.000 C 
ATOM     40  C65 UNK     0      53.883  -2.795  30.321  0.00  0.00    +0.000 C 
ATOM     41  N66 UNK     0      52.619  -3.163  29.818  0.00  0.00    +0.000 N 
ATOM     42  C67 UNK     0      51.451  -2.899  30.709  0.00  0.00    +0.000 C 
ATOM     43  C68 UNK     0      52.468  -4.237  28.836  0.00  0.00    +0.000 C 
ATOM     44  O69 UNK     0      53.995  -2.372  31.477  0.00  0.00    +0.000 OA
ATOM     45  C70 UNK     0      51.325  -4.106  31.669  0.00  0.00    +0.000 C 
ATOM     46  N71 UNK     0      52.146  -4.021  32.779  0.00  0.00    +0.000 N 
ATOM     47  O72 UNK     0      50.647  -5.099  31.416  0.00  0.00    +0.000 OA
ATOM     48  C73 UNK     0      52.381  -5.203  33.612  0.00  0.00    +0.000 C 
ATOM     49  C74 UNK     0      53.622  -4.990  34.474  0.00  0.00    +0.000 C 
ATOM     50  C77 UNK     0      53.899   4.402  26.167  0.00  0.00    +0.000 C 
ATOM     51  C78 UNK     0      48.115  -4.990  35.225  0.00  0.00    +0.000 C 
ATOM     52  H2  UNK     0      50.689  -3.523  34.501  0.00  0.00    +0.000 HD
ATOM     53  H58 UNK     0      54.813   4.494  30.973  0.00  0.00    +0.000 HD
ATOM     54  H69 UNK     0      55.330   1.994  27.291  0.00  0.00    +0.000 HD
ATOM     55  H71 UNK     0      54.231  -2.420  27.540  0.00  0.00    +0.000 HD
ATOM     56  H90 UNK     0      52.905  -3.340  32.697  0.00  0.00    +0.000 HD
ENDROOT
BRANCH  39  57
ATOM     57  C62 UNK     0      56.482  -2.818  30.101  0.00  0.00    +0.000 C 
ATOM     58  C63 UNK     0      56.649  -3.892  31.189  0.00  0.00    +0.000 C 
ATOM     59  C64 UNK     0      57.657  -2.945  29.122  0.00  0.00    +0.000 C 
ENDBRANCH  39  57
BRANCH  19  60
ATOM     60  C25 UNK     0      54.127   3.312  33.774  0.00  0.00    +0.000 C 
ATOM     61  C30 UNK     0      55.100   2.349  34.459  0.00  0.00    +0.000 C 
ATOM     62  C31 UNK     0      53.055   2.535  33.004  0.00  0.00    +0.000 C 
ENDBRANCH  19  60
BRANCH  20  63
ATOM     63  O27 UNK     0      52.007   5.616  33.171  0.00  0.00    +0.000 OA
ATOM     64  H34 UNK     0      52.120   4.835  32.589  0.00  0.00    +0.000 HD
ENDBRANCH  20  63
BRANCH  27  65
ATOM     65  C45 UNK     0      56.679   3.205  29.774  0.00  0.00    +0.000 C 
ATOM     66  C46 UNK     0      56.923   3.056  31.269  0.00  0.00    +0.000 C 
ENDBRANCH  27  65
BRANCH  23  67
ATOM     67  C34 UNK     0      53.367   8.183  31.558  0.00  0.00    +0.000 C 
BRANCH  67  68
ATOM     68  C35 UNK     0      52.466   8.613  30.359  0.00  0.00    +0.000 C 
ATOM     69  C41 UNK     0      52.715  10.038  29.854  0.00  0.00    +0.000 C 
BRANCH  68  70
ATOM     70  C36 UNK     0      50.974   8.427  30.744  0.00  0.00    +0.000 C 
BRANCH  70  71
ATOM     71  C37 UNK     0      50.404   7.097  30.327  0.00  0.00    +0.000 C 
ATOM     72  C38 UNK     0      49.204   6.641  30.717  0.00  0.00    +0.000 C 
ATOM     73  C39 UNK     0      48.640   5.319  30.312  0.00  0.00    +0.000 C 
ENDBRANCH  70  71
ENDBRANCH  68  70
ENDBRANCH  67  68
BRANCH  67  74
ATOM     74  O40 UNK     0      52.578   8.417  32.748  0.00  0.00    +0.000 OA
ATOM     75  H54 UNK     0      52.775   7.665  33.343  0.00  0.00    +0.000 HD
ENDBRANCH  67  74
ENDBRANCH  23  67
BRANCH  34  76
ATOM     76  C57 UNK     0      55.736  -0.175  25.807  0.00  0.00    +0.000 C 
BRANCH  76  77
ATOM     77  C58 UNK     0      55.213  -0.615  24.426  0.00  0.00    +0.000 C 
ATOM     78  C59 UNK     0      54.041   0.241  23.942  0.00  0.00    +0.000 C 
ATOM     79  C76 UNK     0      56.352  -0.548  23.402  0.00  0.00    +0.000 C 
ENDBRANCH  76  77
ENDBRANCH  34  76
BRANCH  12  80
ATOM     80  C21 UNK     0      49.955   2.533  35.291  0.00  0.00    +0.000 C 
BRANCH  80  81
ATOM     81  C82 UNK     0      49.335   1.779  34.098  0.00  0.00    +0.000 C 
ATOM     82  C83 UNK     0      50.097   0.500  33.756  0.00  0.00    +0.000 C 
ATOM     83  C84 UNK     0      49.299   2.697  32.872  0.00  0.00    +0.000 C 
ENDBRANCH  80  81
ENDBRANCH  12  80
BRANCH  42  84
ATOM     84  C75 UNK     0      50.158  -2.636  29.908  0.00  0.00    +0.000 C 
BRANCH  84  85
ATOM     85  C79 UNK     0      49.361  -1.397  30.365  0.00  0.00    +0.000 C 
ATOM     86  C80 UNK     0      48.086  -1.172  29.553  0.00  0.00    +0.000 C 
ATOM     87  C81 UNK     0      50.249  -0.152  30.271  0.00  0.00    +0.000 C 
ENDBRANCH  84  85
ENDBRANCH  42  84
BRANCH   9  88
ATOM     88  C15 UNK     0      50.915  -1.270  39.576  0.00  0.00    +0.000 C 
BRANCH  88  89
ATOM     89  C16 UNK     0      49.774  -1.321  40.620  0.00  0.00    +0.000 C 
ATOM     90  C17 UNK     0      49.845  -2.549  41.526  0.00  0.00    +0.000 C 
ATOM     91  C18 UNK     0      49.797  -0.051  41.474  0.00  0.00    +0.000 C 
ENDBRANCH  88  89
ENDBRANCH   9  88
TORSDOF 17
ENDMDL
MODEL 2
REMARK VINA RESULT:      -5.4     21.196     28.648
REMARK  Name = CyclosporineA.pdb
REMARK  40 active torsions:
REMARK  status: ('A' for Active; 'I' for Inactive)
REMARK    1  A    between atoms: C1_1  and  C78_78
REMARK    2  A    between atoms: N7_7  and  C8_8
REMARK    3  A    between atoms: C9_9  and  C15_15
REMARK    4  A    between atoms: N11_11  and  C20_20
REMARK    5  A    between atoms: C12_12  and  C21_21
REMARK    6  A    between atoms: N14_14  and  C23_23
REMARK    7  A    between atoms: C15_15  and  C16_16
REMARK    8  A    between atoms: C16_16  and  C17_17
REMARK    9  A    between atoms: C16_16  and  C18_18
REMARK   10  A    between atoms: C21_21  and  C82_82
REMARK   11  A    between atoms: C24_24  and  C25_25
REMARK   12  A    between atoms: C25_25  and  C30_30
REMARK   13  A    between atoms: C25_25  and  C31_31
REMARK   14  A    between atoms: C26_26  and  O27_27
REMARK   15  A    between atoms: N28_28  and  C29_29
REMARK   16  A    between atoms: C32_32  and  C34_34
REMARK   17  A    between atoms: C34_34  and  C35_35
REMARK   18  A    between atoms: C34_34  and  O40_40
REMARK   19  A    between atoms: C35_35  and  C36_36
REMARK   20  A    between atoms: C35_35  and  C41_41
REMARK   21  A    between atoms: C36_36  and  C37_37
REMARK   22  A    between atoms: C38_38  and  C39_39
REMARK   23  A    between atoms: C44_44  and  C45_45
REMARK   24  A    between atoms: C45_45  and  C46_46
REMARK   25  A    between atoms: N49_49  and  C77_77
REMARK   26  A    between atoms: C53_53  and  C57_57
REMARK   27  A    between atoms: C57_57  and  C58_58
REMARK   28  A    between atoms: C58_58  and  C59_59
REMARK   29  A    between atoms: C58_58  and  C76_76
REMARK   30  A    between atoms: C61_61  and  C62_62
REMARK   31  A    between atoms: C62_62  and  C63_63
REMARK   32  A    between atoms: C62_62  and  C64_64
REMARK   33  A    between atoms: N66_66  and  C68_68
REMARK   34  A    between atoms: C67_67  and  C75_75
REMARK   35  A    between atoms: C73_73  and  C74_74
REMARK   36  A    between atoms: C75_75  and  C79_79
REMARK   37  A    between atoms: C79_79  and  C80_80
REMARK   38  A    between atoms: C79_79  and  C81_81
REMARK   39  A    between atoms: C82_82  and  C83_83
REMARK   40  A    between atoms: C82_82  and  C84_84
REMARK                            x       y       z     vdW  Elec       q    Type
REMARK                         _______ _______ _______ _____ _____    ______ ____
ROOT
ATOM      1  C1  UNK     0      52.787 -12.643   8.583  0.00  0.00    +0.000 C 
ATOM      2  C2  UNK     0      52.374 -14.075   8.144  0.00  0.00    +0.000 C 
ATOM      3  N3  UNK     0      53.471 -12.794   9.858  0.00  0.00    +0.000 N 
ATOM      4  C4  UNK     0      54.408 -11.905  10.326  0.00  0.00    +0.000 C 
ATOM      5  O5  UNK     0      54.815 -10.953   9.664  0.00  0.00    +0.000 OA
ATOM      6  C6  UNK     0      51.087 -14.450   8.296  0.00  0.00    +0.000 C 
ATOM      7  N7  UNK     0      53.386 -14.944   7.628  0.00  0.00    +0.000 N 
ATOM      8  C8  UNK     0      54.762 -14.460   7.409  0.00  0.00    +0.000 C 
ATOM      9  C9  UNK     0      53.129 -16.395   7.300  0.00  0.00    +0.000 C 
ATOM     10  C10 UNK     0      53.252 -17.295   8.581  0.00  0.00    +0.000 C 
ATOM     11  N11 UNK     0      52.394 -18.431   8.707  0.00  0.00    +0.000 N 
ATOM     12  C12 UNK     0      52.051 -19.047  10.031  0.00  0.00    +0.000 C 
ATOM     13  C13 UNK     0      52.737 -20.442  10.202  0.00  0.00    +0.000 C 
ATOM     14  N14 UNK     0      52.113 -21.378  11.070  0.00  0.00    +0.000 N 
ATOM     15  C19 UNK     0      54.146 -16.972   9.539  0.00  0.00    +0.000 C 
ATOM     16  C20 UNK     0      51.701 -19.021   7.553  0.00  0.00    +0.000 C 
ATOM     17  C22 UNK     0      53.843 -20.783   9.511  0.00  0.00    +0.000 C 
ATOM     18  C23 UNK     0      51.448 -22.489  10.326  0.00  0.00    +0.000 C 
ATOM     19  C24 UNK     0      52.848 -21.873  12.324  0.00  0.00    +0.000 C 
ATOM     20  C26 UNK     0      51.841 -22.748  13.215  0.00  0.00    +0.000 C 
ATOM     21  N28 UNK     0      52.375 -23.119  14.527  0.00  0.00    +0.000 NA
ATOM     22  C29 UNK     0      53.216 -24.317  14.430  0.00  0.00    +0.000 C 
ATOM     23  C32 UNK     0      51.367 -23.216  15.633  0.00  0.00    +0.000 C 
ATOM     24  C33 UNK     0      52.181 -23.109  16.952  0.00  0.00    +0.000 C 
ATOM     25  O42 UNK     0      52.275 -24.006  17.782  0.00  0.00    +0.000 OA
ATOM     26  N43 UNK     0      52.824 -21.889  17.054  0.00  0.00    +0.000 N 
ATOM     27  C44 UNK     0      53.650 -21.514  18.183  0.00  0.00    +0.000 C 
ATOM     28  C47 UNK     0      52.736 -21.101  19.362  0.00  0.00    +0.000 C 
ATOM     29  C48 UNK     0      52.885 -21.822  20.493  0.00  0.00    +0.000 C 
ATOM     30  N49 UNK     0      51.791 -20.044  19.270  0.00  0.00    +0.000 N 
ATOM     31  C50 UNK     0      51.483 -19.254  18.046  0.00  0.00    +0.000 C 
ATOM     32  C51 UNK     0      51.772 -17.755  18.250  0.00  0.00    +0.000 C 
ATOM     33  N52 UNK     0      52.751 -17.502  19.186  0.00  0.00    +0.000 N 
ATOM     34  C53 UNK     0      53.355 -16.186  19.333  0.00  0.00    +0.000 C 
ATOM     35  C54 UNK     0      54.372 -15.986  18.179  0.00  0.00    +0.000 C 
ATOM     36  N55 UNK     0      54.684 -14.662  17.933  0.00  0.00    +0.000 N 
ATOM     37  O56 UNK     0      51.216 -16.870  17.605  0.00  0.00    +0.000 OA
ATOM     38  O60 UNK     0      54.887 -16.926  17.581  0.00  0.00    +0.000 OA
ATOM     39  C61 UNK     0      55.512 -14.209  16.805  0.00  0.00    +0.000 C 
ATOM     40  C65 UNK     0      54.614 -14.214  15.532  0.00  0.00    +0.000 C 
ATOM     41  N66 UNK     0      53.493 -13.360  15.519  0.00  0.00    +0.000 N 
ATOM     42  C67 UNK     0      52.604 -13.456  14.323  0.00  0.00    +0.000 C 
ATOM     43  C68 UNK     0      53.490 -12.087  16.241  0.00  0.00    +0.000 C 
ATOM     44  O69 UNK     0      54.873 -14.919  14.552  0.00  0.00    +0.000 OA
ATOM     45  C70 UNK     0      53.208 -12.542  13.230  0.00  0.00    +0.000 C 
ATOM     46  N71 UNK     0      54.209 -13.146  12.490  0.00  0.00    +0.000 N 
ATOM     47  O72 UNK     0      52.908 -11.357  13.103  0.00  0.00    +0.000 OA
ATOM     48  C73 UNK     0      55.087 -12.337  11.643  0.00  0.00    +0.000 C 
ATOM     49  C74 UNK     0      56.344 -13.129  11.295  0.00  0.00    +0.000 C 
ATOM     50  C77 UNK     0      50.799 -19.817  20.340  0.00  0.00    +0.000 C 
ATOM     51  C78 UNK     0      51.671 -11.597   8.704  0.00  0.00    +0.000 C 
ATOM     52  H2  UNK     0      53.206 -13.569  10.453  0.00  0.00    +0.000 HD
ATOM     53  H58 UNK     0      52.896 -21.358  16.196  0.00  0.00    +0.000 HD
ATOM     54  H69 UNK     0      53.275 -18.326  19.472  0.00  0.00    +0.000 HD
ATOM     55  H71 UNK     0      54.018 -13.989  18.288  0.00  0.00    +0.000 HD
ATOM     56  H90 UNK     0      54.605 -13.988  12.916  0.00  0.00    +0.000 HD
ENDROOT
BRANCH  39  57
ATOM     57  C62 UNK     0      56.864 -14.949  16.628  0.00  0.00    +0.000 C 
ATOM     58  C63 UNK     0      57.726 -14.261  15.556  0.00  0.00    +0.000 C 
ATOM     59  C64 UNK     0      57.671 -14.987  17.933  0.00  0.00    +0.000 C 
ENDBRANCH  39  57
BRANCH  19  60
ATOM     60  C25 UNK     0      53.500 -20.740  13.201  0.00  0.00    +0.000 C 
ATOM     61  C30 UNK     0      54.888 -20.288  12.739  0.00  0.00    +0.000 C 
ATOM     62  C31 UNK     0      52.609 -19.530  13.493  0.00  0.00    +0.000 C 
ENDBRANCH  19  60
BRANCH  20  63
ATOM     63  O27 UNK     0      50.595 -22.050  13.334  0.00  0.00    +0.000 OA
ATOM     64  H34 UNK     0      50.595 -21.717  14.256  0.00  0.00    +0.000 HD
ENDBRANCH  20  63
BRANCH  27  65
ATOM     65  C45 UNK     0      54.701 -20.463  17.784  0.00  0.00    +0.000 C 
ATOM     66  C46 UNK     0      55.371 -20.756  16.448  0.00  0.00    +0.000 C 
ENDBRANCH  27  65
BRANCH  23  67
ATOM     67  C34 UNK     0      50.399 -24.439  15.635  0.00  0.00    +0.000 C 
BRANCH  67  68
ATOM     68  C35 UNK     0      49.147 -24.290  16.555  0.00  0.00    +0.000 C 
ATOM     69  C41 UNK     0      47.863 -24.900  15.985  0.00  0.00    +0.000 C 
BRANCH  68  70
ATOM     70  C36 UNK     0      48.932 -22.789  16.891  0.00  0.00    +0.000 C 
BRANCH  70  71
ATOM     71  C37 UNK     0      47.803 -22.154  16.122  0.00  0.00    +0.000 C 
ATOM     72  C38 UNK     0      47.906 -20.987  15.470  0.00  0.00    +0.000 C 
ATOM     73  C39 UNK     0      46.787 -20.349  14.715  0.00  0.00    +0.000 C 
ENDBRANCH  70  71
ENDBRANCH  68  70
ENDBRANCH  67  68
BRANCH  67  74
ATOM     74  O40 UNK     0      49.885 -24.653  14.301  0.00  0.00    +0.000 OA
ATOM     75  H54 UNK     0      49.463 -25.536  14.323  0.00  0.00    +0.000 HD
ENDBRANCH  67  74
ENDBRANCH  23  67
BRANCH  34  76
ATOM     76  C57 UNK     0      54.036 -16.098  20.709  0.00  0.00    +0.000 C 
BRANCH  76  77
ATOM     77  C58 UNK     0      55.451 -16.701  20.816  0.00  0.00    +0.000 C 
ATOM     78  C59 UNK     0      56.388 -15.851  21.675  0.00  0.00    +0.000 C 
ATOM     79  C76 UNK     0      55.362 -18.115  21.400  0.00  0.00    +0.000 C 
ENDBRANCH  76  77
ENDBRANCH  34  76
BRANCH  12  80
ATOM     80  C21 UNK     0      50.511 -19.096  10.255  0.00  0.00    +0.000 C 
BRANCH  80  81
ATOM     81  C82 UNK     0      49.928 -17.966  11.126  0.00  0.00    +0.000 C 
ATOM     82  C83 UNK     0      50.997 -16.985  11.604  0.00  0.00    +0.000 C 
ATOM     83  C84 UNK     0      49.208 -18.568  12.337  0.00  0.00    +0.000 C 
ENDBRANCH  80  81
ENDBRANCH  12  80
BRANCH  42  84
ATOM     84  C75 UNK     0      51.141 -13.099  14.658  0.00  0.00    +0.000 C 
BRANCH  84  85
ATOM     85  C79 UNK     0      50.443 -14.089  15.615  0.00  0.00    +0.000 C 
ATOM     86  C80 UNK     0      49.560 -15.102  14.888  0.00  0.00    +0.000 C 
ATOM     87  C81 UNK     0      49.597 -13.312  16.629  0.00  0.00    +0.000 C 
ENDBRANCH  84  85
ENDBRANCH  42  84
BRANCH   9  88
ATOM     88  C15 UNK     0      53.960 -16.946   6.104  0.00  0.00    +0.000 C 
BRANCH  88  89
ATOM     89  C16 UNK     0      53.244 -16.822   4.738  0.00  0.00    +0.000 C 
ATOM     90  C17 UNK     0      51.737 -16.610   4.868  0.00  0.00    +0.000 C 
ATOM     91  C18 UNK     0      53.857 -15.672   3.934  0.00  0.00    +0.000 C 
ENDBRANCH  88  89
ENDBRANCH   9  88
TORSDOF 17
ENDMDL
MODEL 3
REMARK VINA RESULT:      -5.3      3.410     10.699
REMARK  Name = CyclosporineA.pdb
REMARK  40 active torsions:
REMARK  status: ('A' for Active; 'I' for Inactive)
REMARK    1  A    between atoms: C1_1  and  C78_78
REMARK    2  A    between atoms: N7_7  and  C8_8
REMARK    3  A    between atoms: C9_9  and  C15_15
REMARK    4  A    between atoms: N11_11  and  C20_20
REMARK    5  A    between atoms: C12_12  and  C21_21
REMARK    6  A    between atoms: N14_14  and  C23_23
REMARK    7  A    between atoms: C15_15  and  C16_16
REMARK    8  A    between atoms: C16_16  and  C17_17
REMARK    9  A    between atoms: C16_16  and  C18_18
REMARK   10  A    between atoms: C21_21  and  C82_82
REMARK   11  A    between atoms: C24_24  and  C25_25
REMARK   12  A    between atoms: C25_25  and  C30_30
REMARK   13  A    between atoms: C25_25  and  C31_31
REMARK   14  A    between atoms: C26_26  and  O27_27
REMARK   15  A    between atoms: N28_28  and  C29_29
REMARK   16  A    between atoms: C32_32  and  C34_34
REMARK   17  A    between atoms: C34_34  and  C35_35
REMARK   18  A    between atoms: C34_34  and  O40_40
REMARK   19  A    between atoms: C35_35  and  C36_36
REMARK   20  A    between atoms: C35_35  and  C41_41
REMARK   21  A    between atoms: C36_36  and  C37_37
REMARK   22  A    between atoms: C38_38  and  C39_39
REMARK   23  A    between atoms: C44_44  and  C45_45
REMARK   24  A    between atoms: C45_45  and  C46_46
REMARK   25  A    between atoms: N49_49  and  C77_77
REMARK   26  A    between atoms: C53_53  and  C57_57
REMARK   27  A    between atoms: C57_57  and  C58_58
REMARK   28  A    between atoms: C58_58  and  C59_59
REMARK   29  A    between atoms: C58_58  and  C76_76
REMARK   30  A    between atoms: C61_61  and  C62_62
REMARK   31  A    between atoms: C62_62  and  C63_63
REMARK   32  A    between atoms: C62_62  and  C64_64
REMARK   33  A    between atoms: N66_66  and  C68_68
REMARK   34  A    between atoms: C67_67  and  C75_75
REMARK   35  A    between atoms: C73_73  and  C74_74
REMARK   36  A    between atoms: C75_75  and  C79_79
REMARK   37  A    between atoms: C79_79  and  C80_80
REMARK   38  A    between atoms: C79_79  and  C81_81
REMARK   39  A    between atoms: C82_82  and  C83_83
REMARK   40  A    between atoms: C82_82  and  C84_84
REMARK                            x       y       z     vdW  Elec       q    Type
REMARK                         _______ _______ _______ _____ _____    ______ ____
ROOT
ATOM      1  C1  UNK     0      56.775   8.089  35.672  0.00  0.00    +0.000 C 
ATOM      2  C2  UNK     0      56.809   7.358  37.043  0.00  0.00    +0.000 C 
ATOM      3  N3  UNK     0      55.617   7.565  34.965  0.00  0.00    +0.000 N 
ATOM      4  C4  UNK     0      54.942   8.264  33.993  0.00  0.00    +0.000 C 
ATOM      5  O5  UNK     0      55.206   9.429  33.702  0.00  0.00    +0.000 OA
ATOM      6  C6  UNK     0      57.697   6.358  37.218  0.00  0.00    +0.000 C 
ATOM      7  N7  UNK     0      55.871   7.757  38.047  0.00  0.00    +0.000 N 
ATOM      8  C8  UNK     0      54.974   8.907  37.833  0.00  0.00    +0.000 C 
ATOM      9  C9  UNK     0      55.721   7.029  39.361  0.00  0.00    +0.000 C 
ATOM     10  C10 UNK     0      54.773   5.786  39.214  0.00  0.00    +0.000 C 
ATOM     11  N11 UNK     0      55.048   4.616  39.989  0.00  0.00    +0.000 N 
ATOM     12  C12 UNK     0      54.572   3.250  39.593  0.00  0.00    +0.000 C 
ATOM     13  C13 UNK     0      53.440   2.746  40.549  0.00  0.00    +0.000 C 
ATOM     14  N14 UNK     0      53.279   1.341  40.691  0.00  0.00    +0.000 N 
ATOM     15  C19 UNK     0      53.734   5.837  38.353  0.00  0.00    +0.000 C 
ATOM     16  C20 UNK     0      55.907   4.651  41.181  0.00  0.00    +0.000 C 
ATOM     17  C22 UNK     0      52.680   3.597  41.266  0.00  0.00    +0.000 C 
ATOM     18  C23 UNK     0      53.763   0.844  42.014  0.00  0.00    +0.000 C 
ATOM     19  C24 UNK     0      51.968   0.669  40.260  0.00  0.00    +0.000 C 
ATOM     20  C26 UNK     0      52.140  -0.923  40.337  0.00  0.00    +0.000 C 
ATOM     21  N28 UNK     0      51.016  -1.672  39.771  0.00  0.00    +0.000 NA
ATOM     22  C29 UNK     0      49.935  -1.814  40.752  0.00  0.00    +0.000 C 
ATOM     23  C32 UNK     0      51.370  -2.975  39.118  0.00  0.00    +0.000 C 
ATOM     24  C33 UNK     0      50.174  -3.315  38.186  0.00  0.00    +0.000 C 
ATOM     25  O42 UNK     0      49.439  -4.285  38.330  0.00  0.00    +0.000 OA
ATOM     26  N43 UNK     0      50.014  -2.361  37.198  0.00  0.00    +0.000 N 
ATOM     27  C44 UNK     0      48.979  -2.425  36.186  0.00  0.00    +0.000 C 
ATOM     28  C47 UNK     0      49.400  -3.444  35.099  0.00  0.00    +0.000 C 
ATOM     29  C48 UNK     0      48.554  -4.479  34.914  0.00  0.00    +0.000 C 
ATOM     30  N49 UNK     0      50.598  -3.316  34.347  0.00  0.00    +0.000 N 
ATOM     31  C50 UNK     0      51.641  -2.270  34.540  0.00  0.00    +0.000 C 
ATOM     32  C51 UNK     0      51.833  -1.420  33.270  0.00  0.00    +0.000 C 
ATOM     33  N52 UNK     0      50.707  -1.346  32.477  0.00  0.00    +0.000 N 
ATOM     34  C53 UNK     0      50.595  -0.389  31.386  0.00  0.00    +0.000 C 
ATOM     35  C54 UNK     0      50.290   1.006  31.993  0.00  0.00    +0.000 C 
ATOM     36  N55 UNK     0      50.589   2.059  31.148  0.00  0.00    +0.000 N 
ATOM     37  O56 UNK     0      52.875  -0.824  33.011  0.00  0.00    +0.000 OA
ATOM     38  O60 UNK     0      49.780   1.149  33.100  0.00  0.00    +0.000 OA
ATOM     39  C61 UNK     0      50.519   3.473  31.544  0.00  0.00    +0.000 C 
ATOM     40  C65 UNK     0      51.802   3.794  32.367  0.00  0.00    +0.000 C 
ATOM     41  N66 UNK     0      53.046   3.666  31.717  0.00  0.00    +0.000 N 
ATOM     42  C67 UNK     0      54.258   3.892  32.560  0.00  0.00    +0.000 C 
ATOM     43  C68 UNK     0      53.189   3.904  30.281  0.00  0.00    +0.000 C 
ATOM     44  O69 UNK     0      51.748   4.171  33.542  0.00  0.00    +0.000 OA
ATOM     45  C70 UNK     0      54.522   5.417  32.580  0.00  0.00    +0.000 C 
ATOM     46  N71 UNK     0      53.779   6.096  33.528  0.00  0.00    +0.000 N 
ATOM     47  O72 UNK     0      55.237   5.986  31.760  0.00  0.00    +0.000 OA
ATOM     48  C73 UNK     0      53.674   7.556  33.471  0.00  0.00    +0.000 C 
ATOM     49  C74 UNK     0      52.488   8.023  34.309  0.00  0.00    +0.000 C 
ATOM     50  C77 UNK     0      51.066  -4.410  33.472  0.00  0.00    +0.000 C 
ATOM     51  C78 UNK     0      58.025   7.983  34.789  0.00  0.00    +0.000 C 
ATOM     52  H2  UNK     0      55.324   6.617  35.165  0.00  0.00    +0.000 HD
ATOM     53  H58 UNK     0      50.495  -1.484  37.353  0.00  0.00    +0.000 HD
ATOM     54  H69 UNK     0      49.863  -1.697  32.922  0.00  0.00    +0.000 HD
ATOM     55  H71 UNK     0      51.234   1.842  30.401  0.00  0.00    +0.000 HD
ATOM     56  H90 UNK     0      52.978   5.578  33.895  0.00  0.00    +0.000 HD
ENDROOT
BRANCH  39  57
ATOM     57  C62 UNK     0      49.200   3.912  32.233  0.00  0.00    +0.000 C 
ATOM     58  C63 UNK     0      49.163   5.438  32.419  0.00  0.00    +0.000 C 
ATOM     59  C64 UNK     0      47.966   3.503  31.417  0.00  0.00    +0.000 C 
ENDBRANCH  39  57
BRANCH  19  60
ATOM     60  C25 UNK     0      51.448   1.087  38.834  0.00  0.00    +0.000 C 
ATOM     61  C30 UNK     0      50.649   2.393  38.798  0.00  0.00    +0.000 C 
ATOM     62  C31 UNK     0      52.489   1.063  37.712  0.00  0.00    +0.000 C 
ENDBRANCH  19  60
BRANCH  20  63
ATOM     63  O27 UNK     0      53.380  -1.290  39.719  0.00  0.00    +0.000 OA
ATOM     64  H34 UNK     0      53.115  -1.886  38.987  0.00  0.00    +0.000 HD
ENDBRANCH  20  63
BRANCH  27  65
ATOM     65  C45 UNK     0      48.626  -1.025  35.655  0.00  0.00    +0.000 C 
ATOM     66  C46 UNK     0      48.859   0.083  36.673  0.00  0.00    +0.000 C 
ENDBRANCH  27  65
BRANCH  23  67
ATOM     67  C34 UNK     0      51.760  -4.173  40.038  0.00  0.00    +0.000 C 
BRANCH  67  68
ATOM     68  C35 UNK     0      51.895  -5.548  39.313  0.00  0.00    +0.000 C 
ATOM     69  C41 UNK     0      51.824  -6.766  40.239  0.00  0.00    +0.000 C 
BRANCH  68  70
ATOM     70  C36 UNK     0      53.211  -5.568  38.490  0.00  0.00    +0.000 C 
BRANCH  70  71
ATOM     71  C37 UNK     0      53.153  -6.461  37.278  0.00  0.00    +0.000 C 
ATOM     72  C38 UNK     0      52.097  -6.534  36.453  0.00  0.00    +0.000 C 
ATOM     73  C39 UNK     0      52.032  -7.424  35.256  0.00  0.00    +0.000 C 
ENDBRANCH  70  71
ENDBRANCH  68  70
ENDBRANCH  67  68
BRANCH  67  74
ATOM     74  O40 UNK     0      53.047  -3.920  40.646  0.00  0.00    +0.000 OA
ATOM     75  H54 UNK     0      53.239  -4.711  41.189  0.00  0.00    +0.000 HD
ENDBRANCH  67  74
ENDBRANCH  23  67
BRANCH  34  76
ATOM     76  C57 UNK     0      49.480  -0.847  30.432  0.00  0.00    +0.000 C 
BRANCH  76  77
ATOM     77  C58 UNK     0      49.211  -2.363  30.364  0.00  0.00    +0.000 C 
ATOM     78  C59 UNK     0      47.770  -2.687  29.969  0.00  0.00    +0.000 C 
ATOM     79  C76 UNK     0      50.175  -3.010  29.363  0.00  0.00    +0.000 C 
ENDBRANCH  76  77
ENDBRANCH  34  76
BRANCH  12  80
ATOM     80  C21 UNK     0      55.756   2.246  39.472  0.00  0.00    +0.000 C 
BRANCH  80  81
ATOM     81  C82 UNK     0      56.198   1.907  38.035  0.00  0.00    +0.000 C 
ATOM     82  C83 UNK     0      56.299   0.402  37.795  0.00  0.00    +0.000 C 
ATOM     83  C84 UNK     0      57.551   2.563  37.744  0.00  0.00    +0.000 C 
ENDBRANCH  80  81
ENDBRANCH  12  80
BRANCH  42  84
ATOM     84  C75 UNK     0      55.472   3.082  32.059  0.00  0.00    +0.000 C 
BRANCH  84  85
ATOM     85  C79 UNK     0      56.082   2.127  33.106  0.00  0.00    +0.000 C 
ATOM     86  C80 UNK     0      55.170   1.897  34.310  0.00  0.00    +0.000 C 
ATOM     87  C81 UNK     0      57.426   2.683  33.586  0.00  0.00    +0.000 C 
ENDBRANCH  84  85
ENDBRANCH  42  84
BRANCH   9  88
ATOM     88  C15 UNK     0      55.330   7.937  40.563  0.00  0.00    +0.000 C 
BRANCH  88  89
ATOM     89  C16 UNK     0      53.891   7.699  41.081  0.00  0.00    +0.000 C 
ATOM     90  C17 UNK     0      53.841   7.319  42.560  0.00  0.00    +0.000 C 
ATOM     91  C18 UNK     0      53.042   8.951  40.843  0.00  0.00    +0.000 C 
ENDBRANCH  88  89
ENDBRANCH   9  88
TORSDOF 17
ENDMDL
MODEL 4
REMARK VINA RESULT:      -5.2     39.167     41.962
REMARK  Name = CyclosporineA.pdb
REMARK  40 active torsions:
REMARK  status: ('A' for Active; 'I' for Inactive)
REMARK    1  A    between atoms: C1_1  and  C78_78
REMARK    2  A    between atoms: N7_7  and  C8_8
REMARK    3  A    between atoms: C9_9  and  C15_15
REMARK    4  A    between atoms: N11_11  and  C20_20
REMARK    5  A    between atoms: C12_12  and  C21_21
REMARK    6  A    between atoms: N14_14  and  C23_23
REMARK    7  A    between atoms: C15_15  and  C16_16
REMARK    8  A    between atoms: C16_16  and  C17_17
REMARK    9  A    between atoms: C16_16  and  C18_18
REMARK   10  A    between atoms: C21_21  and  C82_82
REMARK   11  A    between atoms: C24_24  and  C25_25
REMARK   12  A    between atoms: C25_25  and  C30_30
REMARK   13  A    between atoms: C25_25  and  C31_31
REMARK   14  A    between atoms: C26_26  and  O27_27
REMARK   15  A    between atoms: N28_28  and  C29_29
REMARK   16  A    between atoms: C32_32  and  C34_34
REMARK   17  A    between atoms: C34_34  and  C35_35
REMARK   18  A    between atoms: C34_34  and  O40_40
REMARK   19  A    between atoms: C35_35  and  C36_36
REMARK   20  A    between atoms: C35_35  and  C41_41
REMARK   21  A    between atoms: C36_36  and  C37_37
REMARK   22  A    between atoms: C38_38  and  C39_39
REMARK   23  A    between atoms: C44_44  and  C45_45
REMARK   24  A    between atoms: C45_45  and  C46_46
REMARK   25  A    between atoms: N49_49  and  C77_77
REMARK   26  A    between atoms: C53_53  and  C57_57
REMARK   27  A    between atoms: C57_57  and  C58_58
REMARK   28  A    between atoms: C58_58  and  C59_59
REMARK   29  A    between atoms: C58_58  and  C76_76
REMARK   30  A    between atoms: C61_61  and  C62_62
REMARK   31  A    between atoms: C62_62  and  C63_63
REMARK   32  A    between atoms: C62_62  and  C64_64
REMARK   33  A    between atoms: N66_66  and  C68_68
REMARK   34  A    between atoms: C67_67  and  C75_75
REMARK   35  A    between atoms: C73_73  and  C74_74
REMARK   36  A    between atoms: C75_75  and  C79_79
REMARK   37  A    between atoms: C79_79  and  C80_80
REMARK   38  A    between atoms: C79_79  and  C81_81
REMARK   39  A    between atoms: C82_82  and  C83_83
REMARK   40  A    between atoms: C82_82  and  C84_84
REMARK                            x       y       z     vdW  Elec       q    Type
REMARK                         _______ _______ _______ _____ _____    ______ ____
ROOT
ATOM      1  C1  UNK     0      11.818  -9.116  19.282  0.00  0.00    +0.000 C 
ATOM      2  C2  UNK     0      11.398  -7.703  19.772  0.00  0.00    +0.000 C 
ATOM      3  N3  UNK     0      12.972  -8.916  18.419  0.00  0.00    +0.000 N 
ATOM      4  C4  UNK     0      13.931  -9.875  18.201  0.00  0.00    +0.000 C 
ATOM      5  O5  UNK     0      13.944 -10.954  18.791  0.00  0.00    +0.000 OA
ATOM      6  C6  UNK     0      10.324  -7.116  19.203  0.00  0.00    +0.000 C 
ATOM      7  N7  UNK     0      12.189  -7.072  20.782  0.00  0.00    +0.000 N 
ATOM      8  C8  UNK     0      13.306  -7.787  21.427  0.00  0.00    +0.000 C 
ATOM      9  C9  UNK     0      11.957  -5.651  21.234  0.00  0.00    +0.000 C 
ATOM     10  C10 UNK     0      12.673  -4.629  20.280  0.00  0.00    +0.000 C 
ATOM     11  N11 UNK     0      12.049  -3.366  20.033  0.00  0.00    +0.000 N 
ATOM     12  C12 UNK     0      12.332  -2.547  18.810  0.00  0.00    +0.000 C 
ATOM     13  C13 UNK     0      13.155  -1.264  19.165  0.00  0.00    +0.000 C 
ATOM     14  N14 UNK     0      13.027  -0.143  18.302  0.00  0.00    +0.000 N 
ATOM     15  C19 UNK     0      13.844  -4.966  19.700  0.00  0.00    +0.000 C 
ATOM     16  C20 UNK     0      11.005  -2.824  20.914  0.00  0.00    +0.000 C 
ATOM     17  C22 UNK     0      13.911  -1.187  20.278  0.00  0.00    +0.000 C 
ATOM     18  C23 UNK     0      12.223   0.958  18.913  0.00  0.00    +0.000 C 
ATOM     19  C24 UNK     0      14.249   0.384  17.537  0.00  0.00    +0.000 C 
ATOM     20  C26 UNK     0      13.777   1.507  16.495  0.00  0.00    +0.000 C 
ATOM     21  N28 UNK     0      14.829   1.950  15.578  0.00  0.00    +0.000 NA
ATOM     22  C29 UNK     0      15.666   2.982  16.201  0.00  0.00    +0.000 C 
ATOM     23  C32 UNK     0      14.371   2.338  14.204  0.00  0.00    +0.000 C 
ATOM     24  C33 UNK     0      15.636   2.270  13.305  0.00  0.00    +0.000 C 
ATOM     25  O42 UNK     0      16.142   3.237  12.747  0.00  0.00    +0.000 OA
ATOM     26  N43 UNK     0      16.149   0.987  13.247  0.00  0.00    +0.000 N 
ATOM     27  C44 UNK     0      17.323   0.630  12.479  0.00  0.00    +0.000 C 
ATOM     28  C47 UNK     0      16.933   0.513  10.985  0.00  0.00    +0.000 C 
ATOM     29  C48 UNK     0      17.594   1.337  10.145  0.00  0.00    +0.000 C 
ATOM     30  N49 UNK     0      15.938  -0.387  10.518  0.00  0.00    +0.000 N 
ATOM     31  C50 UNK     0      15.088  -1.265  11.369  0.00  0.00    +0.000 C 
ATOM     32  C51 UNK     0      15.294  -2.753  11.033  0.00  0.00    +0.000 C 
ATOM     33  N52 UNK     0      16.541  -3.038  10.519  0.00  0.00    +0.000 N 
ATOM     34  C53 UNK     0      17.027  -4.404  10.389  0.00  0.00    +0.000 C 
ATOM     35  C54 UNK     0      17.464  -4.900  11.792  0.00  0.00    +0.000 C 
ATOM     36  N55 UNK     0      17.526  -6.277  11.902  0.00  0.00    +0.000 N 
ATOM     37  O56 UNK     0      14.445  -3.615  11.247  0.00  0.00    +0.000 OA
ATOM     38  O60 UNK     0      17.778  -4.133  12.697  0.00  0.00    +0.000 OA
ATOM     39  C61 UNK     0      17.778  -6.988  13.164  0.00  0.00    +0.000 C 
ATOM     40  C65 UNK     0      16.446  -7.001  13.971  0.00  0.00    +0.000 C 
ATOM     41  N66 UNK     0      15.342  -7.666  13.401  0.00  0.00    +0.000 N 
ATOM     42  C67 UNK     0      14.058  -7.582  14.157  0.00  0.00    +0.000 C 
ATOM     43  C68 UNK     0      15.515  -8.824  12.523  0.00  0.00    +0.000 C 
ATOM     44  O69 UNK     0      16.350  -6.471  15.083  0.00  0.00    +0.000 OA
ATOM     45  C70 UNK     0      14.078  -8.707  15.219  0.00  0.00    +0.000 C 
ATOM     46  N71 UNK     0      14.744  -8.361  16.382  0.00  0.00    +0.000 N 
ATOM     47  O72 UNK     0      13.644  -9.836  15.011  0.00  0.00    +0.000 OA
ATOM     48  C73 UNK     0      15.123  -9.395  17.347  0.00  0.00    +0.000 C 
ATOM     49  C74 UNK     0      16.198  -8.857  18.286  0.00  0.00    +0.000 C 
ATOM     50  C77 UNK     0      15.449  -0.323   9.126  0.00  0.00    +0.000 C 
ATOM     51  C78 UNK     0      10.756  -9.953  18.558  0.00  0.00    +0.000 C 
ATOM     52  H2  UNK     0      13.044  -8.042  17.913  0.00  0.00    +0.000 HD
ATOM     53  H58 UNK     0      15.816   0.349  13.959  0.00  0.00    +0.000 HD
ATOM     54  H69 UNK     0      17.210  -2.277  10.608  0.00  0.00    +0.000 HD
ATOM     55  H71 UNK     0      17.002  -6.788  11.206  0.00  0.00    +0.000 HD
ATOM     56  H90 UNK     0      15.355  -7.545  16.297  0.00  0.00    +0.000 HD
ENDROOT
BRANCH  39  57
ATOM     57  C62 UNK     0      19.005  -6.495  13.978  0.00  0.00    +0.000 C 
ATOM     58  C63 UNK     0      19.412  -7.535  15.034  0.00  0.00    +0.000 C 
ATOM     59  C64 UNK     0      20.219  -6.231  13.076  0.00  0.00    +0.000 C 
ENDBRANCH  39  57
BRANCH  19  60
ATOM     60  C25 UNK     0      15.093  -0.720  16.796  0.00  0.00    +0.000 C 
ATOM     61  C30 UNK     0      14.404  -1.347  15.581  0.00  0.00    +0.000 C 
ATOM     62  C31 UNK     0      16.536  -0.337  16.458  0.00  0.00    +0.000 C 
ENDBRANCH  19  60
BRANCH  20  63
ATOM     63  O27 UNK     0      12.627   1.031  15.783  0.00  0.00    +0.000 OA
ATOM     64  H34 UNK     0      12.878   1.117  14.839  0.00  0.00    +0.000 HD
ENDBRANCH  20  63
BRANCH  27  65
ATOM     65  C45 UNK     0      18.020  -0.612  13.061  0.00  0.00    +0.000 C 
ATOM     66  C46 UNK     0      19.403  -0.859  12.474  0.00  0.00    +0.000 C 
ENDBRANCH  27  65
BRANCH  23  67
ATOM     67  C34 UNK     0      13.605   3.688  14.042  0.00  0.00    +0.000 C 
BRANCH  67  68
ATOM     68  C35 UNK     0      12.591   3.735  12.857  0.00  0.00    +0.000 C 
ATOM     69  C41 UNK     0      12.195   2.363  12.303  0.00  0.00    +0.000 C 
BRANCH  68  70
ATOM     70  C36 UNK     0      13.163   4.633  11.727  0.00  0.00    +0.000 C 
BRANCH  70  71
ATOM     71  C37 UNK     0      13.433   3.890  10.444  0.00  0.00    +0.000 C 
ATOM     72  C38 UNK     0      14.563   4.013   9.732  0.00  0.00    +0.000 C 
ATOM     73  C39 UNK     0      14.830   3.285   8.456  0.00  0.00    +0.000 C 
ENDBRANCH  70  71
ENDBRANCH  68  70
ENDBRANCH  67  68
BRANCH  67  74
ATOM     74  O40 UNK     0      12.830   3.952  15.235  0.00  0.00    +0.000 OA
ATOM     75  H54 UNK     0      12.389   3.106  15.452  0.00  0.00    +0.000 HD
ENDBRANCH  67  74
ENDBRANCH  23  67
BRANCH  34  76
ATOM     76  C57 UNK     0      18.197  -4.425   9.391  0.00  0.00    +0.000 C 
BRANCH  76  77
ATOM     77  C58 UNK     0      19.264  -3.325   9.557  0.00  0.00    +0.000 C 
ATOM     78  C59 UNK     0      20.572  -3.859  10.143  0.00  0.00    +0.000 C 
ATOM     79  C76 UNK     0      19.541  -2.671   8.198  0.00  0.00    +0.000 C 
ENDBRANCH  76  77
ENDBRANCH  34  76
BRANCH  12  80
ATOM     80  C21 UNK     0      11.027  -2.231  18.021  0.00  0.00    +0.000 C 
BRANCH  80  81
ATOM     81  C82 UNK     0      10.723  -3.167  16.834  0.00  0.00    +0.000 C 
ATOM     82  C83 UNK     0      11.663  -4.371  16.783  0.00  0.00    +0.000 C 
ATOM     83  C84 UNK     0      10.824  -2.384  15.521  0.00  0.00    +0.000 C 
ENDBRANCH  80  81
ENDBRANCH  12  80
BRANCH  42  84
ATOM     84  C75 UNK     0      12.830  -7.663  13.225  0.00  0.00    +0.000 C 
BRANCH  84  85
ATOM     85  C79 UNK     0      11.994  -6.368  13.153  0.00  0.00    +0.000 C 
ATOM     86  C80 UNK     0      12.757  -5.134  13.634  0.00  0.00    +0.000 C 
ATOM     87  C81 UNK     0      10.718  -6.534  13.986  0.00  0.00    +0.000 C 
ENDBRANCH  84  85
ENDBRANCH  42  84
BRANCH   9  88
ATOM     88  C15 UNK     0      12.278  -5.387  22.735  0.00  0.00    +0.000 C 
BRANCH  88  89
ATOM     89  C16 UNK     0      11.033  -5.413  23.653  0.00  0.00    +0.000 C 
ATOM     90  C17 UNK     0      10.785  -6.779  24.289  0.00  0.00    +0.000 C 
ATOM     91  C18 UNK     0      11.176  -4.353  24.749  0.00  0.00    +0.000 C 
ENDBRANCH  88  89
ENDBRANCH   9  88
TORSDOF 17
ENDMDL
MODEL 5
REMARK VINA RESULT:      -5.2     23.317     30.364
REMARK  Name = CyclosporineA.pdb
REMARK  40 active torsions:
REMARK  status: ('A' for Active; 'I' for Inactive)
REMARK    1  A    between atoms: C1_1  and  C78_78
REMARK    2  A    between atoms: N7_7  and  C8_8
REMARK    3  A    between atoms: C9_9  and  C15_15
REMARK    4  A    between atoms: N11_11  and  C20_20
REMARK    5  A    between atoms: C12_12  and  C21_21
REMARK    6  A    between atoms: N14_14  and  C23_23
REMARK    7  A    between atoms: C15_15  and  C16_16
REMARK    8  A    between atoms: C16_16  and  C17_17
REMARK    9  A    between atoms: C16_16  and  C18_18
REMARK   10  A    between atoms: C21_21  and  C82_82
REMARK   11  A    between atoms: C24_24  and  C25_25
REMARK   12  A    between atoms: C25_25  and  C30_30
REMARK   13  A    between atoms: C25_25  and  C31_31
REMARK   14  A    between atoms: C26_26  and  O27_27
REMARK   15  A    between atoms: N28_28  and  C29_29
REMARK   16  A    between atoms: C32_32  and  C34_34
REMARK   17  A    between atoms: C34_34  and  C35_35
REMARK   18  A    between atoms: C34_34  and  O40_40
REMARK   19  A    between atoms: C35_35  and  C36_36
REMARK   20  A    between atoms: C35_35  and  C41_41
REMARK   21  A    between atoms: C36_36  and  C37_37
REMARK   22  A    between atoms: C38_38  and  C39_39
REMARK   23  A    between atoms: C44_44  and  C45_45
REMARK   24  A    between atoms: C45_45  and  C46_46
REMARK   25  A    between atoms: N49_49  and  C77_77
REMARK   26  A    between atoms: C53_53  and  C57_57
REMARK   27  A    between atoms: C57_57  and  C58_58
REMARK   28  A    between atoms: C58_58  and  C59_59
REMARK   29  A    between atoms: C58_58  and  C76_76
REMARK   30  A    between atoms: C61_61  and  C62_62
REMARK   31  A    between atoms: C62_62  and  C63_63
REMARK   32  A    between atoms: C62_62  and  C64_64
REMARK   33  A    between atoms: N66_66  and  C68_68
REMARK   34  A    between atoms: C67_67  and  C75_75
REMARK   35  A    between atoms: C73_73  and  C74_74
REMARK   36  A    between atoms: C75_75  and  C79_79
REMARK   37  A    between atoms: C79_79  and  C80_80
REMARK   38  A    between atoms: C79_79  and  C81_81
REMARK   39  A    between atoms: C82_82  and  C83_83
REMARK   40  A    between atoms: C82_82  and  C84_84
REMARK                            x       y       z     vdW  Elec       q    Type
REMARK                         _______ _______ _______ _____ _____    ______ ____
ROOT
ATOM      1  C1  UNK     0      25.480 -20.799  32.502  0.00  0.00    +0.000 C 
ATOM      2  C2  UNK     0      26.682 -20.374  31.613  0.00  0.00    +0.000 C 
ATOM      3  N3  UNK     0      25.688 -20.162  33.792  0.00  0.00    +0.000 N 
ATOM      4  C4  UNK     0      24.667 -19.854  34.659  0.00  0.00    +0.000 C 
ATOM      5  O5  UNK     0      23.481 -20.009  34.377  0.00  0.00    +0.000 OA
ATOM      6  C6  UNK     0      27.675 -21.262  31.404  0.00  0.00    +0.000 C 
ATOM      7  N7  UNK     0      26.696 -19.045  31.084  0.00  0.00    +0.000 N 
ATOM      8  C8  UNK     0      25.549 -18.139  31.277  0.00  0.00    +0.000 C 
ATOM      9  C9  UNK     0      27.873 -18.480  30.325  0.00  0.00    +0.000 C 
ATOM     10  C10 UNK     0      28.961 -17.916  31.307  0.00  0.00    +0.000 C 
ATOM     11  N11 UNK     0      30.339 -18.034  30.947  0.00  0.00    +0.000 N 
ATOM     12  C12 UNK     0      31.447 -18.016  31.958  0.00  0.00    +0.000 C 
ATOM     13  C13 UNK     0      32.276 -16.693  31.867  0.00  0.00    +0.000 C 
ATOM     14  N14 UNK     0      33.627 -16.733  32.306  0.00  0.00    +0.000 N 
ATOM     15  C19 UNK     0      28.579 -17.350  32.471  0.00  0.00    +0.000 C 
ATOM     16  C20 UNK     0      30.768 -18.285  29.564  0.00  0.00    +0.000 C 
ATOM     17  C22 UNK     0      31.763 -15.565  31.335  0.00  0.00    +0.000 C 
ATOM     18  C23 UNK     0      34.596 -16.688  31.170  0.00  0.00    +0.000 C 
ATOM     19  C24 UNK     0      34.077 -15.869  33.491  0.00  0.00    +0.000 C 
ATOM     20  C26 UNK     0      35.577 -16.266  33.894  0.00  0.00    +0.000 C 
ATOM     21  N28 UNK     0      36.048 -15.638  35.131  0.00  0.00    +0.000 NA
ATOM     22  C29 UNK     0      36.552 -14.285  34.872  0.00  0.00    +0.000 C 
ATOM     23  C32 UNK     0      37.001 -16.456  35.951  0.00  0.00    +0.000 C 
ATOM     24  C33 UNK     0      36.953 -15.848  37.380  0.00  0.00    +0.000 C 
ATOM     25  O42 UNK     0      37.901 -15.302  37.932  0.00  0.00    +0.000 OA
ATOM     26  N43 UNK     0      35.692 -15.960  37.936  0.00  0.00    +0.000 N 
ATOM     27  C44 UNK     0      35.359 -15.482  39.262  0.00  0.00    +0.000 C 
ATOM     28  C47 UNK     0      35.883 -16.494  40.310  0.00  0.00    +0.000 C 
ATOM     29  C48 UNK     0      36.765 -16.001  41.204  0.00  0.00    +0.000 C 
ATOM     30  N49 UNK     0      35.480 -17.856  40.332  0.00  0.00    +0.000 N 
ATOM     31  C50 UNK     0      34.591 -18.519  39.337  0.00  0.00    +0.000 C 
ATOM     32  C51 UNK     0      33.319 -19.081  39.998  0.00  0.00    +0.000 C 
ATOM     33  N52 UNK     0      32.943 -18.405  41.139  0.00  0.00    +0.000 N 
ATOM     34  C53 UNK     0      31.640 -18.602  41.757  0.00  0.00    +0.000 C 
ATOM     35  C54 UNK     0      30.584 -17.832  40.922  0.00  0.00    +0.000 C 
ATOM     36  N55 UNK     0      29.289 -18.273  41.116  0.00  0.00    +0.000 N 
ATOM     37  O56 UNK     0      32.673 -20.014  39.528  0.00  0.00    +0.000 OA
ATOM     38  O60 UNK     0      30.876 -16.883  40.199  0.00  0.00    +0.000 OA
ATOM     39  C61 UNK     0      28.134 -17.797  40.339  0.00  0.00    +0.000 C 
ATOM     40  C65 UNK     0      28.158 -18.531  38.965  0.00  0.00    +0.000 C 
ATOM     41  N66 UNK     0      28.032 -19.935  38.971  0.00  0.00    +0.000 N 
ATOM     42  C67 UNK     0      28.150 -20.614  37.647  0.00  0.00    +0.000 C 
ATOM     43  C68 UNK     0      27.260 -20.631  40.001  0.00  0.00    +0.000 C 
ATOM     44  O69 UNK     0      28.263 -17.918  37.898  0.00  0.00    +0.000 OA
ATOM     45  C70 UNK     0      26.751 -20.576  36.986  0.00  0.00    +0.000 C 
ATOM     46  N71 UNK     0      26.486 -19.394  36.317  0.00  0.00    +0.000 N 
ATOM     47  O72 UNK     0      25.913 -21.460  37.135  0.00  0.00    +0.000 OA
ATOM     48  C73 UNK     0      25.115 -19.071  35.912  0.00  0.00    +0.000 C 
ATOM     49  C74 UNK     0      25.003 -17.581  35.609  0.00  0.00    +0.000 C 
ATOM     50  C77 UNK     0      36.155 -18.834  41.210  0.00  0.00    +0.000 C 
ATOM     51  C78 UNK     0      25.242 -22.303  32.688  0.00  0.00    +0.000 C 
ATOM     52  H2  UNK     0      26.639 -19.981  34.088  0.00  0.00    +0.000 HD
ATOM     53  H58 UNK     0      34.944 -16.169  37.288  0.00  0.00    +0.000 HD
ATOM     54  H69 UNK     0      33.435 -17.526  41.282  0.00  0.00    +0.000 HD
ATOM     55  H71 UNK     0      29.204 -19.201  41.507  0.00  0.00    +0.000 HD
ATOM     56  H90 UNK     0      27.103 -18.617  36.562  0.00  0.00    +0.000 HD
ENDROOT
BRANCH  39  57
ATOM     57  C62 UNK     0      27.989 -16.256  40.229  0.00  0.00    +0.000 C 
ATOM     58  C63 UNK     0      26.623 -15.877  39.634  0.00  0.00    +0.000 C 
ATOM     59  C64 UNK     0      28.119 -15.571  41.597  0.00  0.00    +0.000 C 
ENDBRANCH  39  57
BRANCH  19  60
ATOM     60  C25 UNK     0      33.142 -15.940  34.756  0.00  0.00    +0.000 C 
ATOM     61  C30 UNK     0      31.991 -14.930  34.761  0.00  0.00    +0.000 C 
ATOM     62  C31 UNK     0      32.635 -17.335  35.131  0.00  0.00    +0.000 C 
ENDBRANCH  19  60
BRANCH  20  63
ATOM     63  O27 UNK     0      35.683 -17.693  33.958  0.00  0.00    +0.000 OA
ATOM     64  H34 UNK     0      36.042 -17.867  34.854  0.00  0.00    +0.000 HD
ENDBRANCH  20  63
BRANCH  27  65
ATOM     65  C45 UNK     0      33.861 -15.150  39.380  0.00  0.00    +0.000 C 
ATOM     66  C46 UNK     0      33.490 -14.502  40.707  0.00  0.00    +0.000 C 
ENDBRANCH  27  65
BRANCH  23  67
ATOM     67  C34 UNK     0      38.462 -16.619  35.428  0.00  0.00    +0.000 C 
BRANCH  67  68
ATOM     68  C35 UNK     0      39.119 -18.004  35.722  0.00  0.00    +0.000 C 
ATOM     69  C41 UNK     0      39.924 -18.064  37.023  0.00  0.00    +0.000 C 
BRANCH  68  70
ATOM     70  C36 UNK     0      40.005 -18.419  34.516  0.00  0.00    +0.000 C 
BRANCH  70  71
ATOM     71  C37 UNK     0      39.806 -19.848  34.084  0.00  0.00    +0.000 C 
ATOM     72  C38 UNK     0      40.597 -20.481  33.205  0.00  0.00    +0.000 C 
ATOM     73  C39 UNK     0      40.398 -21.895  32.768  0.00  0.00    +0.000 C 
ENDBRANCH  70  71
ENDBRANCH  68  70
ENDBRANCH  67  68
BRANCH  67  74
ATOM     74  O40 UNK     0      38.483 -16.469  33.990  0.00  0.00    +0.000 OA
ATOM     75  H54 UNK     0      39.286 -16.942  33.691  0.00  0.00    +0.000 HD
ENDBRANCH  67  74
ENDBRANCH  23  67
BRANCH  34  76
ATOM     76  C57 UNK     0      31.692 -18.097  43.208  0.00  0.00    +0.000 C 
BRANCH  76  77
ATOM     77  C58 UNK     0      32.546 -16.840  43.469  0.00  0.00    +0.000 C 
ATOM     78  C59 UNK     0      31.704 -15.635  43.889  0.00  0.00    +0.000 C 
ATOM     79  C76 UNK     0      33.584 -17.143  44.556  0.00  0.00    +0.000 C 
ENDBRANCH  76  77
ENDBRANCH  34  76
BRANCH  12  80
ATOM     80  C21 UNK     0      32.331 -19.294  31.857  0.00  0.00    +0.000 C 
BRANCH  80  81
ATOM     81  C82 UNK     0      31.927 -20.459  32.783  0.00  0.00    +0.000 C 
ATOM     82  C83 UNK     0      30.652 -20.164  33.571  0.00  0.00    +0.000 C 
ATOM     83  C84 UNK     0      33.071 -20.764  33.755  0.00  0.00    +0.000 C 
ENDBRANCH  80  81
ENDBRANCH  12  80
BRANCH  42  84
ATOM     84  C75 UNK     0      28.709 -22.046  37.778  0.00  0.00    +0.000 C 
BRANCH  84  85
ATOM     85  C79 UNK     0      30.118 -22.242  37.180  0.00  0.00    +0.000 C 
ATOM     86  C80 UNK     0      30.845 -20.924  36.916  0.00  0.00    +0.000 C 
ATOM     87  C81 UNK     0      30.015 -23.036  35.874  0.00  0.00    +0.000 C 
ENDBRANCH  84  85
ENDBRANCH  42  84
BRANCH   9  88
ATOM     88  C15 UNK     0      27.495 -17.464  29.208  0.00  0.00    +0.000 C 
BRANCH  88  89
ATOM     89  C16 UNK     0      27.352 -18.103  27.806  0.00  0.00    +0.000 C 
ATOM     90  C17 UNK     0      27.716 -19.586  27.783  0.00  0.00    +0.000 C 
ATOM     91  C18 UNK     0      25.919 -17.918  27.297  0.00  0.00    +0.000 C 
ENDBRANCH  88  89
ENDBRANCH   9  88
TORSDOF 17
ENDMDL
MODEL 6
REMARK VINA RESULT:      -5.2     39.691     43.927
REMARK  Name = CyclosporineA.pdb
REMARK  40 active torsions:
REMARK  status: ('A' for Active; 'I' for Inactive)
REMARK    1  A    between atoms: C1_1  and  C78_78
REMARK    2  A    between atoms: N7_7  and  C8_8
REMARK    3  A    between atoms: C9_9  and  C15_15
REMARK    4  A    between atoms: N11_11  and  C20_20
REMARK    5  A    between atoms: C12_12  and  C21_21
REMARK    6  A    between atoms: N14_14  and  C23_23
REMARK    7  A    between atoms: C15_15  and  C16_16
REMARK    8  A    between atoms: C16_16  and  C17_17
REMARK    9  A    between atoms: C16_16  and  C18_18
REMARK   10  A    between atoms: C21_21  and  C82_82
REMARK   11  A    between atoms: C24_24  and  C25_25
REMARK   12  A    between atoms: C25_25  and  C30_30
REMARK   13  A    between atoms: C25_25  and  C31_31
REMARK   14  A    between atoms: C26_26  and  O27_27
REMARK   15  A    between atoms: N28_28  and  C29_29
REMARK   16  A    between atoms: C32_32  and  C34_34
REMARK   17  A    between atoms: C34_34  and  C35_35
REMARK   18  A    between atoms: C34_34  and  O40_40
REMARK   19  A    between atoms: C35_35  and  C36_36
REMARK   20  A    between atoms: C35_35  and  C41_41
REMARK   21  A    between atoms: C36_36  and  C37_37
REMARK   22  A    between atoms: C38_38  and  C39_39
REMARK   23  A    between atoms: C44_44  and  C45_45
REMARK   24  A    between atoms: C45_45  and  C46_46
REMARK   25  A    between atoms: N49_49  and  C77_77
REMARK   26  A    between atoms: C53_53  and  C57_57
REMARK   27  A    between atoms: C57_57  and  C58_58
REMARK   28  A    between atoms: C58_58  and  C59_59
REMARK   29  A    between atoms: C58_58  and  C76_76
REMARK   30  A    between atoms: C61_61  and  C62_62
REMARK   31  A    between atoms: C62_62  and  C63_63
REMARK   32  A    between atoms: C62_62  and  C64_64
REMARK   33  A    between atoms: N66_66  and  C68_68
REMARK   34  A    between atoms: C67_67  and  C75_75
REMARK   35  A    between atoms: C73_73  and  C74_74
REMARK   36  A    between atoms: C75_75  and  C79_79
REMARK   37  A    between atoms: C79_79  and  C80_80
REMARK   38  A    between atoms: C79_79  and  C81_81
REMARK   39  A    between atoms: C82_82  and  C83_83
REMARK   40  A    between atoms: C82_82  and  C84_84
REMARK                            x       y       z     vdW  Elec       q    Type
REMARK                         _______ _______ _______ _____ _____    ______ ____
ROOT
ATOM      1  C1  UNK     0      12.762  -4.865  10.282  0.00  0.00    +0.000 C 
ATOM      2  C2  UNK     0      14.035  -4.287  10.960  0.00  0.00    +0.000 C 
ATOM      3  N3  UNK     0      13.099  -5.046   8.879  0.00  0.00    +0.000 N 
ATOM      4  C4  UNK     0      12.486  -5.966   8.064  0.00  0.00    +0.000 C 
ATOM      5  O5  UNK     0      11.661  -6.779   8.476  0.00  0.00    +0.000 OA
ATOM      6  C6  UNK     0      14.071  -2.970  11.247  0.00  0.00    +0.000 C 
ATOM      7  N7  UNK     0      15.128  -5.174  11.218  0.00  0.00    +0.000 N 
ATOM      8  C8  UNK     0      15.009  -6.621  10.956  0.00  0.00    +0.000 C 
ATOM      9  C9  UNK     0      16.460  -4.698  11.744  0.00  0.00    +0.000 C 
ATOM     10  C10 UNK     0      17.378  -4.185  10.578  0.00  0.00    +0.000 C 
ATOM     11  N11 UNK     0      18.259  -3.087  10.829  0.00  0.00    +0.000 N 
ATOM     12  C12 UNK     0      18.783  -2.200   9.738  0.00  0.00    +0.000 C 
ATOM     13  C13 UNK     0      20.309  -2.442   9.496  0.00  0.00    +0.000 C 
ATOM     14  N14 UNK     0      21.065  -1.368   8.954  0.00  0.00    +0.000 N 
ATOM     15  C19 UNK     0      17.307  -4.772   9.365  0.00  0.00    +0.000 C 
ATOM     16  C20 UNK     0      18.637  -2.683  12.190  0.00  0.00    +0.000 C 
ATOM     17  C22 UNK     0      20.913  -3.596   9.842  0.00  0.00    +0.000 C 
ATOM     18  C23 UNK     0      21.961  -0.733   9.968  0.00  0.00    +0.000 C 
ATOM     19  C24 UNK     0      21.748  -1.520   7.588  0.00  0.00    +0.000 C 
ATOM     20  C26 UNK     0      22.347  -0.103   7.136  0.00  0.00    +0.000 C 
ATOM     21  N28 UNK     0      22.859  -0.082   5.765  0.00  0.00    +0.000 NA
ATOM     22  C29 UNK     0      24.231  -0.598   5.710  0.00  0.00    +0.000 C 
ATOM     23  C32 UNK     0      22.709   1.221   5.036  0.00  0.00    +0.000 C 
ATOM     24  C33 UNK     0      22.830   0.875   3.527  0.00  0.00    +0.000 C 
ATOM     25  O42 UNK     0      23.732   1.269   2.796  0.00  0.00    +0.000 OA
ATOM     26  N43 UNK     0      21.816   0.027   3.119  0.00  0.00    +0.000 N 
ATOM     27  C44 UNK     0      21.679  -0.456   1.760  0.00  0.00    +0.000 C 
ATOM     28  C47 UNK     0      21.061   0.663   0.886  0.00  0.00    +0.000 C 
ATOM     29  C48 UNK     0      21.811   1.062  -0.163  0.00  0.00    +0.000 C 
ATOM     30  N49 UNK     0      19.797   1.247   1.165  0.00  0.00    +0.000 N 
ATOM     31  C50 UNK     0      18.939   0.947   2.345  0.00  0.00    +0.000 C 
ATOM     32  C51 UNK     0      17.567   0.391   1.922  0.00  0.00    +0.000 C 
ATOM     33  N52 UNK     0      17.584  -0.265   0.710  0.00  0.00    +0.000 N 
ATOM     34  C53 UNK     0      16.468  -1.084   0.262  0.00  0.00    +0.000 C 
ATOM     35  C54 UNK     0      16.520  -2.435   1.023  0.00  0.00    +0.000 C 
ATOM     36  N55 UNK     0      15.317  -3.115   1.035  0.00  0.00    +0.000 N 
ATOM     37  O56 UNK     0      16.561   0.483   2.621  0.00  0.00    +0.000 OA
ATOM     38  O60 UNK     0      17.553  -2.876   1.519  0.00  0.00    +0.000 OA
ATOM     39  C61 UNK     0      15.076  -4.345   1.806  0.00  0.00    +0.000 C 
ATOM     40  C65 UNK     0      14.836  -3.930   3.288  0.00  0.00    +0.000 C 
ATOM     41  N66 UNK     0      13.723  -3.111   3.566  0.00  0.00    +0.000 N 
ATOM     42  C67 UNK     0      13.574  -2.658   4.981  0.00  0.00    +0.000 C 
ATOM     43  C68 UNK     0      12.501  -3.179   2.764  0.00  0.00    +0.000 C 
ATOM     44  O69 UNK     0      15.572  -4.315   4.202  0.00  0.00    +0.000 OA
ATOM     45  C70 UNK     0      12.830  -3.781   5.744  0.00  0.00    +0.000 C 
ATOM     46  N71 UNK     0      13.662  -4.792   6.192  0.00  0.00    +0.000 N 
ATOM     47  O72 UNK     0      11.608  -3.829   5.845  0.00  0.00    +0.000 OA
ATOM     48  C73 UNK     0      13.093  -6.062   6.648  0.00  0.00    +0.000 C 
ATOM     49  C74 UNK     0      14.175  -7.137   6.665  0.00  0.00    +0.000 C 
ATOM     50  C77 UNK     0      19.338   2.447   0.437  0.00  0.00    +0.000 C 
ATOM     51  C78 UNK     0      11.467  -4.053  10.413  0.00  0.00    +0.000 C 
ATOM     52  H2  UNK     0      13.788  -4.427   8.470  0.00  0.00    +0.000 HD
ATOM     53  H58 UNK     0      21.311  -0.441   3.859  0.00  0.00    +0.000 HD
ATOM     54  H69 UNK     0      18.518  -0.457   0.356  0.00  0.00    +0.000 HD
ATOM     55  H71 UNK     0      14.501  -2.551   0.841  0.00  0.00    +0.000 HD
ATOM     56  H90 UNK     0      14.582  -4.817   5.747  0.00  0.00    +0.000 HD
ENDROOT
BRANCH  39  57
ATOM     57  C62 UNK     0      16.135  -5.465   1.627  0.00  0.00    +0.000 C 
ATOM     58  C63 UNK     0      15.682  -6.760   2.322  0.00  0.00    +0.000 C 
ATOM     59  C64 UNK     0      16.386  -5.783   0.146  0.00  0.00    +0.000 C 
ENDBRANCH  39  57
BRANCH  19  60
ATOM     60  C25 UNK     0      20.830  -2.105   6.450  0.00  0.00    +0.000 C 
ATOM     61  C30 UNK     0      19.768  -1.138   5.920  0.00  0.00    +0.000 C 
ATOM     62  C31 UNK     0      21.562  -2.787   5.291  0.00  0.00    +0.000 C 
ENDBRANCH  19  60
BRANCH  20  63
ATOM     63  O27 UNK     0      21.356   0.912   7.342  0.00  0.00    +0.000 OA
ATOM     64  H34 UNK     0      21.814   1.588   7.884  0.00  0.00    +0.000 HD
ENDBRANCH  20  63
BRANCH  27  65
ATOM     65  C45 UNK     0      20.927  -1.798   1.715  0.00  0.00    +0.000 C 
ATOM     66  C46 UNK     0      20.837  -2.392   0.316  0.00  0.00    +0.000 C 
ENDBRANCH  27  65
BRANCH  23  67
ATOM     67  C34 UNK     0      23.644   2.401   5.448  0.00  0.00    +0.000 C 
BRANCH  67  68
ATOM     68  C35 UNK     0      23.061   3.826   5.194  0.00  0.00    +0.000 C 
ATOM     69  C41 UNK     0      21.557   3.857   4.909  0.00  0.00    +0.000 C 
BRANCH  68  70
ATOM     70  C36 UNK     0      23.847   4.504   4.039  0.00  0.00    +0.000 C 
BRANCH  70  71
ATOM     71  C37 UNK     0      25.144   5.131   4.478  0.00  0.00    +0.000 C 
ATOM     72  C38 UNK     0      25.369   6.453   4.495  0.00  0.00    +0.000 C 
ATOM     73  C39 UNK     0      26.657   7.077   4.920  0.00  0.00    +0.000 C 
ENDBRANCH  70  71
ENDBRANCH  68  70
ENDBRANCH  67  68
BRANCH  67  74
ATOM     74  O40 UNK     0      23.916   2.333   6.866  0.00  0.00    +0.000 OA
ATOM     75  H54 UNK     0      24.563   3.046   7.042  0.00  0.00    +0.000 HD
ENDBRANCH  67  74
ENDBRANCH  23  67
BRANCH  34  76
ATOM     76  C57 UNK     0      16.575  -1.287  -1.258  0.00  0.00    +0.000 C 
BRANCH  76  77
ATOM     77  C58 UNK     0      17.980  -1.587  -1.816  0.00  0.00    +0.000 C 
ATOM     78  C59 UNK     0      18.134  -3.039  -2.272  0.00  0.00    +0.000 C 
ATOM     79  C76 UNK     0      18.276  -0.647  -2.990  0.00  0.00    +0.000 C 
ENDBRANCH  76  77
ENDBRANCH  34  76
BRANCH  12  80
ATOM     80  C21 UNK     0      18.440  -0.705  10.005  0.00  0.00    +0.000 C 
BRANCH  80  81
ATOM     81  C82 UNK     0      17.262  -0.136   9.189  0.00  0.00    +0.000 C 
ATOM     82  C83 UNK     0      16.581  -1.197   8.327  0.00  0.00    +0.000 C 
ATOM     83  C84 UNK     0      17.760   1.006   8.297  0.00  0.00    +0.000 C 
ENDBRANCH  80  81
ENDBRANCH  12  80
BRANCH  42  84
ATOM     84  C75 UNK     0      12.859  -1.294   5.080  0.00  0.00    +0.000 C 
BRANCH  84  85
ATOM     85  C79 UNK     0      13.059  -0.563   6.424  0.00  0.00    +0.000 C 
ATOM     86  C80 UNK     0      11.749  -0.066   7.035  0.00  0.00    +0.000 C 
ATOM     87  C81 UNK     0      14.010   0.622   6.228  0.00  0.00    +0.000 C 
ENDBRANCH  84  85
ENDBRANCH  42  84
BRANCH   9  88
ATOM     88  C15 UNK     0      17.190  -5.713  12.672  0.00  0.00    +0.000 C 
BRANCH  88  89
ATOM     89  C16 UNK     0      17.072  -5.378  14.178  0.00  0.00    +0.000 C 
ATOM     90  C17 UNK     0      16.086  -4.247  14.464  0.00  0.00    +0.000 C 
ATOM     91  C18 UNK     0      16.659  -6.630  14.956  0.00  0.00    +0.000 C 
ENDBRANCH  88  89
ENDBRANCH   9  88
TORSDOF 17
ENDMDL
MODEL 7
REMARK VINA RESULT:      -5.2      3.328     10.772
REMARK  Name = CyclosporineA.pdb
REMARK  40 active torsions:
REMARK  status: ('A' for Active; 'I' for Inactive)
REMARK    1  A    between atoms: C1_1  and  C78_78
REMARK    2  A    between atoms: N7_7  and  C8_8
REMARK    3  A    between atoms: C9_9  and  C15_15
REMARK    4  A    between atoms: N11_11  and  C20_20
REMARK    5  A    between atoms: C12_12  and  C21_21
REMARK    6  A    between atoms: N14_14  and  C23_23
REMARK    7  A    between atoms: C15_15  and  C16_16
REMARK    8  A    between atoms: C16_16  and  C17_17
REMARK    9  A    between atoms: C16_16  and  C18_18
REMARK   10  A    between atoms: C21_21  and  C82_82
REMARK   11  A    between atoms: C24_24  and  C25_25
REMARK   12  A    between atoms: C25_25  and  C30_30
REMARK   13  A    between atoms: C25_25  and  C31_31
REMARK   14  A    between atoms: C26_26  and  O27_27
REMARK   15  A    between atoms: N28_28  and  C29_29
REMARK   16  A    between atoms: C32_32  and  C34_34
REMARK   17  A    between atoms: C34_34  and  C35_35
REMARK   18  A    between atoms: C34_34  and  O40_40
REMARK   19  A    between atoms: C35_35  and  C36_36
REMARK   20  A    between atoms: C35_35  and  C41_41
REMARK   21  A    between atoms: C36_36  and  C37_37
REMARK   22  A    between atoms: C38_38  and  C39_39
REMARK   23  A    between atoms: C44_44  and  C45_45
REMARK   24  A    between atoms: C45_45  and  C46_46
REMARK   25  A    between atoms: N49_49  and  C77_77
REMARK   26  A    between atoms: C53_53  and  C57_57
REMARK   27  A    between atoms: C57_57  and  C58_58
REMARK   28  A    between atoms: C58_58  and  C59_59
REMARK   29  A    between atoms: C58_58  and  C76_76
REMARK   30  A    between atoms: C61_61  and  C62_62
REMARK   31  A    between atoms: C62_62  and  C63_63
REMARK   32  A    between atoms: C62_62  and  C64_64
REMARK   33  A    between atoms: N66_66  and  C68_68
REMARK   34  A    between atoms: C67_67  and  C75_75
REMARK   35  A    between atoms: C73_73  and  C74_74
REMARK   36  A    between atoms: C75_75  and  C79_79
REMARK   37  A    between atoms: C79_79  and  C80_80
REMARK   38  A    between atoms: C79_79  and  C81_81
REMARK   39  A    between atoms: C82_82  and  C83_83
REMARK   40  A    between atoms: C82_82  and  C84_84
REMARK                            x       y       z     vdW  Elec       q    Type
REMARK                         _______ _______ _______ _____ _____    ______ ____
ROOT
ATOM      1  C1  UNK     0      56.628   9.860  32.352  0.00  0.00    +0.000 C 
ATOM      2  C2  UNK     0      56.784   9.596  33.876  0.00  0.00    +0.000 C 
ATOM      3  N3  UNK     0      55.469   9.091  31.927  0.00  0.00    +0.000 N 
ATOM      4  C4  UNK     0      54.699   9.420  30.838  0.00  0.00    +0.000 C 
ATOM      5  O5  UNK     0      54.870  10.446  30.183  0.00  0.00    +0.000 OA
ATOM      6  C6  UNK     0      57.743   8.741  34.288  0.00  0.00    +0.000 C 
ATOM      7  N7  UNK     0      55.879  10.247  34.773  0.00  0.00    +0.000 N 
ATOM      8  C8  UNK     0      54.898  11.232  34.278  0.00  0.00    +0.000 C 
ATOM      9  C9  UNK     0      55.848   9.960  36.254  0.00  0.00    +0.000 C 
ATOM     10  C10 UNK     0      54.974   8.693  36.567  0.00  0.00    +0.000 C 
ATOM     11  N11 UNK     0      55.366   7.837  37.643  0.00  0.00    +0.000 N 
ATOM     12  C12 UNK     0      54.958   6.396  37.725  0.00  0.00    +0.000 C 
ATOM     13  C13 UNK     0      53.915   6.167  38.868  0.00  0.00    +0.000 C 
ATOM     14  N14 UNK     0      53.853   4.871  39.449  0.00  0.00    +0.000 N 
ATOM     15  C19 UNK     0      53.890   8.427  35.810  0.00  0.00    +0.000 C 
ATOM     16  C20 UNK     0      56.285   8.281  38.701  0.00  0.00    +0.000 C 
ATOM     17  C22 UNK     0      53.143   7.165  39.340  0.00  0.00    +0.000 C 
ATOM     18  C23 UNK     0      54.439   4.834  40.822  0.00  0.00    +0.000 C 
ATOM     19  C24 UNK     0      52.567   4.041  39.341  0.00  0.00    +0.000 C 
ATOM     20  C26 UNK     0      52.845   2.562  39.895  0.00  0.00    +0.000 C 
ATOM     21  N28 UNK     0      51.742   1.624  39.671  0.00  0.00    +0.000 NA
ATOM     22  C29 UNK     0      50.727   1.748  40.722  0.00  0.00    +0.000 C 
ATOM     23  C32 UNK     0      52.143   0.199  39.428  0.00  0.00    +0.000 C 
ATOM     24  C33 UNK     0      50.922  -0.467  38.736  0.00  0.00    +0.000 C 
ATOM     25  O42 UNK     0      50.260  -1.376  39.224  0.00  0.00    +0.000 OA
ATOM     26  N43 UNK     0      50.647   0.122  37.515  0.00  0.00    +0.000 N 
ATOM     27  C44 UNK     0      49.565  -0.301  36.650  0.00  0.00    +0.000 C 
ATOM     28  C47 UNK     0      49.991  -1.589  35.903  0.00  0.00    +0.000 C 
ATOM     29  C48 UNK     0      49.204  -2.666  36.109  0.00  0.00    +0.000 C 
ATOM     30  N49 UNK     0      51.136  -1.650  35.065  0.00  0.00    +0.000 N 
ATOM     31  C50 UNK     0      52.117  -0.550  34.849  0.00  0.00    +0.000 C 
ATOM     32  C51 UNK     0      52.185  -0.132  33.368  0.00  0.00    +0.000 C 
ATOM     33  N52 UNK     0      51.015  -0.360  32.675  0.00  0.00    +0.000 N 
ATOM     34  C53 UNK     0      50.782   0.202  31.352  0.00  0.00    +0.000 C 
ATOM     35  C54 UNK     0      50.422   1.702  31.518  0.00  0.00    +0.000 C 
ATOM     36  N55 UNK     0      50.605   2.450  30.371  0.00  0.00    +0.000 N 
ATOM     37  O56 UNK     0      53.171   0.399  32.864  0.00  0.00    +0.000 OA
ATOM     38  O60 UNK     0      49.965   2.161  32.561  0.00  0.00    +0.000 OA
ATOM     39  C61 UNK     0      50.466   3.913  30.314  0.00  0.00    +0.000 C 
ATOM     40  C65 UNK     0      51.769   4.532  30.903  0.00  0.00    +0.000 C 
ATOM     41  N66 UNK     0      52.981   4.262  30.237  0.00  0.00    +0.000 N 
ATOM     42  C67 UNK     0      54.220   4.793  30.879  0.00  0.00    +0.000 C 
ATOM     43  C68 UNK     0      53.030   4.045  28.791  0.00  0.00    +0.000 C 
ATOM     44  O69 UNK     0      51.755   5.254  31.905  0.00  0.00    +0.000 OA
ATOM     45  C70 UNK     0      54.386   6.258  30.408  0.00  0.00    +0.000 C 
ATOM     46  N71 UNK     0      53.654   7.167  31.151  0.00  0.00    +0.000 N 
ATOM     47  O72 UNK     0      55.017   6.574  29.403  0.00  0.00    +0.000 OA
ATOM     48  C73 UNK     0      53.452   8.529  30.653  0.00  0.00    +0.000 C 
ATOM     49  C74 UNK     0      52.286   9.182  31.389  0.00  0.00    +0.000 C 
ATOM     50  C77 UNK     0      51.624  -2.940  34.539  0.00  0.00    +0.000 C 
ATOM     51  C78 UNK     0      57.832   9.538  31.458  0.00  0.00    +0.000 C 
ATOM     52  H2  UNK     0      55.249   8.240  32.431  0.00  0.00    +0.000 HD
ATOM     53  H58 UNK     0      51.078   1.023  37.356  0.00  0.00    +0.000 HD
ATOM     54  H69 UNK     0      50.220  -0.590  33.266  0.00  0.00    +0.000 HD
ATOM     55  H71 UNK     0      51.221   2.040  29.683  0.00  0.00    +0.000 HD
ATOM     56  H90 UNK     0      52.909   6.754  31.716  0.00  0.00    +0.000 HD
ENDROOT
BRANCH  39  57
ATOM     57  C62 UNK     0      49.161   4.487  30.926  0.00  0.00    +0.000 C 
ATOM     58  C63 UNK     0      48.829   5.858  30.316  0.00  0.00    +0.000 C 
ATOM     59  C64 UNK     0      47.962   3.557  30.690  0.00  0.00    +0.000 C 
ENDBRANCH  39  57
BRANCH  19  60
ATOM     60  C25 UNK     0      51.943   3.968  37.898  0.00  0.00    +0.000 C 
ATOM     61  C30 UNK     0      51.242   5.249  37.435  0.00  0.00    +0.000 C 
ATOM     62  C31 UNK     0      52.867   3.435  36.800  0.00  0.00    +0.000 C 
ENDBRANCH  19  60
BRANCH  20  63
ATOM     63  O27 UNK     0      54.070   2.075  39.333  0.00  0.00    +0.000 OA
ATOM     64  H34 UNK     0      54.120   2.509  38.455  0.00  0.00    +0.000 HD
ENDBRANCH  20  63
BRANCH  27  65
ATOM     65  C45 UNK     0      49.094   0.846  35.739  0.00  0.00    +0.000 C 
ATOM     66  C46 UNK     0      49.375   2.227  36.314  0.00  0.00    +0.000 C 
ENDBRANCH  27  65
BRANCH  23  67
ATOM     67  C34 UNK     0      52.659  -0.633  40.643  0.00  0.00    +0.000 C 
BRANCH  67  68
ATOM     68  C35 UNK     0      53.650  -1.783  40.284  0.00  0.00    +0.000 C 
ATOM     69  C41 UNK     0      54.277  -1.671  38.891  0.00  0.00    +0.000 C 
BRANCH  68  70
ATOM     70  C36 UNK     0      52.933  -3.150  40.449  0.00  0.00    +0.000 C 
BRANCH  70  71
ATOM     71  C37 UNK     0      52.809  -3.926  39.163  0.00  0.00    +0.000 C 
ATOM     72  C38 UNK     0      51.671  -4.496  38.740  0.00  0.00    +0.000 C 
ATOM     73  C39 UNK     0      51.547  -5.273  37.471  0.00  0.00    +0.000 C 
ENDBRANCH  70  71
ENDBRANCH  68  70
ENDBRANCH  67  68
BRANCH  67  74
ATOM     74  O40 UNK     0      53.372   0.232  41.556  0.00  0.00    +0.000 OA
ATOM     75  H54 UNK     0      53.079   1.140  41.337  0.00  0.00    +0.000 HD
ENDBRANCH  67  74
ENDBRANCH  23  67
BRANCH  34  76
ATOM     76  C57 UNK     0      49.648  -0.580  30.669  0.00  0.00    +0.000 C 
BRANCH  76  77
ATOM     77  C58 UNK     0      49.848  -2.102  30.532  0.00  0.00    +0.000 C 
ATOM     78  C59 UNK     0      48.597  -2.814  30.013  0.00  0.00    +0.000 C 
ATOM     79  C76 UNK     0      51.024  -2.382  29.590  0.00  0.00    +0.000 C 
ENDBRANCH  76  77
ENDBRANCH  34  76
BRANCH  12  80
ATOM     80  C21 UNK     0      56.196   5.459  37.835  0.00  0.00    +0.000 C 
BRANCH  80  81
ATOM     81  C82 UNK     0      56.643   4.787  36.522  0.00  0.00    +0.000 C 
ATOM     82  C83 UNK     0      55.772   5.191  35.333  0.00  0.00    +0.000 C 
ATOM     83  C84 UNK     0      56.610   3.264  36.686  0.00  0.00    +0.000 C 
ENDBRANCH  80  81
ENDBRANCH  12  80
BRANCH  42  84
ATOM     84  C75 UNK     0      55.454   3.922  30.567  0.00  0.00    +0.000 C 
BRANCH  84  85
ATOM     85  C79 UNK     0      56.384   3.671  31.772  0.00  0.00    +0.000 C 
ATOM     86  C80 UNK     0      57.436   4.765  31.955  0.00  0.00    +0.000 C 
ATOM     87  C81 UNK     0      57.081   2.317  31.610  0.00  0.00    +0.000 C 
ENDBRANCH  84  85
ENDBRANCH  42  84
BRANCH   9  88
ATOM     88  C15 UNK     0      55.465  11.180  37.142  0.00  0.00    +0.000 C 
BRANCH  88  89
ATOM     89  C16 UNK     0      54.022  11.118  37.698  0.00  0.00    +0.000 C 
ATOM     90  C17 UNK     0      53.969  11.077  39.224  0.00  0.00    +0.000 C 
ATOM     91  C18 UNK     0      53.218  12.317  37.188  0.00  0.00    +0.000 C 
ENDBRANCH  88  89
ENDBRANCH   9  88
TORSDOF 17
ENDMDL
MODEL 8
REMARK VINA RESULT:      -5.2     25.912     33.877
REMARK  Name = CyclosporineA.pdb
REMARK  40 active torsions:
REMARK  status: ('A' for Active; 'I' for Inactive)
REMARK    1  A    between atoms: C1_1  and  C78_78
REMARK    2  A    between atoms: N7_7  and  C8_8
REMARK    3  A    between atoms: C9_9  and  C15_15
REMARK    4  A    between atoms: N11_11  and  C20_20
REMARK    5  A    between atoms: C12_12  and  C21_21
REMARK    6  A    between atoms: N14_14  and  C23_23
REMARK    7  A    between atoms: C15_15  and  C16_16
REMARK    8  A    between atoms: C16_16  and  C17_17
REMARK    9  A    between atoms: C16_16  and  C18_18
REMARK   10  A    between atoms: C21_21  and  C82_82
REMARK   11  A    between atoms: C24_24  and  C25_25
REMARK   12  A    between atoms: C25_25  and  C30_30
REMARK   13  A    between atoms: C25_25  and  C31_31
REMARK   14  A    between atoms: C26_26  and  O27_27
REMARK   15  A    between atoms: N28_28  and  C29_29
REMARK   16  A    between atoms: C32_32  and  C34_34
REMARK   17  A    between atoms: C34_34  and  C35_35
REMARK   18  A    between atoms: C34_34  and  O40_40
REMARK   19  A    between atoms: C35_35  and  C36_36
REMARK   20  A    between atoms: C35_35  and  C41_41
REMARK   21  A    between atoms: C36_36  and  C37_37
REMARK   22  A    between atoms: C38_38  and  C39_39
REMARK   23  A    between atoms: C44_44  and  C45_45
REMARK   24  A    between atoms: C45_45  and  C46_46
REMARK   25  A    between atoms: N49_49  and  C77_77
REMARK   26  A    between atoms: C53_53  and  C57_57
REMARK   27  A    between atoms: C57_57  and  C58_58
REMARK   28  A    between atoms: C58_58  and  C59_59
REMARK   29  A    between atoms: C58_58  and  C76_76
REMARK   30  A    between atoms: C61_61  and  C62_62
REMARK   31  A    between atoms: C62_62  and  C63_63
REMARK   32  A    between atoms: C62_62  and  C64_64
REMARK   33  A    between atoms: N66_66  and  C68_68
REMARK   34  A    between atoms: C67_67  and  C75_75
REMARK   35  A    between atoms: C73_73  and  C74_74
REMARK   36  A    between atoms: C75_75  and  C79_79
REMARK   37  A    between atoms: C79_79  and  C80_80
REMARK   38  A    between atoms: C79_79  and  C81_81
REMARK   39  A    between atoms: C82_82  and  C83_83
REMARK   40  A    between atoms: C82_82  and  C84_84
REMARK                            x       y       z     vdW  Elec       q    Type
REMARK                         _______ _______ _______ _____ _____    ______ ____
ROOT
ATOM      1  C1  UNK     0      56.353 -13.955   4.742  0.00  0.00    +0.000 C 
ATOM      2  C2  UNK     0      56.190 -15.267   3.927  0.00  0.00    +0.000 C 
ATOM      3  N3  UNK     0      56.199 -14.327   6.140  0.00  0.00    +0.000 N 
ATOM      4  C4  UNK     0      56.754 -13.620   7.179  0.00  0.00    +0.000 C 
ATOM      5  O5  UNK     0      57.506 -12.662   7.009  0.00  0.00    +0.000 OA
ATOM      6  C6  UNK     0      55.023 -15.489   3.289  0.00  0.00    +0.000 C 
ATOM      7  N7  UNK     0      57.276 -16.198   3.917  0.00  0.00    +0.000 N 
ATOM      8  C8  UNK     0      58.560 -15.873   4.567  0.00  0.00    +0.000 C 
ATOM      9  C9  UNK     0      57.180 -17.561   3.276  0.00  0.00    +0.000 C 
ATOM     10  C10 UNK     0      56.523 -18.601   4.252  0.00  0.00    +0.000 C 
ATOM     11  N11 UNK     0      55.690 -19.626   3.706  0.00  0.00    +0.000 N 
ATOM     12  C12 UNK     0      54.636 -20.330   4.508  0.00  0.00    +0.000 C 
ATOM     13  C13 UNK     0      55.044 -21.812   4.801  0.00  0.00    +0.000 C 
ATOM     14  N14 UNK     0      53.998 -22.748   5.024  0.00  0.00    +0.000 N 
ATOM     15  C19 UNK     0      56.741 -18.499   5.580  0.00  0.00    +0.000 C 
ATOM     16  C20 UNK     0      55.734 -19.995   2.284  0.00  0.00    +0.000 C 
ATOM     17  C22 UNK     0      56.330 -22.215   4.782  0.00  0.00    +0.000 C 
ATOM     18  C23 UNK     0      53.812 -23.680   3.871  0.00  0.00    +0.000 C 
ATOM     19  C24 UNK     0      53.882 -23.464   6.376  0.00  0.00    +0.000 C 
ATOM     20  C26 UNK     0      52.510 -24.293   6.419  0.00  0.00    +0.000 C 
ATOM     21  N28 UNK     0      52.201 -24.867   7.730  0.00  0.00    +0.000 NA
ATOM     22  C29 UNK     0      52.895 -26.145   7.919  0.00  0.00    +0.000 C 
ATOM     23  C32 UNK     0      50.743 -24.952   8.073  0.00  0.00    +0.000 C 
ATOM     24  C33 UNK     0      50.683 -25.091   9.619  0.00  0.00    +0.000 C 
ATOM     25  O42 UNK     0      50.255 -26.076  10.210  0.00  0.00    +0.000 OA
ATOM     26  N43 UNK     0      51.215 -23.981  10.249  0.00  0.00    +0.000 N 
ATOM     27  C44 UNK     0      51.285 -23.837  11.689  0.00  0.00    +0.000 C 
ATOM     28  C47 UNK     0      49.888 -23.439  12.225  0.00  0.00    +0.000 C 
ATOM     29  C48 UNK     0      49.345 -24.290  13.120  0.00  0.00    +0.000 C 
ATOM     30  N49 UNK     0      49.207 -22.267  11.801  0.00  0.00    +0.000 N 
ATOM     31  C50 UNK     0      49.674 -21.318  10.752  0.00  0.00    +0.000 C 
ATOM     32  C51 UNK     0      49.868 -19.898  11.317  0.00  0.00    +0.000 C 
ATOM     33  N52 UNK     0      50.166 -19.873  12.663  0.00  0.00    +0.000 N 
ATOM     34  C53 UNK     0      50.645 -18.668  13.324  0.00  0.00    +0.000 C 
ATOM     35  C54 UNK     0      52.141 -18.477  12.962  0.00  0.00    +0.000 C 
ATOM     36  N55 UNK     0      52.598 -17.185  13.143  0.00  0.00    +0.000 N 
ATOM     37  O56 UNK     0      49.810 -18.885  10.624  0.00  0.00    +0.000 OA
ATOM     38  O60 UNK     0      52.859 -19.406  12.603  0.00  0.00    +0.000 OA
ATOM     39  C61 UNK     0      53.935 -16.724  12.740  0.00  0.00    +0.000 C 
ATOM     40  C65 UNK     0      53.904 -16.478  11.203  0.00  0.00    +0.000 C 
ATOM     41  N66 UNK     0      53.024 -15.492  10.715  0.00  0.00    +0.000 N 
ATOM     42  C67 UNK     0      52.953 -15.346   9.231  0.00  0.00    +0.000 C 
ATOM     43  C68 UNK     0      52.677 -14.313  11.510  0.00  0.00    +0.000 C 
ATOM     44  O69 UNK     0      54.635 -17.103  10.426  0.00  0.00    +0.000 OA
ATOM     45  C70 UNK     0      54.106 -14.404   8.808  0.00  0.00    +0.000 C 
ATOM     46  N71 UNK     0      55.320 -15.049   8.651  0.00  0.00    +0.000 N 
ATOM     47  O72 UNK     0      53.985 -13.185   8.729  0.00  0.00    +0.000 OA
ATOM     48  C73 UNK     0      56.559 -14.273   8.564  0.00  0.00    +0.000 C 
ATOM     49  C74 UNK     0      57.757 -15.177   8.838  0.00  0.00    +0.000 C 
ATOM     50  C77 UNK     0      47.797 -22.031  12.174  0.00  0.00    +0.000 C 
ATOM     51  C78 UNK     0      55.410 -12.794   4.399  0.00  0.00    +0.000 C 
ATOM     52  H2  UNK     0      55.610 -15.121   6.361  0.00  0.00    +0.000 HD
ATOM     53  H58 UNK     0      51.779 -23.375   9.668  0.00  0.00    +0.000 HD
ATOM     54  H69 UNK     0      50.402 -20.783  13.052  0.00  0.00    +0.000 HD
ATOM     55  H71 UNK     0      51.880 -16.475  13.178  0.00  0.00    +0.000 HD
ATOM     56  H90 UNK     0      55.371 -15.975   9.083  0.00  0.00    +0.000 HD
ENDROOT
BRANCH  39  57
ATOM     57  C62 UNK     0      55.120 -17.607  13.216  0.00  0.00    +0.000 C 
ATOM     58  C63 UNK     0      56.465 -16.941  12.881  0.00  0.00    +0.000 C 
ATOM     59  C64 UNK     0      55.076 -17.855  14.730  0.00  0.00    +0.000 C 
ENDBRANCH  39  57
BRANCH  19  60
ATOM     60  C25 UNK     0      53.983 -22.523   7.635  0.00  0.00    +0.000 C 
ATOM     61  C30 UNK     0      55.403 -22.313   8.169  0.00  0.00    +0.000 C 
ATOM     62  C31 UNK     0      53.247 -21.186   7.527  0.00  0.00    +0.000 C 
ENDBRANCH  19  60
BRANCH  20  63
ATOM     63  O27 UNK     0      51.444 -23.459   5.947  0.00  0.00    +0.000 OA
ATOM     64  H34 UNK     0      51.867 -22.585   5.812  0.00  0.00    +0.000 HD
ENDBRANCH  20  63
BRANCH  27  65
ATOM     65  C45 UNK     0      52.426 -22.892  12.104  0.00  0.00    +0.000 C 
ATOM     66  C46 UNK     0      53.810 -23.433  11.767  0.00  0.00    +0.000 C 
ENDBRANCH  27  65
BRANCH  23  67
ATOM     67  C34 UNK     0      49.883 -26.035   7.350  0.00  0.00    +0.000 C 
BRANCH  67  68
ATOM     68  C35 UNK     0      48.433 -25.591   6.984  0.00  0.00    +0.000 C 
ATOM     69  C41 UNK     0      47.658 -24.938   8.132  0.00  0.00    +0.000 C 
BRANCH  68  70
ATOM     70  C36 UNK     0      47.649 -26.809   6.424  0.00  0.00    +0.000 C 
BRANCH  70  71
ATOM     71  C37 UNK     0      46.660 -26.448   5.347  0.00  0.00    +0.000 C 
ATOM     72  C38 UNK     0      45.535 -27.136   5.102  0.00  0.00    +0.000 C 
ATOM     73  C39 UNK     0      44.557 -26.785   4.029  0.00  0.00    +0.000 C 
ENDBRANCH  70  71
ENDBRANCH  68  70
ENDBRANCH  67  68
BRANCH  67  74
ATOM     74  O40 UNK     0      50.512 -26.398   6.100  0.00  0.00    +0.000 OA
ATOM     75  H54 UNK     0      50.479 -27.376   6.066  0.00  0.00    +0.000 HD
ENDBRANCH  67  74
ENDBRANCH  23  67
BRANCH  34  76
ATOM     76  C57 UNK     0      50.443 -18.815  14.841  0.00  0.00    +0.000 C 
BRANCH  76  77
ATOM     77  C58 UNK     0      49.554 -17.757  15.523  0.00  0.00    +0.000 C 
ATOM     78  C59 UNK     0      50.351 -16.809  16.419  0.00  0.00    +0.000 C 
ATOM     79  C76 UNK     0      48.810 -16.947  14.455  0.00  0.00    +0.000 C 
ENDBRANCH  76  77
ENDBRANCH  34  76
BRANCH  12  80
ATOM     80  C21 UNK     0      53.234 -20.206   3.842  0.00  0.00    +0.000 C 
BRANCH  80  81
ATOM     81  C82 UNK     0      52.350 -19.055   4.361  0.00  0.00    +0.000 C 
ATOM     82  C83 UNK     0      50.936 -19.515   4.708  0.00  0.00    +0.000 C 
ATOM     83  C84 UNK     0      52.282 -17.944   3.308  0.00  0.00    +0.000 C 
ENDBRANCH  80  81
ENDBRANCH  12  80
BRANCH  42  84
ATOM     84  C75 UNK     0      51.571 -14.843   8.764  0.00  0.00    +0.000 C 
BRANCH  84  85
ATOM     85  C79 UNK     0      50.961 -15.641   7.593  0.00  0.00    +0.000 C 
ATOM     86  C80 UNK     0      49.509 -16.050   7.838  0.00  0.00    +0.000 C 
ATOM     87  C81 UNK     0      51.804 -16.894   7.330  0.00  0.00    +0.000 C 
ENDBRANCH  84  85
ENDBRANCH  42  84
BRANCH   9  88
ATOM     88  C15 UNK     0      58.511 -18.082   2.659  0.00  0.00    +0.000 C 
BRANCH  88  89
ATOM     89  C16 UNK     0      58.708 -17.686   1.176  0.00  0.00    +0.000 C 
ATOM     90  C17 UNK     0      57.427 -17.185   0.514  0.00  0.00    +0.000 C 
ATOM     91  C18 UNK     0      59.796 -16.614   1.068  0.00  0.00    +0.000 C 
ENDBRANCH  88  89
ENDBRANCH   9  88
TORSDOF 17
ENDMDL
MODEL 9
REMARK VINA RESULT:      -5.1     38.313     44.017
REMARK  Name = CyclosporineA.pdb
REMARK  40 active torsions:
REMARK  status: ('A' for Active; 'I' for Inactive)
REMARK    1  A    between atoms: C1_1  and  C78_78
REMARK    2  A    between atoms: N7_7  and  C8_8
REMARK    3  A    between atoms: C9_9  and  C15_15
REMARK    4  A    between atoms: N11_11  and  C20_20
REMARK    5  A    between atoms: C12_12  and  C21_21
REMARK    6  A    between atoms: N14_14  and  C23_23
REMARK    7  A    between atoms: C15_15  and  C16_16
REMARK    8  A    between atoms: C16_16  and  C17_17
REMARK    9  A    between atoms: C16_16  and  C18_18
REMARK   10  A    between atoms: C21_21  and  C82_82
REMARK   11  A    between atoms: C24_24  and  C25_25
REMARK   12  A    between atoms: C25_25  and  C30_30
REMARK   13  A    between atoms: C25_25  and  C31_31
REMARK   14  A    between atoms: C26_26  and  O27_27
REMARK   15  A    between atoms: N28_28  and  C29_29
REMARK   16  A    between atoms: C32_32  and  C34_34
REMARK   17  A    between atoms: C34_34  and  C35_35
REMARK   18  A    between atoms: C34_34  and  O40_40
REMARK   19  A    between atoms: C35_35  and  C36_36
REMARK   20  A    between atoms: C35_35  and  C41_41
REMARK   21  A    between atoms: C36_36  and  C37_37
REMARK   22  A    between atoms: C38_38  and  C39_39
REMARK   23  A    between atoms: C44_44  and  C45_45
REMARK   24  A    between atoms: C45_45  and  C46_46
REMARK   25  A    between atoms: N49_49  and  C77_77
REMARK   26  A    between atoms: C53_53  and  C57_57
REMARK   27  A    between atoms: C57_57  and  C58_58
REMARK   28  A    between atoms: C58_58  and  C59_59
REMARK   29  A    between atoms: C58_58  and  C76_76
REMARK   30  A    between atoms: C61_61  and  C62_62
REMARK   31  A    between atoms: C62_62  and  C63_63
REMARK   32  A    between atoms: C62_62  and  C64_64
REMARK   33  A    between atoms: N66_66  and  C68_68
REMARK   34  A    between atoms: C67_67  and  C75_75
REMARK   35  A    between atoms: C73_73  and  C74_74
REMARK   36  A    between atoms: C75_75  and  C79_79
REMARK   37  A    between atoms: C79_79  and  C80_80
REMARK   38  A    between atoms: C79_79  and  C81_81
REMARK   39  A    between atoms: C82_82  and  C83_83
REMARK   40  A    between atoms: C82_82  and  C84_84
REMARK                            x       y       z     vdW  Elec       q    Type
REMARK                         _______ _______ _______ _____ _____    ______ ____
ROOT
ATOM      1  C1  UNK     0      27.299   0.128 -10.141  0.00  0.00    +0.000 C 
ATOM      2  C2  UNK     0      28.759   0.203  -9.614  0.00  0.00    +0.000 C 
ATOM      3  N3  UNK     0      26.483   0.836  -9.168  0.00  0.00    +0.000 N 
ATOM      4  C4  UNK     0      25.285   1.435  -9.475  0.00  0.00    +0.000 C 
ATOM      5  O5  UNK     0      24.845   1.501 -10.621  0.00  0.00    +0.000 OA
ATOM      6  C6  UNK     0      29.288  -0.888  -9.024  0.00  0.00    +0.000 C 
ATOM      7  N7  UNK     0      29.466   1.439  -9.750  0.00  0.00    +0.000 N 
ATOM      8  C8  UNK     0      28.870   2.578 -10.473  0.00  0.00    +0.000 C 
ATOM      9  C9  UNK     0      30.834   1.669  -9.154  0.00  0.00    +0.000 C 
ATOM     10  C10 UNK     0      30.730   2.092  -7.646  0.00  0.00    +0.000 C 
ATOM     11  N11 UNK     0      31.745   1.655  -6.738  0.00  0.00    +0.000 N 
ATOM     12  C12 UNK     0      31.519   1.546  -5.259  0.00  0.00    +0.000 C 
ATOM     13  C13 UNK     0      32.305   2.653  -4.483  0.00  0.00    +0.000 C 
ATOM     14  N14 UNK     0      32.666   2.378  -3.136  0.00  0.00    +0.000 N 
ATOM     15  C19 UNK     0      29.685   2.840  -7.233  0.00  0.00    +0.000 C 
ATOM     16  C20 UNK     0      33.057   1.182  -7.200  0.00  0.00    +0.000 C 
ATOM     17  C22 UNK     0      32.688   3.802  -5.073  0.00  0.00    +0.000 C 
ATOM     18  C23 UNK     0      34.128   2.107  -2.983  0.00  0.00    +0.000 C 
ATOM     19  C24 UNK     0      32.112   3.246  -1.998  0.00  0.00    +0.000 C 
ATOM     20  C26 UNK     0      32.512   2.591  -0.591  0.00  0.00    +0.000 C 
ATOM     21  N28 UNK     0      31.881   3.230   0.566  0.00  0.00    +0.000 NA
ATOM     22  C29 UNK     0      32.635   4.416   0.986  0.00  0.00    +0.000 C 
ATOM     23  C32 UNK     0      31.560   2.320   1.714  0.00  0.00    +0.000 C 
ATOM     24  C33 UNK     0      30.487   3.066   2.553  0.00  0.00    +0.000 C 
ATOM     25  O42 UNK     0      30.655   3.457   3.703  0.00  0.00    +0.000 OA
ATOM     26  N43 UNK     0      29.329   3.274   1.826  0.00  0.00    +0.000 N 
ATOM     27  C44 UNK     0      28.160   3.943   2.360  0.00  0.00    +0.000 C 
ATOM     28  C47 UNK     0      27.383   2.955   3.265  0.00  0.00    +0.000 C 
ATOM     29  C48 UNK     0      27.226   3.344   4.548  0.00  0.00    +0.000 C 
ATOM     30  N49 UNK     0      26.876   1.716   2.793  0.00  0.00    +0.000 N 
ATOM     31  C50 UNK     0      27.078   1.154   1.428  0.00  0.00    +0.000 C 
ATOM     32  C51 UNK     0      25.739   0.938   0.699  0.00  0.00    +0.000 C 
ATOM     33  N52 UNK     0      24.737   1.789   1.116  0.00  0.00    +0.000 N 
ATOM     34  C53 UNK     0      23.489   1.929   0.379  0.00  0.00    +0.000 C 
ATOM     35  C54 UNK     0      23.757   2.813  -0.867  0.00  0.00    +0.000 C 
ATOM     36  N55 UNK     0      22.812   2.671  -1.865  0.00  0.00    +0.000 N 
ATOM     37  O56 UNK     0      25.589   0.116  -0.202  0.00  0.00    +0.000 OA
ATOM     38  O60 UNK     0      24.696   3.602  -0.929  0.00  0.00    +0.000 OA
ATOM     39  C61 UNK     0      22.920   3.294  -3.193  0.00  0.00    +0.000 C 
ATOM     40  C65 UNK     0      23.910   2.435  -4.035  0.00  0.00    +0.000 C 
ATOM     41  N66 UNK     0      23.556   1.097  -4.296  0.00  0.00    +0.000 N 
ATOM     42  C67 UNK     0      24.568   0.277  -5.027  0.00  0.00    +0.000 C 
ATOM     43  C68 UNK     0      22.158   0.684  -4.423  0.00  0.00    +0.000 C 
ATOM     44  O69 UNK     0      24.962   2.902  -4.484  0.00  0.00    +0.000 OA
ATOM     45  C70 UNK     0      24.361   0.537  -6.539  0.00  0.00    +0.000 C 
ATOM     46  N71 UNK     0      25.002   1.674  -6.999  0.00  0.00    +0.000 N 
ATOM     47  O72 UNK     0      23.610  -0.135  -7.240  0.00  0.00    +0.000 OA
ATOM     48  C73 UNK     0      24.659   2.230  -8.310  0.00  0.00    +0.000 C 
ATOM     49  C74 UNK     0      25.144   3.673  -8.402  0.00  0.00    +0.000 C 
ATOM     50  C77 UNK     0      26.326   0.714   3.728  0.00  0.00    +0.000 C 
ATOM     51  C78 UNK     0      26.718  -1.268 -10.402  0.00  0.00    +0.000 C 
ATOM     52  H2  UNK     0      26.790   0.845  -8.203  0.00  0.00    +0.000 HD
ATOM     53  H58 UNK     0      29.413   3.160   0.825  0.00  0.00    +0.000 HD
ATOM     54  H69 UNK     0      25.061   2.556   1.699  0.00  0.00    +0.000 HD
ATOM     55  H71 UNK     0      22.261   1.825  -1.820  0.00  0.00    +0.000 HD
ATOM     56  H90 UNK     0      25.289   2.327  -6.267  0.00  0.00    +0.000 HD
ENDROOT
BRANCH  39  57
ATOM     57  C62 UNK     0      23.240   4.813  -3.197  0.00  0.00    +0.000 C 
ATOM     58  C63 UNK     0      23.143   5.387  -4.620  0.00  0.00    +0.000 C 
ATOM     59  C64 UNK     0      22.277   5.602  -2.298  0.00  0.00    +0.000 C 
ENDBRANCH  39  57
BRANCH  19  60
ATOM     60  C25 UNK     0      30.559   3.499  -2.054  0.00  0.00    +0.000 C 
ATOM     61  C30 UNK     0      30.137   4.735  -2.854  0.00  0.00    +0.000 C 
ATOM     62  C31 UNK     0      29.702   2.291  -2.438  0.00  0.00    +0.000 C 
ENDBRANCH  19  60
BRANCH  20  63
ATOM     63  O27 UNK     0      32.232   1.186  -0.632  0.00  0.00    +0.000 OA
ATOM     64  H34 UNK     0      32.516   0.859   0.247  0.00  0.00    +0.000 HD
ENDBRANCH  20  63
BRANCH  27  65
ATOM     65  C45 UNK     0      27.323   4.588   1.243  0.00  0.00    +0.000 C 
ATOM     66  C46 UNK     0      26.171   5.436   1.765  0.00  0.00    +0.000 C 
ENDBRANCH  27  65
BRANCH  23  67
ATOM     67  C34 UNK     0      32.743   1.805   2.592  0.00  0.00    +0.000 C 
BRANCH  67  68
ATOM     68  C35 UNK     0      32.351   0.762   3.684  0.00  0.00    +0.000 C 
ATOM     69  C41 UNK     0      33.356   0.636   4.833  0.00  0.00    +0.000 C 
BRANCH  68  70
ATOM     70  C36 UNK     0      32.115  -0.619   3.015  0.00  0.00    +0.000 C 
BRANCH  70  71
ATOM     71  C37 UNK     0      31.095  -1.468   3.726  0.00  0.00    +0.000 C 
ATOM     72  C38 UNK     0      29.884  -1.028   4.099  0.00  0.00    +0.000 C 
ATOM     73  C39 UNK     0      28.873  -1.864   4.813  0.00  0.00    +0.000 C 
ENDBRANCH  70  71
ENDBRANCH  68  70
ENDBRANCH  67  68
BRANCH  67  74
ATOM     74  O40 UNK     0      33.721   1.150   1.753  0.00  0.00    +0.000 OA
ATOM     75  H54 UNK     0      33.317   0.295   1.500  0.00  0.00    +0.000 HD
ENDBRANCH  67  74
ENDBRANCH  23  67
BRANCH  34  76
ATOM     76  C57 UNK     0      22.432   2.557   1.301  0.00  0.00    +0.000 C 
BRANCH  76  77
ATOM     77  C58 UNK     0      22.911   3.696   2.223  0.00  0.00    +0.000 C 
ATOM     78  C59 UNK     0      22.377   5.063   1.793  0.00  0.00    +0.000 C 
ATOM     79  C76 UNK     0      22.476   3.407   3.664  0.00  0.00    +0.000 C 
ENDBRANCH  76  77
ENDBRANCH  34  76
BRANCH  12  80
ATOM     80  C21 UNK     0      31.822   0.109  -4.741  0.00  0.00    +0.000 C 
BRANCH  80  81
ATOM     81  C82 UNK     0      30.650  -0.890  -4.821  0.00  0.00    +0.000 C 
ATOM     82  C83 UNK     0      29.368  -0.246  -5.344  0.00  0.00    +0.000 C 
ATOM     83  C84 UNK     0      30.393  -1.492  -3.436  0.00  0.00    +0.000 C 
ENDBRANCH  80  81
ENDBRANCH  12  80
BRANCH  42  84
ATOM     84  C75 UNK     0      24.476  -1.219  -4.661  0.00  0.00    +0.000 C 
BRANCH  84  85
ATOM     85  C79 UNK     0      25.679  -1.758  -3.860  0.00  0.00    +0.000 C 
ATOM     86  C80 UNK     0      26.555  -0.651  -3.275  0.00  0.00    +0.000 C 
ATOM     87  C81 UNK     0      26.532  -2.659  -4.759  0.00  0.00    +0.000 C 
ENDBRANCH  84  85
ENDBRANCH  42  84
BRANCH   9  88
ATOM     88  C15 UNK     0      31.747   2.623  -9.978  0.00  0.00    +0.000 C 
BRANCH  88  89
ATOM     89  C16 UNK     0      32.011   3.983  -9.289  0.00  0.00    +0.000 C 
ATOM     90  C17 UNK     0      33.496   4.265  -9.069  0.00  0.00    +0.000 C 
ATOM     91  C18 UNK     0      31.390   5.112 -10.117  0.00  0.00    +0.000 C 
ENDBRANCH  88  89
ENDBRANCH   9  88
TORSDOF 17
ENDMDL
