MODEL 1
REMARK VINA RESULT:     -11.0      0.000      0.000
REMARK  Name = Cyclosporin_A.pdbqt.pdb
REMARK  4 active torsions:
REMARK  status: ('A' for Active; 'I' for Inactive)
REMARK    1  A    between atoms: N_13  and  C_36
REMARK    2  A    between atoms: C_36  and  O_70
REMARK    3  A    between atoms: C_72  and  C_73
REMARK    4  A    between atoms: C_75  and  C_76
REMARK                            x       y       z     vdW  Elec       q    Type
REMARK                         _______ _______ _______ _____ _____    ______ ____
ROOT
ATOM      1  O   UNL     1      16.430  -3.762   9.996  0.00  0.00    +0.000 OA
ATOM      2  O   UNL     1      15.649  -8.745  10.927  0.00  0.00    +0.000 OA
ATOM      3  O   UNL     1      17.145  -9.104  15.460  0.00  0.00    +0.000 OA
ATOM      4  O   UNL     1      20.224  -1.523  12.141  0.00  0.00    +0.000 OA
ATOM      5  O   UNL     1      12.512  -8.127  13.643  0.00  0.00    +0.000 OA
ATOM      6  O   UNL     1      11.706  -0.269  21.686  0.00  0.00    +0.000 OA
ATOM      7  O   UNL     1      15.356   1.182  11.874  0.00  0.00    +0.000 OA
ATOM      8  O   UNL     1      16.048   1.273  19.944  0.00  0.00    +0.000 OA
ATOM      9  O   UNL     1      10.255  -4.782  20.682  0.00  0.00    +0.000 OA
ATOM     10  O   UNL     1      16.196   2.491  16.024  0.00  0.00    +0.000 OA
ATOM     11  O   UNL     1      10.351  -5.625  16.453  0.00  0.00    +0.000 OA
ATOM     12  N   UNL     1      16.321  -6.966  11.290  0.00  0.00    +0.000 NA
ATOM     13  N   UNL     1      17.686  -4.267  11.985  0.00  0.00    +0.000 NA
ATOM     14  N   UNL     1      16.358  -9.188  13.640  0.00  0.00    +0.000 NA
ATOM     15  N   UNL     1      14.023  -8.550  15.702  0.00  0.00    +0.000 NA
ATOM     16  N   UNL     1      17.944  -1.362  12.990  0.00  0.00    +0.000 NA
ATOM     17  N   UNL     1      12.995  -2.232  21.517  0.00  0.00    +0.000 N 
ATOM     18  N   UNL     1      14.527  -0.448  19.493  0.00  0.00    +0.000 N 
ATOM     19  N   UNL     1      15.423   1.130  17.224  0.00  0.00    +0.000 NA
ATOM     20  N   UNL     1      15.233  -0.159  13.708  0.00  0.00    +0.000 NA
ATOM     21  N   UNL     1      12.816  -5.914  16.402  0.00  0.00    +0.000 NA
ATOM     22  N   UNL     1      11.889  -3.896  19.140  0.00  0.00    +0.000 NA
ATOM     23  C   UNL     1      15.926  -5.746  10.824  0.00  0.00    +0.000 C 
ATOM     24  C   UNL     1      16.608  -7.988  13.107  0.00  0.00    +0.000 C 
ATOM     25  C   UNL     1      18.728  -3.392  11.749  0.00  0.00    +0.000 C 
ATOM     26  C   UNL     1      15.192  -5.576   9.664  0.00  0.00    +0.000 C 
ATOM     27  C   UNL     1      18.058  -7.956  13.407  0.00  0.00    +0.000 C 
ATOM     28  C   UNL     1      16.719  -4.640  11.045  0.00  0.00    +0.000 C 
ATOM     29  C   UNL     1      15.842  -8.056  11.993  0.00  0.00    +0.000 C 
ATOM     30  C   UNL     1      14.742  -9.337  14.951  0.00  0.00    +0.000 C 
ATOM     31  C   UNL     1      16.011  -8.844  14.884  0.00  0.00    +0.000 C 
ATOM     32  C   UNL     1      19.017  -2.177  12.570  0.00  0.00    +0.000 C 
ATOM     33  C   UNL     1      15.171  -6.921   9.180  0.00  0.00    +0.000 C 
ATOM     34  C   UNL     1      15.653  -4.444   9.080  0.00  0.00    +0.000 C 
ATOM     35  C   UNL     1      15.719  -7.630  10.238  0.00  0.00    +0.000 C 
ATOM     36  C   UNL     1      17.651  -9.428  14.181  0.00  0.00    +0.000 C 
ATOM     37  C   UNL     1      17.403  -0.278  12.254  0.00  0.00    +0.000 C 
ATOM     38  C   UNL     1      13.461  -0.085  20.276  0.00  0.00    +0.000 A 
ATOM     39  C   UNL     1      13.425  -7.903  14.707  0.00  0.00    +0.000 C 
ATOM     40  C   UNL     1      11.951  -3.186  21.410  0.00  0.00    +0.000 C 
ATOM     41  C   UNL     1      16.324   0.587  18.078  0.00  0.00    +0.000 C 
ATOM     42  C   UNL     1      13.340  -9.747  16.258  0.00  0.00    +0.000 C 
ATOM     43  C   UNL     1      12.791   1.172  20.371  0.00  0.00    +0.000 A 
ATOM     44  C   UNL     1      11.560  -3.373  23.169  0.00  0.00    +0.000 C 
ATOM     45  C   UNL     1      12.845  -6.699  15.369  0.00  0.00    +0.000 C 
ATOM     46  C   UNL     1      16.844   1.761  18.863  0.00  0.00    +0.000 C 
ATOM     47  C   UNL     1      18.228   0.141  11.168  0.00  0.00    +0.000 C 
ATOM     48  C   UNL     1      12.768  -0.939  21.128  0.00  0.00    +0.000 A 
ATOM     49  C   UNL     1      16.171   0.205  12.552  0.00  0.00    +0.000 C 
ATOM     50  C   UNL     1      15.528   0.347  19.186  0.00  0.00    +0.000 C 
ATOM     51  C   UNL     1      11.343  -3.907  20.409  0.00  0.00    +0.000 C 
ATOM     52  C   UNL     1      15.740   0.398  14.964  0.00  0.00    +0.000 C 
ATOM     53  C   UNL     1      13.052   2.447  19.614  0.00  0.00    +0.000 C 
ATOM     54  C   UNL     1      11.733   1.013  21.229  0.00  0.00    +0.000 A 
ATOM     55  C   UNL     1      16.209   1.106  16.102  0.00  0.00    +0.000 C 
ATOM     56  C   UNL     1      11.422  -4.534  18.116  0.00  0.00    +0.000 C 
ATOM     57  C   UNL     1      12.143  -7.111  14.269  0.00  0.00    +0.000 C 
ATOM     58  C   UNL     1      12.571  -2.540  22.765  0.00  0.00    +0.000 C 
ATOM     59  C   UNL     1      19.239  -0.112  10.576  0.00  0.00    +0.000 C 
ATOM     60  C   UNL     1      11.704  -5.392  16.898  0.00  0.00    +0.000 C 
ATOM     61  C   UNL     1      15.774   2.645  17.416  0.00  0.00    +0.000 C 
ATOM     62  C   UNL     1      14.761   0.741  12.866  0.00  0.00    +0.000 C 
ATOM     63  C   UNL     1      10.292  -4.937  17.486  0.00  0.00    +0.000 C 
ATOM     64  H   UNL     1      17.177  -1.923  13.363  0.00  0.00    +0.000 HD
ATOM     65  H   UNL     1      14.415  -1.301  18.950  0.00  0.00    +0.000 HD
ATOM     66  H   UNL     1      13.639  -5.902  16.999  0.00  0.00    +0.000 HD
ATOM     67  H   UNL     1      12.875  -3.653  19.168  0.00  0.00    +0.000 HD
ATOM     68  C   UNL     1      19.327  -3.306  10.593  0.00  0.00    +0.000 C 
ATOM     69  C   UNL     1      20.098  -2.332   9.899  0.00  0.00    +0.000 C 
ATOM     70  C   UNL     1      20.228  -1.134  10.753  0.00  0.00    +0.000 C 
ATOM     71  C   UNL     1      19.495  -8.529  12.771  0.00  0.00    +0.000 C 
ATOM     72  C   UNL     1      20.670  -7.903  12.771  0.00  0.00    +0.000 C 
ATOM     73  C   UNL     1      18.867  -9.444  13.621  0.00  0.00    +0.000 C 
ATOM     74  C   UNL     1      14.218 -10.591  15.511  0.00  0.00    +0.000 C 
ATOM     75  C   UNL     1      12.932 -11.077  15.700  0.00  0.00    +0.000 C 
ATOM     76  C   UNL     1      12.665 -12.330  16.561  0.00  0.00    +0.000 C 
ATOM     77  C   UNL     1      12.025 -10.076  15.987  0.00  0.00    +0.000 C 
ATOM     78  C   UNL     1      17.903   2.961  18.833  0.00  0.00    +0.000 C 
ATOM     79  C   UNL     1      18.580   3.638  19.757  0.00  0.00    +0.000 C 
ATOM     80  C   UNL     1      16.873   3.265  17.941  0.00  0.00    +0.000 C 
ATOM     81  C   UNL     1      10.546  -4.239  23.241  0.00  0.00    +0.000 C 
ATOM     82  C   UNL     1       9.945  -4.657  24.542  0.00  0.00    +0.000 C 
ATOM     83  C   UNL     1      10.092  -4.760  22.005  0.00  0.00    +0.000 C 
ENDROOT
BRANCH  69  84
ATOM     84  C   UNL     1      20.350  -2.305   8.507  0.00  0.00    +0.000 C 
ATOM     85  C   UNL     1      20.570  -2.287   7.326  0.00  0.00    +0.000 C 
BRANCH  85  86
ATOM     86  C   UNL     1      20.855  -2.266   5.821  0.00  0.00    +0.000 C 
ATOM     87  C   UNL     1      21.108  -2.247   4.514  0.00  0.00    +0.000 C 
ENDBRANCH  85  86
ENDBRANCH  69  84
BRANCH  13  88
ATOM     88  C   UNL     1      17.413  -4.607  13.372  0.00  0.00    +0.000 C 
BRANCH  88  89
ATOM     89  O   UNL     1      17.162  -4.893  14.642  0.00  0.00    +0.000 OA
ATOM     90  H   UNL     1      16.867  -4.093  15.111  0.00  0.00    +0.000 HD
ENDBRANCH  88  89
ENDBRANCH  13  88
TORSDOF 4
ENDMDL
MODEL 2
REMARK VINA RESULT:     -10.0     36.399     41.172
REMARK  Name = Cyclosporin_A.pdbqt.pdb
REMARK  4 active torsions:
REMARK  status: ('A' for Active; 'I' for Inactive)
REMARK    1  A    between atoms: N_13  and  C_36
REMARK    2  A    between atoms: C_36  and  O_70
REMARK    3  A    between atoms: C_72  and  C_73
REMARK    4  A    between atoms: C_75  and  C_76
REMARK                            x       y       z     vdW  Elec       q    Type
REMARK                         _______ _______ _______ _____ _____    ______ ____
ROOT
ATOM      1  O   UNL     1      49.978 -15.958  15.763  0.00  0.00    +0.000 OA
ATOM      2  O   UNL     1      51.854 -11.313  16.867  0.00  0.00    +0.000 OA
ATOM      3  O   UNL     1      56.020 -11.394  14.511  0.00  0.00    +0.000 OA
ATOM      4  O   UNL     1      53.096 -19.697  15.209  0.00  0.00    +0.000 OA
ATOM      5  O   UNL     1      51.453  -9.816  12.970  0.00  0.00    +0.000 OA
ATOM      6  O   UNL     1      53.627 -15.062   3.231  0.00  0.00    +0.000 OA
ATOM      7  O   UNL     1      48.822 -19.261  11.655  0.00  0.00    +0.000 OA
ATOM      8  O   UNL     1      54.709 -18.916   6.102  0.00  0.00    +0.000 OA
ATOM      9  O   UNL     1      53.594 -10.628   5.186  0.00  0.00    +0.000 OA
ATOM     10  O   UNL     1      51.719 -20.395   8.499  0.00  0.00    +0.000 OA
ATOM     11  O   UNL     1      51.084 -10.406   8.687  0.00  0.00    +0.000 OA
ATOM     12  N   UNL     1      51.910 -13.120  16.173  0.00  0.00    +0.000 NA
ATOM     13  N   UNL     1      52.314 -16.038  15.197  0.00  0.00    +0.000 NA
ATOM     14  N   UNL     1      54.307 -11.071  15.459  0.00  0.00    +0.000 NA
ATOM     15  N   UNL     1      53.974 -10.098  12.450  0.00  0.00    +0.000 NA
ATOM     16  N   UNL     1      52.143 -18.481  13.322  0.00  0.00    +0.000 NA
ATOM     17  N   UNL     1      55.034 -14.170   4.895  0.00  0.00    +0.000 N 
ATOM     18  N   UNL     1      54.025 -16.696   6.389  0.00  0.00    +0.000 N 
ATOM     19  N   UNL     1      52.511 -18.722   7.818  0.00  0.00    +0.000 NA
ATOM     20  N   UNL     1      50.456 -17.902  10.846  0.00  0.00    +0.000 NA
ATOM     21  N   UNL     1      52.743 -11.538  10.146  0.00  0.00    +0.000 NA
ATOM     22  N   UNL     1      53.293 -12.419   6.778  0.00  0.00    +0.000 NA
ATOM     23  C   UNL     1      50.910 -13.956  15.768  0.00  0.00    +0.000 C 
ATOM     24  C   UNL     1      53.686 -12.253  15.451  0.00  0.00    +0.000 C 
ATOM     25  C   UNL     1      52.520 -17.362  15.531  0.00  0.00    +0.000 C 
ATOM     26  C   UNL     1      49.590 -13.806  16.153  0.00  0.00    +0.000 C 
ATOM     27  C   UNL     1      54.814 -13.053  15.980  0.00  0.00    +0.000 C 
ATOM     28  C   UNL     1      51.184 -15.288  15.537  0.00  0.00    +0.000 C 
ATOM     29  C   UNL     1      52.460 -11.884  15.889  0.00  0.00    +0.000 C 
ATOM     30  C   UNL     1      54.204  -9.921  13.721  0.00  0.00    +0.000 C 
ATOM     31  C   UNL     1      54.805 -11.038  14.220  0.00  0.00    +0.000 C 
ATOM     32  C   UNL     1      52.837 -18.444  14.550  0.00  0.00    +0.000 C 
ATOM     33  C   UNL     1      49.720 -12.731  17.086  0.00  0.00    +0.000 C 
ATOM     34  C   UNL     1      49.094 -15.055  16.322  0.00  0.00    +0.000 C 
ATOM     35  C   UNL     1      51.041 -12.343  16.915  0.00  0.00    +0.000 C 
ATOM     36  C   UNL     1      55.593 -11.534  15.850  0.00  0.00    +0.000 C 
ATOM     37  C   UNL     1      50.914 -19.151  13.096  0.00  0.00    +0.000 C 
ATOM     38  C   UNL     1      53.740 -16.327   5.099  0.00  0.00    +0.000 A 
ATOM     39  C   UNL     1      52.685 -10.400  12.576  0.00  0.00    +0.000 C 
ATOM     40  C   UNL     1      54.623 -12.814   4.844  0.00  0.00    +0.000 C 
ATOM     41  C   UNL     1      53.862 -18.688   7.908  0.00  0.00    +0.000 C 
ATOM     42  C   UNL     1      54.329  -8.675  12.213  0.00  0.00    +0.000 C 
ATOM     43  C   UNL     1      52.930 -16.985   4.124  0.00  0.00    +0.000 A 
ATOM     44  C   UNL     1      55.629 -12.267   3.440  0.00  0.00    +0.000 C 
ATOM     45  C   UNL     1      52.338 -11.008  11.259  0.00  0.00    +0.000 C 
ATOM     46  C   UNL     1      54.318 -19.868   7.093  0.00  0.00    +0.000 C 
ATOM     47  C   UNL     1      50.563 -20.063  14.137  0.00  0.00    +0.000 C 
ATOM     48  C   UNL     1      54.169 -15.152   4.490  0.00  0.00    +0.000 A 
ATOM     49  C   UNL     1      50.150 -18.838  12.020  0.00  0.00    +0.000 C 
ATOM     50  C   UNL     1      54.184 -17.937   6.788  0.00  0.00    +0.000 C 
ATOM     51  C   UNL     1      53.805 -11.981   5.571  0.00  0.00    +0.000 C 
ATOM     52  C   UNL     1      51.440 -18.519   9.951  0.00  0.00    +0.000 C 
ATOM     53  C   UNL     1      52.138 -18.259   4.252  0.00  0.00    +0.000 C 
ATOM     54  C   UNL     1      52.885 -16.182   3.014  0.00  0.00    +0.000 A 
ATOM     55  C   UNL     1      52.266 -19.250   9.059  0.00  0.00    +0.000 C 
ATOM     56  C   UNL     1      52.521 -11.735   7.558  0.00  0.00    +0.000 C 
ATOM     57  C   UNL     1      51.283 -10.389  11.872  0.00  0.00    +0.000 C 
ATOM     58  C   UNL     1      55.715 -13.557   3.900  0.00  0.00    +0.000 C 
ATOM     59  C   UNL     1      50.904 -20.473  15.210  0.00  0.00    +0.000 C 
ATOM     60  C   UNL     1      52.178 -11.304   8.971  0.00  0.00    +0.000 C 
ATOM     61  C   UNL     1      52.336 -20.149   7.196  0.00  0.00    +0.000 C 
ATOM     62  C   UNL     1      49.265 -18.469  10.815  0.00  0.00    +0.000 C 
ATOM     63  C   UNL     1      51.505 -10.839   7.601  0.00  0.00    +0.000 C 
ATOM     64  H   UNL     1      52.098 -17.556  12.894  0.00  0.00    +0.000 HD
ATOM     65  H   UNL     1      53.884 -15.983   7.101  0.00  0.00    +0.000 HD
ATOM     66  H   UNL     1      53.675 -11.944  10.139  0.00  0.00    +0.000 HD
ATOM     67  H   UNL     1      53.863 -13.164   7.169  0.00  0.00    +0.000 HD
ATOM     68  C   UNL     1      52.093 -17.881  16.650  0.00  0.00    +0.000 C 
ATOM     69  C   UNL     1      51.779 -19.182  17.131  0.00  0.00    +0.000 C 
ATOM     70  C   UNL     1      52.021 -20.159  16.051  0.00  0.00    +0.000 C 
ATOM     71  C   UNL     1      55.512 -13.439  17.451  0.00  0.00    +0.000 C 
ATOM     72  C   UNL     1      56.051 -14.608  17.793  0.00  0.00    +0.000 C 
ATOM     73  C   UNL     1      56.004 -12.251  16.904  0.00  0.00    +0.000 C 
ATOM     74  C   UNL     1      54.686  -8.539  13.590  0.00  0.00    +0.000 C 
ATOM     75  C   UNL     1      54.155  -7.405  12.991  0.00  0.00    +0.000 C 
ATOM     76  C   UNL     1      55.007  -6.136  12.774  0.00  0.00    +0.000 C 
ATOM     77  C   UNL     1      53.412  -7.702  11.864  0.00  0.00    +0.000 C 
ATOM     78  C   UNL     1      54.560 -21.450   7.143  0.00  0.00    +0.000 C 
ATOM     79  C   UNL     1      55.387 -22.292   6.528  0.00  0.00    +0.000 C 
ATOM     80  C   UNL     1      53.184 -21.219   7.118  0.00  0.00    +0.000 C 
ATOM     81  C   UNL     1      55.326 -10.983   3.236  0.00  0.00    +0.000 C 
ATOM     82  C   UNL     1      55.968 -10.175   2.157  0.00  0.00    +0.000 C 
ATOM     83  C   UNL     1      54.378 -10.424   4.128  0.00  0.00    +0.000 C 
ENDROOT
BRANCH  69  84
ATOM     84  C   UNL     1      50.988 -19.482  18.265  0.00  0.00    +0.000 C 
ATOM     85  C   UNL     1      50.310 -19.740  19.223  0.00  0.00    +0.000 C 
BRANCH  85  86
ATOM     86  C   UNL     1      49.443 -20.070  20.442  0.00  0.00    +0.000 C 
ATOM     87  C   UNL     1      48.688 -20.362  21.500  0.00  0.00    +0.000 C 
ENDBRANCH  85  86
ENDBRANCH  69  84
BRANCH  13  88
ATOM     88  C   UNL     1      53.198 -15.468  14.193  0.00  0.00    +0.000 C 
BRANCH  88  89
ATOM     89  O   UNL     1      53.997 -14.965  13.262  0.00  0.00    +0.000 OA
ATOM     90  H   UNL     1      54.810 -14.619  13.671  0.00  0.00    +0.000 HD
ENDBRANCH  88  89
ENDBRANCH  13  88
TORSDOF 4
ENDMDL
MODEL 3
REMARK VINA RESULT:      -9.7     39.979     44.113
REMARK  Name = Cyclosporin_A.pdbqt.pdb
REMARK  4 active torsions:
REMARK  status: ('A' for Active; 'I' for Inactive)
REMARK    1  A    between atoms: N_13  and  C_36
REMARK    2  A    between atoms: C_36  and  O_70
REMARK    3  A    between atoms: C_72  and  C_73
REMARK    4  A    between atoms: C_75  and  C_76
REMARK                            x       y       z     vdW  Elec       q    Type
REMARK                         _______ _______ _______ _____ _____    ______ ____
ROOT
ATOM      1  O   UNL     1      53.912  -7.024  38.790  0.00  0.00    +0.000 OA
ATOM      2  O   UNL     1      53.700  -2.817  35.864  0.00  0.00    +0.000 OA
ATOM      3  O   UNL     1      49.071  -1.651  36.222  0.00  0.00    +0.000 OA
ATOM      4  O   UNL     1      50.021  -9.998  38.940  0.00  0.00    +0.000 OA
ATOM      5  O   UNL     1      53.014  -0.181  39.054  0.00  0.00    +0.000 OA
ATOM      6  O   UNL     1      46.325  -1.668  48.007  0.00  0.00    +0.000 OA
ATOM      7  O   UNL     1      52.709  -8.909  43.702  0.00  0.00    +0.000 OA
ATOM      8  O   UNL     1      45.477  -6.101  46.034  0.00  0.00    +0.000 OA
ATOM      9  O   UNL     1      48.095   1.847  45.179  0.00  0.00    +0.000 OA
ATOM     10  O   UNL     1      48.692  -8.611  45.553  0.00  0.00    +0.000 OA
ATOM     11  O   UNL     1      51.671   0.626  43.100  0.00  0.00    +0.000 OA
ATOM     12  N   UNL     1      52.977  -4.278  36.909  0.00  0.00    +0.000 NA
ATOM     13  N   UNL     1      51.579  -6.650  38.340  0.00  0.00    +0.000 NA
ATOM     14  N   UNL     1      51.035  -1.851  36.018  0.00  0.00    +0.000 NA
ATOM     15  N   UNL     1      50.483   0.009  38.538  0.00  0.00    +0.000 NA
ATOM     16  N   UNL     1      50.489  -8.347  40.673  0.00  0.00    +0.000 NA
ATOM     17  N   UNL     1      45.860  -1.217  45.743  0.00  0.00    +0.000 N 
ATOM     18  N   UNL     1      46.718  -4.190  45.499  0.00  0.00    +0.000 N 
ATOM     19  N   UNL     1      48.124  -6.730  45.394  0.00  0.00    +0.000 NA
ATOM     20  N   UNL     1      51.259  -7.184  43.387  0.00  0.00    +0.000 NA
ATOM     21  N   UNL     1      50.431  -0.726  41.428  0.00  0.00    +0.000 NA
ATOM     22  N   UNL     1      48.519  -0.388  44.370  0.00  0.00    +0.000 NA
ATOM     23  C   UNL     1      53.540  -5.042  37.889  0.00  0.00    +0.000 C 
ATOM     24  C   UNL     1      51.316  -3.028  36.584  0.00  0.00    +0.000 C 
ATOM     25  C   UNL     1      51.203  -7.979  38.301  0.00  0.00    +0.000 C 
ATOM     26  C   UNL     1      54.906  -5.176  38.060  0.00  0.00    +0.000 C 
ATOM     27  C   UNL     1      50.300  -3.824  35.860  0.00  0.00    +0.000 C 
ATOM     28  C   UNL     1      52.898  -6.185  38.318  0.00  0.00    +0.000 C 
ATOM     29  C   UNL     1      52.668  -2.963  36.614  0.00  0.00    +0.000 C 
ATOM     30  C   UNL     1      50.773  -0.215  37.286  0.00  0.00    +0.000 C 
ATOM     31  C   UNL     1      50.147  -1.359  36.888  0.00  0.00    +0.000 C 
ATOM     32  C   UNL     1      50.311  -8.636  39.303  0.00  0.00    +0.000 C 
ATOM     33  C   UNL     1      55.374  -4.459  36.917  0.00  0.00    +0.000 C 
ATOM     34  C   UNL     1      55.122  -6.460  38.437  0.00  0.00    +0.000 C 
ATOM     35  C   UNL     1      54.211  -3.890  36.421  0.00  0.00    +0.000 C 
ATOM     36  C   UNL     1      49.905  -2.269  35.264  0.00  0.00    +0.000 C 
ATOM     37  C   UNL     1      51.362  -9.041  41.550  0.00  0.00    +0.000 C 
ATOM     38  C   UNL     1      46.598  -3.453  46.650  0.00  0.00    +0.000 A 
ATOM     39  C   UNL     1      51.622  -0.461  39.038  0.00  0.00    +0.000 C 
ATOM     40  C   UNL     1      46.531   0.025  45.611  0.00  0.00    +0.000 C 
ATOM     41  C   UNL     1      46.943  -6.574  44.747  0.00  0.00    +0.000 C 
ATOM     42  C   UNL     1      50.410   1.462  38.235  0.00  0.00    +0.000 C 
ATOM     43  C   UNL     1      46.826  -3.844  48.005  0.00  0.00    +0.000 A 
ATOM     44  C   UNL     1      45.246   1.111  46.282  0.00  0.00    +0.000 C 
ATOM     45  C   UNL     1      51.321  -0.640  40.488  0.00  0.00    +0.000 C 
ATOM     46  C   UNL     1      45.963  -7.363  45.573  0.00  0.00    +0.000 C 
ATOM     47  C   UNL     1      51.838 -10.277  41.018  0.00  0.00    +0.000 C 
ATOM     48  C   UNL     1      46.266  -2.104  46.705  0.00  0.00    +0.000 A 
ATOM     49  C   UNL     1      51.738  -8.481  42.727  0.00  0.00    +0.000 C 
ATOM     50  C   UNL     1      46.426  -5.467  45.401  0.00  0.00    +0.000 C 
ATOM     51  C   UNL     1      47.726   0.476  45.101  0.00  0.00    +0.000 C 
ATOM     52  C   UNL     1      49.905  -7.358  43.919  0.00  0.00    +0.000 C 
ATOM     53  C   UNL     1      47.289  -5.170  48.546  0.00  0.00    +0.000 C 
ATOM     54  C   UNL     1      46.656  -2.731  48.789  0.00  0.00    +0.000 A 
ATOM     55  C   UNL     1      48.667  -7.658  44.545  0.00  0.00    +0.000 C 
ATOM     56  C   UNL     1      49.657  -0.089  43.832  0.00  0.00    +0.000 C 
ATOM     57  C   UNL     1      52.640  -0.378  40.230  0.00  0.00    +0.000 C 
ATOM     58  C   UNL     1      45.031  -0.239  46.174  0.00  0.00    +0.000 C 
ATOM     59  C   UNL     1      51.820 -10.974  40.044  0.00  0.00    +0.000 C 
ATOM     60  C   UNL     1      50.575  -0.186  42.629  0.00  0.00    +0.000 C 
ATOM     61  C   UNL     1      47.725  -7.885  46.374  0.00  0.00    +0.000 C 
ATOM     62  C   UNL     1      52.192  -7.840  44.051  0.00  0.00    +0.000 C 
ATOM     63  C   UNL     1      50.800   0.623  43.986  0.00  0.00    +0.000 C 
ATOM     64  H   UNL     1      50.593  -7.344  40.830  0.00  0.00    +0.000 HD
ATOM     65  H   UNL     1      47.267  -3.770  44.753  0.00  0.00    +0.000 HD
ATOM     66  H   UNL     1      49.491  -1.000  41.153  0.00  0.00    +0.000 HD
ATOM     67  H   UNL     1      47.970  -1.150  43.983  0.00  0.00    +0.000 HD
ATOM     68  C   UNL     1      51.869  -8.879  37.632  0.00  0.00    +0.000 C 
ATOM     69  C   UNL     1      52.021 -10.293  37.673  0.00  0.00    +0.000 C 
ATOM     70  C   UNL     1      51.186 -10.828  38.767  0.00  0.00    +0.000 C 
ATOM     71  C   UNL     1      50.107  -4.589  34.385  0.00  0.00    +0.000 C 
ATOM     72  C   UNL     1      49.469  -5.737  34.162  0.00  0.00    +0.000 C 
ATOM     73  C   UNL     1      49.744  -3.240  34.355  0.00  0.00    +0.000 C 
ATOM     74  C   UNL     1      50.614   1.179  36.849  0.00  0.00    +0.000 C 
ATOM     75  C   UNL     1      51.144   2.379  37.303  0.00  0.00    +0.000 C 
ATOM     76  C   UNL     1      50.594   3.736  36.816  0.00  0.00    +0.000 C 
ATOM     77  C   UNL     1      51.342   2.385  38.671  0.00  0.00    +0.000 C 
ATOM     78  C   UNL     1      45.392  -8.836  45.833  0.00  0.00    +0.000 C 
ATOM     79  C   UNL     1      44.227  -9.331  46.243  0.00  0.00    +0.000 C 
ATOM     80  C   UNL     1      46.680  -8.766  46.364  0.00  0.00    +0.000 C 
ATOM     81  C   UNL     1      45.747   2.348  46.258  0.00  0.00    +0.000 C 
ATOM     82  C   UNL     1      44.969   3.532  46.730  0.00  0.00    +0.000 C 
ATOM     83  C   UNL     1      47.054   2.474  45.728  0.00  0.00    +0.000 C 
ENDROOT
BRANCH  69  84
ATOM     84  C   UNL     1      53.073 -11.036  37.086  0.00  0.00    +0.000 C 
ATOM     85  C   UNL     1      53.965 -11.672  36.593  0.00  0.00    +0.000 C 
BRANCH  85  86
ATOM     86  C   UNL     1      55.102 -12.485  35.967  0.00  0.00    +0.000 C 
ATOM     87  C   UNL     1      56.090 -13.197  35.427  0.00  0.00    +0.000 C 
ENDBRANCH  85  86
ENDBRANCH  69  84
BRANCH  13  88
ATOM     88  C   UNL     1      50.553  -5.687  38.706  0.00  0.00    +0.000 C 
BRANCH  88  89
ATOM     89  O   UNL     1      49.609  -4.824  39.056  0.00  0.00    +0.000 OA
ATOM     90  H   UNL     1      49.882  -4.336  39.853  0.00  0.00    +0.000 HD
ENDBRANCH  88  89
ENDBRANCH  13  88
TORSDOF 4
ENDMDL
MODEL 4
REMARK VINA RESULT:      -9.4     34.796     38.580
REMARK  Name = Cyclosporin_A.pdbqt.pdb
REMARK  4 active torsions:
REMARK  status: ('A' for Active; 'I' for Inactive)
REMARK    1  A    between atoms: N_13  and  C_36
REMARK    2  A    between atoms: C_36  and  O_70
REMARK    3  A    between atoms: C_72  and  C_73
REMARK    4  A    between atoms: C_75  and  C_76
REMARK                            x       y       z     vdW  Elec       q    Type
REMARK                         _______ _______ _______ _____ _____    ______ ____
ROOT
ATOM      1  O   UNL     1      34.829 -13.776  43.763  0.00  0.00    +0.000 OA
ATOM      2  O   UNL     1      33.099 -14.018  38.940  0.00  0.00    +0.000 OA
ATOM      3  O   UNL     1      37.119 -13.253  36.456  0.00  0.00    +0.000 OA
ATOM      4  O   UNL     1      38.521 -10.726  44.799  0.00  0.00    +0.000 OA
ATOM      5  O   UNL     1      35.056 -17.613  38.024  0.00  0.00    +0.000 OA
ATOM      6  O   UNL     1      45.490 -20.790  40.876  0.00  0.00    +0.000 OA
ATOM      7  O   UNL     1      38.554 -15.805  47.100  0.00  0.00    +0.000 OA
ATOM      8  O   UNL     1      45.643 -16.470  43.237  0.00  0.00    +0.000 OA
ATOM      9  O   UNL     1      42.187 -21.430  37.388  0.00  0.00    +0.000 OA
ATOM     10  O   UNL     1      42.900 -15.844  46.230  0.00  0.00    +0.000 OA
ATOM     11  O   UNL     1      38.191 -20.527  38.738  0.00  0.00    +0.000 OA
ATOM     12  N   UNL     1      34.394 -13.662  40.335  0.00  0.00    +0.000 NA
ATOM     13  N   UNL     1      36.554 -12.809  42.393  0.00  0.00    +0.000 NA
ATOM     14  N   UNL     1      35.358 -13.711  37.248  0.00  0.00    +0.000 NA
ATOM     15  N   UNL     1      36.934 -16.419  36.701  0.00  0.00    +0.000 NA
ATOM     16  N   UNL     1      38.845 -13.116  44.435  0.00  0.00    +0.000 NA
ATOM     17  N   UNL     1      44.686 -19.237  39.299  0.00  0.00    +0.000 N 
ATOM     18  N   UNL     1      44.122 -17.648  41.905  0.00  0.00    +0.000 N 
ATOM     19  N   UNL     1      43.118 -16.613  44.427  0.00  0.00    +0.000 NA
ATOM     20  N   UNL     1      39.460 -16.045  45.027  0.00  0.00    +0.000 NA
ATOM     21  N   UNL     1      38.528 -18.071  38.604  0.00  0.00    +0.000 NA
ATOM     22  N   UNL     1      41.631 -19.700  38.979  0.00  0.00    +0.000 NA
ATOM     23  C   UNL     1      34.490 -14.137  41.610  0.00  0.00    +0.000 C 
ATOM     24  C   UNL     1      35.523 -13.542  38.563  0.00  0.00    +0.000 C 
ATOM     25  C   UNL     1      36.986 -11.870  43.310  0.00  0.00    +0.000 C 
ATOM     26  C   UNL     1      33.425 -14.686  42.301  0.00  0.00    +0.000 C 
ATOM     27  C   UNL     1      36.099 -12.179  38.499  0.00  0.00    +0.000 C 
ATOM     28  C   UNL     1      35.371 -13.548  42.494  0.00  0.00    +0.000 C 
ATOM     29  C   UNL     1      34.377 -14.098  39.022  0.00  0.00    +0.000 C 
ATOM     30  C   UNL     1      36.068 -15.486  36.413  0.00  0.00    +0.000 C 
ATOM     31  C   UNL     1      36.511 -14.302  36.923  0.00  0.00    +0.000 C 
ATOM     32  C   UNL     1      38.324 -11.888  43.973  0.00  0.00    +0.000 C 
ATOM     33  C   UNL     1      32.370 -14.445  41.368  0.00  0.00    +0.000 C 
ATOM     34  C   UNL     1      33.559 -14.292  43.591  0.00  0.00    +0.000 C 
ATOM     35  C   UNL     1      33.053 -13.987  40.252  0.00  0.00    +0.000 C 
ATOM     36  C   UNL     1      35.978 -12.505  36.822  0.00  0.00    +0.000 C 
ATOM     37  C   UNL     1      38.616 -13.670  45.720  0.00  0.00    +0.000 C 
ATOM     38  C   UNL     1      44.740 -18.868  41.795  0.00  0.00    +0.000 A 
ATOM     39  C   UNL     1      36.263 -16.927  37.730  0.00  0.00    +0.000 C 
ATOM     40  C   UNL     1      43.922 -20.110  38.483  0.00  0.00    +0.000 C 
ATOM     41  C   UNL     1      43.780 -15.800  43.569  0.00  0.00    +0.000 C 
ATOM     42  C   UNL     1      36.698 -17.016  35.361  0.00  0.00    +0.000 C 
ATOM     43  C   UNL     1      45.276 -19.709  42.817  0.00  0.00    +0.000 A 
ATOM     44  C   UNL     1      45.256 -20.756  37.440  0.00  0.00    +0.000 C 
ATOM     45  C   UNL     1      37.279 -17.765  38.430  0.00  0.00    +0.000 C 
ATOM     46  C   UNL     1      45.117 -15.580  44.224  0.00  0.00    +0.000 C 
ATOM     47  C   UNL     1      38.059 -12.741  46.650  0.00  0.00    +0.000 C 
ATOM     48  C   UNL     1      44.918 -19.570  40.607  0.00  0.00    +0.000 A 
ATOM     49  C   UNL     1      38.841 -14.988  45.948  0.00  0.00    +0.000 C 
ATOM     50  C   UNL     1      44.446 -16.728  42.785  0.00  0.00    +0.000 C 
ATOM     51  C   UNL     1      42.597 -20.441  38.324  0.00  0.00    +0.000 C 
ATOM     52  C   UNL     1      40.905 -15.832  44.913  0.00  0.00    +0.000 C 
ATOM     53  C   UNL     1      45.289 -19.502  44.308  0.00  0.00    +0.000 C 
ATOM     54  C   UNL     1      45.712 -20.862  42.217  0.00  0.00    +0.000 A 
ATOM     55  C   UNL     1      42.312 -15.657  44.987  0.00  0.00    +0.000 C 
ATOM     56  C   UNL     1      40.356 -19.902  38.909  0.00  0.00    +0.000 C 
ATOM     57  C   UNL     1      35.996 -18.215  38.586  0.00  0.00    +0.000 C 
ATOM     58  C   UNL     1      45.517 -19.814  38.402  0.00  0.00    +0.000 C 
ATOM     59  C   UNL     1      37.645 -11.622  46.759  0.00  0.00    +0.000 C 
ATOM     60  C   UNL     1      38.967 -19.309  38.773  0.00  0.00    +0.000 C 
ATOM     61  C   UNL     1      44.074 -16.507  45.663  0.00  0.00    +0.000 C 
ATOM     62  C   UNL     1      39.068 -16.489  46.206  0.00  0.00    +0.000 C 
ATOM     63  C   UNL     1      39.388 -20.848  38.826  0.00  0.00    +0.000 C 
ATOM     64  H   UNL     1      38.737 -13.850  43.735  0.00  0.00    +0.000 HD
ATOM     65  H   UNL     1      43.230 -17.553  41.426  0.00  0.00    +0.000 HD
ATOM     66  H   UNL     1      39.217 -17.367  38.352  0.00  0.00    +0.000 HD
ATOM     67  H   UNL     1      41.977 -18.774  39.213  0.00  0.00    +0.000 HD
ATOM     68  C   UNL     1      36.164 -11.106  43.976  0.00  0.00    +0.000 C 
ATOM     69  C   UNL     1      36.194 -10.370  45.193  0.00  0.00    +0.000 C 
ATOM     70  C   UNL     1      37.520 -10.547  45.820  0.00  0.00    +0.000 C 
ATOM     71  C   UNL     1      35.585 -10.593  38.367  0.00  0.00    +0.000 C 
ATOM     72  C   UNL     1      36.128  -9.530  38.956  0.00  0.00    +0.000 C 
ATOM     73  C   UNL     1      35.746 -11.222  37.129  0.00  0.00    +0.000 C 
ATOM     74  C   UNL     1      35.843 -15.920  35.027  0.00  0.00    +0.000 C 
ATOM     75  C   UNL     1      35.504 -17.142  34.462  0.00  0.00    +0.000 C 
ATOM     76  C   UNL     1      35.591 -17.375  32.939  0.00  0.00    +0.000 C 
ATOM     77  C   UNL     1      36.034 -18.212  35.158  0.00  0.00    +0.000 C 
ATOM     78  C   UNL     1      45.882 -14.703  45.323  0.00  0.00    +0.000 C 
ATOM     79  C   UNL     1      47.135 -14.285  45.482  0.00  0.00    +0.000 C 
ATOM     80  C   UNL     1      45.047 -15.604  45.986  0.00  0.00    +0.000 C 
ATOM     81  C   UNL     1      44.694 -21.641  36.614  0.00  0.00    +0.000 C 
ATOM     82  C   UNL     1      45.482 -22.385  35.588  0.00  0.00    +0.000 C 
ATOM     83  C   UNL     1      43.294 -21.810  36.750  0.00  0.00    +0.000 C 
ENDROOT
BRANCH  69  84
ATOM     84  C   UNL     1      35.069  -9.899  45.910  0.00  0.00    +0.000 C 
ATOM     85  C   UNL     1      34.112  -9.495  46.512  0.00  0.00    +0.000 C 
BRANCH  85  86
ATOM     86  C   UNL     1      32.890  -8.976  47.278  0.00  0.00    +0.000 C 
ATOM     87  C   UNL     1      31.828  -8.520  47.940  0.00  0.00    +0.000 C 
ENDBRANCH  85  86
ENDBRANCH  69  84
BRANCH  13  88
ATOM     88  C   UNL     1      37.521 -13.257  41.405  0.00  0.00    +0.000 C 
BRANCH  88  89
ATOM     89  O   UNL     1      38.422 -13.657  40.518  0.00  0.00    +0.000 OA
ATOM     90  H   UNL     1      38.134 -14.490  40.104  0.00  0.00    +0.000 HD
ENDBRANCH  88  89
ENDBRANCH  13  88
TORSDOF 4
ENDMDL
MODEL 5
REMARK VINA RESULT:      -9.1     42.653     47.230
REMARK  Name = Cyclosporin_A.pdbqt.pdb
REMARK  4 active torsions:
REMARK  status: ('A' for Active; 'I' for Inactive)
REMARK    1  A    between atoms: N_13  and  C_36
REMARK    2  A    between atoms: C_36  and  O_70
REMARK    3  A    between atoms: C_72  and  C_73
REMARK    4  A    between atoms: C_75  and  C_76
REMARK                            x       y       z     vdW  Elec       q    Type
REMARK                         _______ _______ _______ _____ _____    ______ ____
ROOT
ATOM      1  O   UNL     1      37.365  12.897  53.834  0.00  0.00    +0.000 OA
ATOM      2  O   UNL     1      41.024  12.863  50.239  0.00  0.00    +0.000 OA
ATOM      3  O   UNL     1      38.696  14.750  46.506  0.00  0.00    +0.000 OA
ATOM      4  O   UNL     1      32.709  12.200  52.475  0.00  0.00    +0.000 OA
ATOM      5  O   UNL     1      41.447  17.034  50.103  0.00  0.00    +0.000 OA
ATOM      6  O   UNL     1      33.352  24.874  50.424  0.00  0.00    +0.000 OA
ATOM      7  O   UNL     1      33.796  16.104  56.305  0.00  0.00    +0.000 OA
ATOM      8  O   UNL     1      30.312  21.027  50.898  0.00  0.00    +0.000 OA
ATOM      9  O   UNL     1      37.798  24.133  48.645  0.00  0.00    +0.000 OA
ATOM     10  O   UNL     1      30.818  18.600  54.173  0.00  0.00    +0.000 OA
ATOM     11  O   UNL     1      39.915  21.038  50.776  0.00  0.00    +0.000 OA
ATOM     12  N   UNL     1      39.223  13.063  50.923  0.00  0.00    +0.000 NA
ATOM     13  N   UNL     1      36.233  13.219  51.736  0.00  0.00    +0.000 NA
ATOM     14  N   UNL     1      39.903  14.068  47.926  0.00  0.00    +0.000 NA
ATOM     15  N   UNL     1      40.077  17.243  47.915  0.00  0.00    +0.000 NA
ATOM     16  N   UNL     1      33.642  14.411  52.910  0.00  0.00    +0.000 NA
ATOM     17  N   UNL     1      34.039  23.379  48.740  0.00  0.00    +0.000 N 
ATOM     18  N   UNL     1      32.611  21.380  50.636  0.00  0.00    +0.000 N 
ATOM     19  N   UNL     1      31.800  19.616  52.797  0.00  0.00    +0.000 NA
ATOM     20  N   UNL     1      34.139  17.090  54.284  0.00  0.00    +0.000 NA
ATOM     21  N   UNL     1      38.666  19.198  49.671  0.00  0.00    +0.000 NA
ATOM     22  N   UNL     1      36.767  22.167  49.596  0.00  0.00    +0.000 NA
ATOM     23  C   UNL     1      38.767  13.325  52.182  0.00  0.00    +0.000 C 
ATOM     24  C   UNL     1      39.101  13.826  48.966  0.00  0.00    +0.000 C 
ATOM     25  C   UNL     1      35.076  12.539  52.067  0.00  0.00    +0.000 C 
ATOM     26  C   UNL     1      39.517  13.108  53.324  0.00  0.00    +0.000 C 
ATOM     27  C   UNL     1      38.100  13.014  48.238  0.00  0.00    +0.000 C 
ATOM     28  C   UNL     1      37.425  13.182  52.466  0.00  0.00    +0.000 C 
ATOM     29  C   UNL     1      40.022  13.606  49.934  0.00  0.00    +0.000 C 
ATOM     30  C   UNL     1      40.487  16.045  47.603  0.00  0.00    +0.000 C 
ATOM     31  C   UNL     1      39.404  15.226  47.485  0.00  0.00    +0.000 C 
ATOM     32  C   UNL     1      33.736  13.179  52.229  0.00  0.00    +0.000 C 
ATOM     33  C   UNL     1      40.665  12.475  52.755  0.00  0.00    +0.000 C 
ATOM     34  C   UNL     1      38.655  12.667  54.272  0.00  0.00    +0.000 C 
ATOM     35  C   UNL     1      40.446  12.624  51.394  0.00  0.00    +0.000 C 
ATOM     36  C   UNL     1      39.100  13.461  46.922  0.00  0.00    +0.000 C 
ATOM     37  C   UNL     1      33.468  14.563  54.309  0.00  0.00    +0.000 C 
ATOM     38  C   UNL     1      32.698  22.741  50.780  0.00  0.00    +0.000 A 
ATOM     39  C   UNL     1      40.347  17.157  49.214  0.00  0.00    +0.000 C 
ATOM     40  C   UNL     1      35.380  23.811  48.579  0.00  0.00    +0.000 C 
ATOM     41  C   UNL     1      31.329  19.421  51.541  0.00  0.00    +0.000 C 
ATOM     42  C   UNL     1      41.129  17.806  47.029  0.00  0.00    +0.000 C 
ATOM     43  C   UNL     1      32.170  23.581  51.808  0.00  0.00    +0.000 A 
ATOM     44  C   UNL     1      35.091  25.216  47.471  0.00  0.00    +0.000 C 
ATOM     45  C   UNL     1      39.591  18.298  49.806  0.00  0.00    +0.000 C 
ATOM     46  C   UNL     1      29.892  19.863  51.612  0.00  0.00    +0.000 C 
ATOM     47  C   UNL     1      33.082  13.358  54.969  0.00  0.00    +0.000 C 
ATOM     48  C   UNL     1      33.402  23.591  49.933  0.00  0.00    +0.000 A 
ATOM     49  C   UNL     1      33.751  15.746  54.910  0.00  0.00    +0.000 C 
ATOM     50  C   UNL     1      31.563  20.663  50.974  0.00  0.00    +0.000 C 
ATOM     51  C   UNL     1      36.628  23.396  48.980  0.00  0.00    +0.000 C 
ATOM     52  C   UNL     1      32.972  17.707  53.648  0.00  0.00    +0.000 C 
ATOM     53  C   UNL     1      31.391  23.200  53.038  0.00  0.00    +0.000 C 
ATOM     54  C   UNL     1      32.596  24.860  51.556  0.00  0.00    +0.000 A 
ATOM     55  C   UNL     1      31.766  18.307  53.202  0.00  0.00    +0.000 C 
ATOM     56  C   UNL     1      37.881  21.658  50.014  0.00  0.00    +0.000 C 
ATOM     57  C   UNL     1      40.713  17.958  50.513  0.00  0.00    +0.000 C 
ATOM     58  C   UNL     1      34.046  24.435  47.895  0.00  0.00    +0.000 C 
ATOM     59  C   UNL     1      32.878  12.190  54.794  0.00  0.00    +0.000 C 
ATOM     60  C   UNL     1      38.775  20.439  50.123  0.00  0.00    +0.000 C 
ATOM     61  C   UNL     1      30.443  19.864  53.540  0.00  0.00    +0.000 C 
ATOM     62  C   UNL     1      34.095  17.078  55.603  0.00  0.00    +0.000 C 
ATOM     63  C   UNL     1      39.077  21.935  50.588  0.00  0.00    +0.000 C 
ATOM     64  H   UNL     1      34.358  15.065  52.593  0.00  0.00    +0.000 HD
ATOM     65  H   UNL     1      33.485  20.890  50.465  0.00  0.00    +0.000 HD
ATOM     66  H   UNL     1      37.944  19.021  48.978  0.00  0.00    +0.000 HD
ATOM     67  H   UNL     1      35.995  21.550  49.360  0.00  0.00    +0.000 HD
ATOM     68  C   UNL     1      35.088  11.366  52.638  0.00  0.00    +0.000 C 
ATOM     69  C   UNL     1      34.194  10.596  53.433  0.00  0.00    +0.000 C 
ATOM     70  C   UNL     1      32.948  11.365  53.625  0.00  0.00    +0.000 C 
ATOM     71  C   UNL     1      37.886  11.439  47.717  0.00  0.00    +0.000 C 
ATOM     72  C   UNL     1      36.739  10.763  47.680  0.00  0.00    +0.000 C 
ATOM     73  C   UNL     1      38.594  12.227  46.805  0.00  0.00    +0.000 C 
ATOM     74  C   UNL     1      41.482  16.485  46.615  0.00  0.00    +0.000 C 
ATOM     75  C   UNL     1      42.525  17.398  46.665  0.00  0.00    +0.000 C 
ATOM     76  C   UNL     1      43.253  17.858  45.384  0.00  0.00    +0.000 C 
ATOM     77  C   UNL     1      42.249  18.471  47.491  0.00  0.00    +0.000 C 
ATOM     78  C   UNL     1      28.419  19.388  52.018  0.00  0.00    +0.000 C 
ATOM     79  C   UNL     1      27.189  19.692  51.610  0.00  0.00    +0.000 C 
ATOM     80  C   UNL     1      29.151  19.590  53.189  0.00  0.00    +0.000 C 
ATOM     81  C   UNL     1      36.285  25.768  47.243  0.00  0.00    +0.000 C 
ATOM     82  C   UNL     1      36.456  26.958  46.358  0.00  0.00    +0.000 C 
ATOM     83  C   UNL     1      37.387  25.136  47.869  0.00  0.00    +0.000 C 
ENDROOT
BRANCH  69  84
ATOM     84  C   UNL     1      34.543   9.496  54.252  0.00  0.00    +0.000 C 
ATOM     85  C   UNL     1      34.844   8.559  54.940  0.00  0.00    +0.000 C 
BRANCH  85  86
ATOM     86  C   UNL     1      35.228   7.360  55.814  0.00  0.00    +0.000 C 
ATOM     87  C   UNL     1      35.563   6.316  56.569  0.00  0.00    +0.000 C 
ENDBRANCH  85  86
ENDBRANCH  69  84
BRANCH  13  88
ATOM     88  C   UNL     1      36.120  14.255  50.722  0.00  0.00    +0.000 C 
BRANCH  88  89
ATOM     89  O   UNL     1      36.021  15.217  49.815  0.00  0.00    +0.000 OA
ATOM     90  H   UNL     1      35.229  15.076  49.266  0.00  0.00    +0.000 HD
ENDBRANCH  88  89
ENDBRANCH  13  88
TORSDOF 4
ENDMDL
MODEL 6
REMARK VINA RESULT:      -9.1     24.313     30.669
REMARK  Name = Cyclosporin_A.pdbqt.pdb
REMARK  4 active torsions:
REMARK  status: ('A' for Active; 'I' for Inactive)
REMARK    1  A    between atoms: N_13  and  C_36
REMARK    2  A    between atoms: C_36  and  O_70
REMARK    3  A    between atoms: C_72  and  C_73
REMARK    4  A    between atoms: C_75  and  C_76
REMARK                            x       y       z     vdW  Elec       q    Type
REMARK                         _______ _______ _______ _____ _____    ______ ____
ROOT
ATOM      1  O   UNL     1      45.427   5.578  13.156  0.00  0.00    +0.000 OA
ATOM      2  O   UNL     1      42.142   1.649  12.872  0.00  0.00    +0.000 OA
ATOM      3  O   UNL     1      38.052   3.910  11.836  0.00  0.00    +0.000 OA
ATOM      4  O   UNL     1      43.815   9.889  14.838  0.00  0.00    +0.000 OA
ATOM      5  O   UNL     1      41.553   1.957   8.730  0.00  0.00    +0.000 OA
ATOM      6  O   UNL     1      40.359  11.301   2.537  0.00  0.00    +0.000 OA
ATOM      7  O   UNL     1      47.236   9.873  10.435  0.00  0.00    +0.000 OA
ATOM      8  O   UNL     1      41.050  13.646   6.814  0.00  0.00    +0.000 OA
ATOM      9  O   UNL     1      39.013   6.647   2.616  0.00  0.00    +0.000 OA
ATOM     10  O   UNL     1      44.613  13.030   8.762  0.00  0.00    +0.000 OA
ATOM     11  O   UNL     1      41.641   4.228   5.033  0.00  0.00    +0.000 OA
ATOM     12  N   UNL     1      42.662   3.513  12.942  0.00  0.00    +0.000 NA
ATOM     13  N   UNL     1      43.227   6.547  13.263  0.00  0.00    +0.000 NA
ATOM     14  N   UNL     1      39.627   2.741  12.135  0.00  0.00    +0.000 NA
ATOM     15  N   UNL     1      39.260   3.130   9.000  0.00  0.00    +0.000 NA
ATOM     16  N   UNL     1      44.058   9.407  12.460  0.00  0.00    +0.000 NA
ATOM     17  N   UNL     1      38.915  10.206   4.041  0.00  0.00    +0.000 N 
ATOM     18  N   UNL     1      40.919  11.432   6.069  0.00  0.00    +0.000 N 
ATOM     19  N   UNL     1      43.204  12.118   7.726  0.00  0.00    +0.000 NA
ATOM     20  N   UNL     1      45.145   9.521   9.611  0.00  0.00    +0.000 NA
ATOM     21  N   UNL     1      40.667   5.022   7.175  0.00  0.00    +0.000 NA
ATOM     22  N   UNL     1      40.107   7.400   4.633  0.00  0.00    +0.000 NA
ATOM     23  C   UNL     1      43.845   4.124  12.643  0.00  0.00    +0.000 C 
ATOM     24  C   UNL     1      40.626   3.583  12.416  0.00  0.00    +0.000 C 
ATOM     25  C   UNL     1      43.548   7.591  14.108  0.00  0.00    +0.000 C 
ATOM     26  C   UNL     1      45.057   3.459  12.601  0.00  0.00    +0.000 C 
ATOM     27  C   UNL     1      39.925   4.351  13.469  0.00  0.00    +0.000 C 
ATOM     28  C   UNL     1      44.043   5.441  13.004  0.00  0.00    +0.000 C 
ATOM     29  C   UNL     1      41.678   2.732  12.363  0.00  0.00    +0.000 C 
ATOM     30  C   UNL     1      39.122   2.487  10.127  0.00  0.00    +0.000 C 
ATOM     31  C   UNL     1      39.019   3.394  11.140  0.00  0.00    +0.000 C 
ATOM     32  C   UNL     1      43.535   9.033  13.716  0.00  0.00    +0.000 C 
ATOM     33  C   UNL     1      44.652   2.169  13.065  0.00  0.00    +0.000 C 
ATOM     34  C   UNL     1      45.983   4.316  13.097  0.00  0.00    +0.000 C 
ATOM     35  C   UNL     1      43.271   2.281  13.097  0.00  0.00    +0.000 C 
ATOM     36  C   UNL     1      38.644   3.326  12.979  0.00  0.00    +0.000 C 
ATOM     37  C   UNL     1      45.413   9.735  12.202  0.00  0.00    +0.000 C 
ATOM     38  C   UNL     1      40.911  11.599   4.708  0.00  0.00    +0.000 A 
ATOM     39  C   UNL     1      40.577   2.973   8.904  0.00  0.00    +0.000 C 
ATOM     40  C   UNL     1      38.805   8.953   3.386  0.00  0.00    +0.000 C 
ATOM     41  C   UNL     1      41.949  12.427   8.130  0.00  0.00    +0.000 C 
ATOM     42  C   UNL     1      38.395   2.115   8.345  0.00  0.00    +0.000 C 
ATOM     43  C   UNL     1      41.792  12.362   3.882  0.00  0.00    +0.000 A 
ATOM     44  C   UNL     1      37.524   9.379   2.178  0.00  0.00    +0.000 C 
ATOM     45  C   UNL     1      40.975   3.970   7.869  0.00  0.00    +0.000 C 
ATOM     46  C   UNL     1      41.861  13.919   7.958  0.00  0.00    +0.000 C 
ATOM     47  C   UNL     1      46.178   9.963  13.385  0.00  0.00    +0.000 C 
ATOM     48  C   UNL     1      40.025  10.980   3.831  0.00  0.00    +0.000 A 
ATOM     49  C   UNL     1      45.892   9.724  10.933  0.00  0.00    +0.000 C 
ATOM     50  C   UNL     1      41.260  12.364   6.930  0.00  0.00    +0.000 C 
ATOM     51  C   UNL     1      39.344   7.695   3.519  0.00  0.00    +0.000 C 
ATOM     52  C   UNL     1      44.356  10.714   9.288  0.00  0.00    +0.000 C 
ATOM     53  C   UNL     1      42.997  13.174   4.274  0.00  0.00    +0.000 C 
ATOM     54  C   UNL     1      41.425  12.146   2.578  0.00  0.00    +0.000 A 
ATOM     55  C   UNL     1      43.756  11.959   8.970  0.00  0.00    +0.000 C 
ATOM     56  C   UNL     1      40.662   6.258   4.881  0.00  0.00    +0.000 C 
ATOM     57  C   UNL     1      41.797   2.878   7.922  0.00  0.00    +0.000 C 
ATOM     58  C   UNL     1      37.956  10.306   3.093  0.00  0.00    +0.000 C 
ATOM     59  C   UNL     1      46.127   9.940  14.582  0.00  0.00    +0.000 C 
ATOM     60  C   UNL     1      40.979   5.178   5.896  0.00  0.00    +0.000 C 
ATOM     61  C   UNL     1      43.811  13.561   7.661  0.00  0.00    +0.000 C 
ATOM     62  C   UNL     1      46.449   9.686   9.498  0.00  0.00    +0.000 C 
ATOM     63  C   UNL     1      41.288   5.190   4.331  0.00  0.00    +0.000 C 
ATOM     64  H   UNL     1      43.722   8.790  11.720  0.00  0.00    +0.000 HD
ATOM     65  H   UNL     1      40.872  10.472   6.403  0.00  0.00    +0.000 HD
ATOM     66  H   UNL     1      39.948   5.634   7.552  0.00  0.00    +0.000 HD
ATOM     67  H   UNL     1      39.888   8.025   5.403  0.00  0.00    +0.000 HD
ATOM     68  C   UNL     1      44.251   7.427  15.195  0.00  0.00    +0.000 C 
ATOM     69  C   UNL     1      45.061   8.242  16.034  0.00  0.00    +0.000 C 
ATOM     70  C   UNL     1      45.069   9.616  15.494  0.00  0.00    +0.000 C 
ATOM     71  C   UNL     1      39.576   4.234  15.101  0.00  0.00    +0.000 C 
ATOM     72  C   UNL     1      39.533   5.236  15.978  0.00  0.00    +0.000 C 
ATOM     73  C   UNL     1      38.634   3.594  14.291  0.00  0.00    +0.000 C 
ATOM     74  C   UNL     1      38.165   1.497   9.613  0.00  0.00    +0.000 C 
ATOM     75  C   UNL     1      38.186   0.641   8.521  0.00  0.00    +0.000 C 
ATOM     76  C   UNL     1      36.918  -0.112   8.065  0.00  0.00    +0.000 C 
ATOM     77  C   UNL     1      38.859   1.179   7.440  0.00  0.00    +0.000 C 
ATOM     78  C   UNL     1      42.209  15.318   8.655  0.00  0.00    +0.000 C 
ATOM     79  C   UNL     1      41.678  16.537   8.627  0.00  0.00    +0.000 C 
ATOM     80  C   UNL     1      43.399  14.747   8.203  0.00  0.00    +0.000 C 
ATOM     81  C   UNL     1      37.322   8.285   1.440  0.00  0.00    +0.000 C 
ATOM     82  C   UNL     1      36.320   8.245   0.334  0.00  0.00    +0.000 C 
ATOM     83  C   UNL     1      38.097   7.153   1.790  0.00  0.00    +0.000 C 
ENDROOT
BRANCH  69  84
ATOM     84  C   UNL     1      46.026   7.783  16.961  0.00  0.00    +0.000 C 
ATOM     85  C   UNL     1      46.839   7.388  17.753  0.00  0.00    +0.000 C 
BRANCH  85  86
ATOM     86  C   UNL     1      47.872   6.884  18.766  0.00  0.00    +0.000 C 
ATOM     87  C   UNL     1      48.771   6.441  19.643  0.00  0.00    +0.000 C 
ENDBRANCH  85  86
ENDBRANCH  69  84
BRANCH  13  88
ATOM     88  C   UNL     1      42.094   6.744  12.373  0.00  0.00    +0.000 C 
BRANCH  88  89
ATOM     89  O   UNL     1      41.058   6.947  11.571  0.00  0.00    +0.000 OA
ATOM     90  H   UNL     1      41.106   6.345  10.807  0.00  0.00    +0.000 HD
ENDBRANCH  88  89
ENDBRANCH  13  88
TORSDOF 4
ENDMDL
MODEL 7
REMARK VINA RESULT:      -9.1     40.295     45.810
REMARK  Name = Cyclosporin_A.pdbqt.pdb
REMARK  4 active torsions:
REMARK  status: ('A' for Active; 'I' for Inactive)
REMARK    1  A    between atoms: N_13  and  C_36
REMARK    2  A    between atoms: C_36  and  O_70
REMARK    3  A    between atoms: C_72  and  C_73
REMARK    4  A    between atoms: C_75  and  C_76
REMARK                            x       y       z     vdW  Elec       q    Type
REMARK                         _______ _______ _______ _____ _____    ______ ____
ROOT
ATOM      1  O   UNL     1      51.611   4.060  47.361  0.00  0.00    +0.000 OA
ATOM      2  O   UNL     1      47.879   0.888  48.887  0.00  0.00    +0.000 OA
ATOM      3  O   UNL     1      44.987   0.929  45.073  0.00  0.00    +0.000 OA
ATOM      4  O   UNL     1      50.466   7.825  44.443  0.00  0.00    +0.000 OA
ATOM      5  O   UNL     1      48.854  -2.162  46.177  0.00  0.00    +0.000 OA
ATOM      6  O   UNL     1      51.908  -1.167  35.371  0.00  0.00    +0.000 OA
ATOM      7  O   UNL     1      55.123   4.955  43.363  0.00  0.00    +0.000 OA
ATOM      8  O   UNL     1      51.541   3.673  36.212  0.00  0.00    +0.000 OA
ATOM      9  O   UNL     1      49.666  -4.237  38.375  0.00  0.00    +0.000 OA
ATOM     10  O   UNL     1      53.982   5.288  39.093  0.00  0.00    +0.000 OA
ATOM     11  O   UNL     1      50.707  -3.536  42.502  0.00  0.00    +0.000 OA
ATOM     12  N   UNL     1      48.725   2.192  47.732  0.00  0.00    +0.000 NA
ATOM     13  N   UNL     1      49.771   4.432  45.856  0.00  0.00    +0.000 NA
ATOM     14  N   UNL     1      46.073   0.649  46.710  0.00  0.00    +0.000 NA
ATOM     15  N   UNL     1      46.916  -1.550  44.573  0.00  0.00    +0.000 NA
ATOM     16  N   UNL     1      51.417   5.743  43.601  0.00  0.00    +0.000 NA
ATOM     17  N   UNL     1      49.833  -0.921  36.456  0.00  0.00    +0.000 N 
ATOM     18  N   UNL     1      51.213   1.689  37.410  0.00  0.00    +0.000 N 
ATOM     19  N   UNL     1      52.866   3.718  38.672  0.00  0.00    +0.000 NA
ATOM     20  N   UNL     1      53.428   3.801  42.379  0.00  0.00    +0.000 NA
ATOM     21  N   UNL     1      49.238  -1.545  42.702  0.00  0.00    +0.000 NA
ATOM     22  N   UNL     1      50.119  -2.065  39.329  0.00  0.00    +0.000 NA
ATOM     23  C   UNL     1      50.038   2.522  47.564  0.00  0.00    +0.000 C 
ATOM     24  C   UNL     1      47.065   1.539  46.616  0.00  0.00    +0.000 C 
ATOM     25  C   UNL     1      49.990   5.781  45.659  0.00  0.00    +0.000 C 
ATOM     26  C   UNL     1      51.018   2.247  48.501  0.00  0.00    +0.000 C 
ATOM     27  C   UNL     1      46.220   2.724  46.347  0.00  0.00    +0.000 C 
ATOM     28  C   UNL     1      50.372   3.656  46.853  0.00  0.00    +0.000 C 
ATOM     29  C   UNL     1      47.864   1.115  47.624  0.00  0.00    +0.000 C 
ATOM     30  C   UNL     1      46.259  -1.116  45.613  0.00  0.00    +0.000 C 
ATOM     31  C   UNL     1      46.004   0.213  45.449  0.00  0.00    +0.000 C 
ATOM     32  C   UNL     1      50.421   6.389  44.364  0.00  0.00    +0.000 C 
ATOM     33  C   UNL     1      50.213   1.728  49.562  0.00  0.00    +0.000 C 
ATOM     34  C   UNL     1      51.872   3.299  48.485  0.00  0.00    +0.000 C 
ATOM     35  C   UNL     1      48.965   1.622  48.968  0.00  0.00    +0.000 C 
ATOM     36  C   UNL     1      45.005   1.518  46.357  0.00  0.00    +0.000 C 
ATOM     37  C   UNL     1      52.813   5.951  43.733  0.00  0.00    +0.000 C 
ATOM     38  C   UNL     1      51.717   0.756  36.541  0.00  0.00    +0.000 A 
ATOM     39  C   UNL     1      48.118  -1.531  45.140  0.00  0.00    +0.000 C 
ATOM     40  C   UNL     1      49.696  -2.227  36.993  0.00  0.00    +0.000 C 
ATOM     41  C   UNL     1      51.644   4.039  38.182  0.00  0.00    +0.000 C 
ATOM     42  C   UNL     1      46.140  -2.815  44.643  0.00  0.00    +0.000 C 
ATOM     43  C   UNL     1      52.971   0.734  35.858  0.00  0.00    +0.000 A 
ATOM     44  C   UNL     1      49.039  -3.065  35.528  0.00  0.00    +0.000 C 
ATOM     45  C   UNL     1      49.054  -1.633  43.984  0.00  0.00    +0.000 C 
ATOM     46  C   UNL     1      51.940   4.835  36.940  0.00  0.00    +0.000 C 
ATOM     47  C   UNL     1      53.146   7.108  44.499  0.00  0.00    +0.000 C 
ATOM     48  C   UNL     1      51.083  -0.431  36.187  0.00  0.00    +0.000 A 
ATOM     49  C   UNL     1      53.691   5.045  43.233  0.00  0.00    +0.000 C 
ATOM     50  C   UNL     1      51.421   2.983  37.313  0.00  0.00    +0.000 C 
ATOM     51  C   UNL     1      49.874  -2.840  38.211  0.00  0.00    +0.000 C 
ATOM     52  C   UNL     1      53.074   4.192  41.012  0.00  0.00    +0.000 C 
ATOM     53  C   UNL     1      54.106   1.721  35.925  0.00  0.00    +0.000 C 
ATOM     54  C   UNL     1      53.046  -0.449  35.169  0.00  0.00    +0.000 A 
ATOM     55  C   UNL     1      52.900   4.647  39.679  0.00  0.00    +0.000 C 
ATOM     56  C   UNL     1      50.298  -2.515  40.529  0.00  0.00    +0.000 C 
ATOM     57  C   UNL     1      49.554  -2.162  45.142  0.00  0.00    +0.000 C 
ATOM     58  C   UNL     1      49.310  -1.721  35.499  0.00  0.00    +0.000 C 
ATOM     59  C   UNL     1      52.676   7.999  45.148  0.00  0.00    +0.000 C 
ATOM     60  C   UNL     1      50.003  -2.376  42.010  0.00  0.00    +0.000 C 
ATOM     61  C   UNL     1      53.748   4.666  37.791  0.00  0.00    +0.000 C 
ATOM     62  C   UNL     1      54.693   4.008  42.693  0.00  0.00    +0.000 C 
ATOM     63  C   UNL     1      50.834  -3.517  41.266  0.00  0.00    +0.000 C 
ATOM     64  H   UNL     1      51.237   4.741  43.530  0.00  0.00    +0.000 HD
ATOM     65  H   UNL     1      50.850   1.332  38.291  0.00  0.00    +0.000 HD
ATOM     66  H   UNL     1      48.580  -0.976  42.177  0.00  0.00    +0.000 HD
ATOM     67  H   UNL     1      49.783  -1.116  39.197  0.00  0.00    +0.000 HD
ATOM     68  C   UNL     1      50.217   6.609  46.642  0.00  0.00    +0.000 C 
ATOM     69  C   UNL     1      50.837   7.880  46.800  0.00  0.00    +0.000 C 
ATOM     70  C   UNL     1      51.324   8.336  45.482  0.00  0.00    +0.000 C 
ATOM     71  C   UNL     1      45.307   3.844  47.190  0.00  0.00    +0.000 C 
ATOM     72  C   UNL     1      45.173   5.138  46.903  0.00  0.00    +0.000 C 
ATOM     73  C   UNL     1      44.594   2.686  46.868  0.00  0.00    +0.000 C 
ATOM     74  C   UNL     1      45.356  -2.271  45.707  0.00  0.00    +0.000 C 
ATOM     75  C   UNL     1      45.575  -3.641  45.760  0.00  0.00    +0.000 C 
ATOM     76  C   UNL     1      44.418  -4.648  45.590  0.00  0.00    +0.000 C 
ATOM     77  C   UNL     1      46.681  -4.028  45.027  0.00  0.00    +0.000 C 
ATOM     78  C   UNL     1      52.311   6.298  36.408  0.00  0.00    +0.000 C 
ATOM     79  C   UNL     1      52.094   6.969  35.280  0.00  0.00    +0.000 C 
ATOM     80  C   UNL     1      53.434   5.767  37.044  0.00  0.00    +0.000 C 
ATOM     81  C   UNL     1      48.880  -4.347  35.866  0.00  0.00    +0.000 C 
ATOM     82  C   UNL     1      48.344  -5.362  34.911  0.00  0.00    +0.000 C 
ATOM     83  C   UNL     1      49.226  -4.681  37.198  0.00  0.00    +0.000 C 
ENDROOT
BRANCH  69  84
ATOM     84  C   UNL     1      51.295   8.438  48.016  0.00  0.00    +0.000 C 
ATOM     85  C   UNL     1      51.681   8.906  49.053  0.00  0.00    +0.000 C 
BRANCH  85  86
ATOM     86  C   UNL     1      52.169   9.501  50.378  0.00  0.00    +0.000 C 
ATOM     87  C   UNL     1      52.589  10.022  51.530  0.00  0.00    +0.000 C 
ENDBRANCH  85  86
ENDBRANCH  69  84
BRANCH  13  88
ATOM     88  C   UNL     1      49.090   3.713  44.792  0.00  0.00    +0.000 C 
BRANCH  88  89
ATOM     89  O   UNL     1      48.489   3.046  43.816  0.00  0.00    +0.000 OA
ATOM     90  H   UNL     1      48.521   2.090  43.997  0.00  0.00    +0.000 HD
ENDBRANCH  88  89
ENDBRANCH  13  88
TORSDOF 4
ENDMDL
MODEL 8
REMARK VINA RESULT:      -9.1     29.449     33.300
REMARK  Name = Cyclosporin_A.pdbqt.pdb
REMARK  4 active torsions:
REMARK  status: ('A' for Active; 'I' for Inactive)
REMARK    1  A    between atoms: N_13  and  C_36
REMARK    2  A    between atoms: C_36  and  O_70
REMARK    3  A    between atoms: C_72  and  C_73
REMARK    4  A    between atoms: C_75  and  C_76
REMARK                            x       y       z     vdW  Elec       q    Type
REMARK                         _______ _______ _______ _____ _____    ______ ____
ROOT
ATOM      1  O   UNL     1      36.214 -18.415  38.000  0.00  0.00    +0.000 OA
ATOM      2  O   UNL     1      38.447 -13.987  39.313  0.00  0.00    +0.000 OA
ATOM      3  O   UNL     1      34.844 -10.895  38.699  0.00  0.00    +0.000 OA
ATOM      4  O   UNL     1      32.783 -18.386  34.502  0.00  0.00    +0.000 OA
ATOM      5  O   UNL     1      36.227 -13.483  42.836  0.00  0.00    +0.000 OA
ATOM      6  O   UNL     1      25.251 -15.453  44.498  0.00  0.00    +0.000 OA
ATOM      7  O   UNL     1      31.935 -21.539  39.021  0.00  0.00    +0.000 OA
ATOM      8  O   UNL     1      25.303 -16.956  39.807  0.00  0.00    +0.000 OA
ATOM      9  O   UNL     1      28.841 -12.607  46.078  0.00  0.00    +0.000 OA
ATOM     10  O   UNL     1      27.738 -20.123  38.855  0.00  0.00    +0.000 OA
ATOM     11  O   UNL     1      32.731 -14.289  45.278  0.00  0.00    +0.000 OA
ATOM     12  N   UNL     1      37.047 -15.111  38.585  0.00  0.00    +0.000 NA
ATOM     13  N   UNL     1      34.773 -16.677  37.170  0.00  0.00    +0.000 NA
ATOM     14  N   UNL     1      36.442 -11.983  39.145  0.00  0.00    +0.000 NA
ATOM     15  N   UNL     1      34.654 -11.729  41.762  0.00  0.00    +0.000 NA
ATOM     16  N   UNL     1      32.245 -18.419  36.880  0.00  0.00    +0.000 NA
ATOM     17  N   UNL     1      26.395 -13.743  43.352  0.00  0.00    +0.000 N 
ATOM     18  N   UNL     1      26.828 -16.071  41.346  0.00  0.00    +0.000 N 
ATOM     19  N   UNL     1      27.645 -18.475  39.934  0.00  0.00    +0.000 NA
ATOM     20  N   UNL     1      31.250 -19.442  39.577  0.00  0.00    +0.000 NA
ATOM     21  N   UNL     1      32.682 -13.671  42.874  0.00  0.00    +0.000 NA
ATOM     22  N   UNL     1      29.397 -13.919  44.128  0.00  0.00    +0.000 NA
ATOM     23  C   UNL     1      36.755 -16.426  38.796  0.00  0.00    +0.000 C 
ATOM     24  C   UNL     1      36.148 -13.213  38.712  0.00  0.00    +0.000 C 
ATOM     25  C   UNL     1      34.345 -17.344  36.038  0.00  0.00    +0.000 C 
ATOM     26  C   UNL     1      37.669 -17.340  39.290  0.00  0.00    +0.000 C 
ATOM     27  C   UNL     1      35.735 -12.828  37.343  0.00  0.00    +0.000 C 
ATOM     28  C   UNL     1      35.849 -17.065  37.974  0.00  0.00    +0.000 C 
ATOM     29  C   UNL     1      37.166 -13.912  39.266  0.00  0.00    +0.000 C 
ATOM     30  C   UNL     1      35.643 -11.395  40.980  0.00  0.00    +0.000 C 
ATOM     31  C   UNL     1      35.276 -11.620  39.686  0.00  0.00    +0.000 C 
ATOM     32  C   UNL     1      32.945 -17.816  35.814  0.00  0.00    +0.000 C 
ATOM     33  C   UNL     1      38.843 -16.527  39.325  0.00  0.00    +0.000 C 
ATOM     34  C   UNL     1      37.432 -18.508  38.646  0.00  0.00    +0.000 C 
ATOM     35  C   UNL     1      38.346 -15.266  39.034  0.00  0.00    +0.000 C 
ATOM     36  C   UNL     1      36.011 -11.269  37.995  0.00  0.00    +0.000 C 
ATOM     37  C   UNL     1      32.263 -19.802  37.194  0.00  0.00    +0.000 C 
ATOM     38  C   UNL     1      26.097 -16.102  42.506  0.00  0.00    +0.000 A 
ATOM     39  C   UNL     1      35.142 -12.913  42.118  0.00  0.00    +0.000 C 
ATOM     40  C   UNL     1      27.147 -13.206  44.428  0.00  0.00    +0.000 C 
ATOM     41  C   UNL     1      27.177 -17.405  39.248  0.00  0.00    +0.000 C 
ATOM     42  C   UNL     1      34.974 -10.562  42.624  0.00  0.00    +0.000 C 
ATOM     43  C   UNL     1      25.359 -17.179  43.085  0.00  0.00    +0.000 A 
ATOM     44  C   UNL     1      25.878 -12.129  45.146  0.00  0.00    +0.000 C 
ATOM     45  C   UNL     1      33.968 -13.612  42.716  0.00  0.00    +0.000 C 
ATOM     46  C   UNL     1      25.806 -17.827  38.792  0.00  0.00    +0.000 C 
ATOM     47  C   UNL     1      32.808 -20.614  36.155  0.00  0.00    +0.000 C 
ATOM     48  C   UNL     1      25.980 -15.047  43.406  0.00  0.00    +0.000 A 
ATOM     49  C   UNL     1      31.871 -20.231  38.420  0.00  0.00    +0.000 C 
ATOM     50  C   UNL     1      26.507 -16.719  40.249  0.00  0.00    +0.000 C 
ATOM     51  C   UNL     1      28.437 -13.287  44.896  0.00  0.00    +0.000 C 
ATOM     52  C   UNL     1      29.859 -19.102  39.267  0.00  0.00    +0.000 C 
ATOM     53  C   UNL     1      25.199 -18.593  42.595  0.00  0.00    +0.000 C 
ATOM     54  C   UNL     1      24.871 -16.743  44.291  0.00  0.00    +0.000 A 
ATOM     55  C   UNL     1      28.481 -18.956  38.961  0.00  0.00    +0.000 C 
ATOM     56  C   UNL     1      30.643 -14.056  44.448  0.00  0.00    +0.000 C 
ATOM     57  C   UNL     1      35.169 -14.015  43.235  0.00  0.00    +0.000 C 
ATOM     58  C   UNL     1      25.613 -12.862  44.017  0.00  0.00    +0.000 C 
ATOM     59  C   UNL     1      33.327 -20.573  35.076  0.00  0.00    +0.000 C 
ATOM     60  C   UNL     1      32.094 -14.001  44.015  0.00  0.00    +0.000 C 
ATOM     61  C   UNL     1      26.571 -19.535  39.511  0.00  0.00    +0.000 C 
ATOM     62  C   UNL     1      31.454 -20.724  39.818  0.00  0.00    +0.000 C 
ATOM     63  C   UNL     1      31.504 -14.274  45.472  0.00  0.00    +0.000 C 
ATOM     64  H   UNL     1      32.350 -17.883  37.742  0.00  0.00    +0.000 HD
ATOM     65  H   UNL     1      27.774 -15.705  41.421  0.00  0.00    +0.000 HD
ATOM     66  H   UNL     1      32.107 -13.207  42.175  0.00  0.00    +0.000 HD
ATOM     67  H   UNL     1      29.129 -13.935  43.148  0.00  0.00    +0.000 HD
ATOM     68  C   UNL     1      35.164 -17.964  35.234  0.00  0.00    +0.000 C 
ATOM     69  C   UNL     1      35.075 -19.014  34.278  0.00  0.00    +0.000 C 
ATOM     70  C   UNL     1      33.675 -19.481  34.216  0.00  0.00    +0.000 C 
ATOM     71  C   UNL     1      36.431 -12.481  35.862  0.00  0.00    +0.000 C 
ATOM     72  C   UNL     1      35.943 -12.792  34.662  0.00  0.00    +0.000 C 
ATOM     73  C   UNL     1      36.344 -11.367  36.701  0.00  0.00    +0.000 C 
ATOM     74  C   UNL     1      35.976 -10.153  41.690  0.00  0.00    +0.000 C 
ATOM     75  C   UNL     1      36.242  -9.867  43.022  0.00  0.00    +0.000 C 
ATOM     76  C   UNL     1      36.304  -8.413  43.536  0.00  0.00    +0.000 C 
ATOM     77  C   UNL     1      35.522 -10.668  43.888  0.00  0.00    +0.000 C 
ATOM     78  C   UNL     1      25.021 -18.638  37.658  0.00  0.00    +0.000 C 
ATOM     79  C   UNL     1      23.811 -18.552  37.111  0.00  0.00    +0.000 C 
ATOM     80  C   UNL     1      25.671 -19.558  38.482  0.00  0.00    +0.000 C 
ATOM     81  C   UNL     1      26.431 -11.558  46.218  0.00  0.00    +0.000 C 
ATOM     82  C   UNL     1      25.688 -10.588  47.076  0.00  0.00    +0.000 C 
ATOM     83  C   UNL     1      27.779 -11.907  46.478  0.00  0.00    +0.000 C 
ENDROOT
BRANCH  69  84
ATOM     84  C   UNL     1      36.155 -19.777  33.776  0.00  0.00    +0.000 C 
ATOM     85  C   UNL     1      37.078 -20.419  33.353  0.00  0.00    +0.000 C 
BRANCH  85  86
ATOM     86  C   UNL     1      38.258 -21.235  32.815  0.00  0.00    +0.000 C 
ATOM     87  C   UNL     1      39.280 -21.947  32.343  0.00  0.00    +0.000 C 
ENDBRANCH  85  86
ENDBRANCH  69  84
BRANCH  13  88
ATOM     88  C   UNL     1      33.882 -15.666  37.715  0.00  0.00    +0.000 C 
BRANCH  88  89
ATOM     89  O   UNL     1      33.063 -14.737  38.190  0.00  0.00    +0.000 OA
ATOM     90  H   UNL     1      33.526 -14.192  38.851  0.00  0.00    +0.000 HD
ENDBRANCH  88  89
ENDBRANCH  13  88
TORSDOF 4
ENDMDL
MODEL 9
REMARK VINA RESULT:      -9.0     35.475     40.470
REMARK  Name = Cyclosporin_A.pdbqt.pdb
REMARK  4 active torsions:
REMARK  status: ('A' for Active; 'I' for Inactive)
REMARK    1  A    between atoms: N_13  and  C_36
REMARK    2  A    between atoms: C_36  and  O_70
REMARK    3  A    between atoms: C_72  and  C_73
REMARK    4  A    between atoms: C_75  and  C_76
REMARK                            x       y       z     vdW  Elec       q    Type
REMARK                         _______ _______ _______ _____ _____    ______ ____
ROOT
ATOM      1  O   UNL     1      53.937   2.676  30.402  0.00  0.00    +0.000 OA
ATOM      2  O   UNL     1      55.392  -2.242  30.315  0.00  0.00    +0.000 OA
ATOM      3  O   UNL     1      52.337  -4.074  27.118  0.00  0.00    +0.000 OA
ATOM      4  O   UNL     1      49.202   3.752  29.744  0.00  0.00    +0.000 OA
ATOM      5  O   UNL     1      56.957  -2.098  26.426  0.00  0.00    +0.000 OA
ATOM      6  O   UNL     1      52.682   3.108  17.386  0.00  0.00    +0.000 OA
ATOM      7  O   UNL     1      53.020   6.943  27.228  0.00  0.00    +0.000 OA
ATOM      8  O   UNL     1      49.168   4.595  20.501  0.00  0.00    +0.000 OA
ATOM      9  O   UNL     1      55.396  -0.723  18.583  0.00  0.00    +0.000 OA
ATOM     10  O   UNL     1      50.322   6.881  23.713  0.00  0.00    +0.000 OA
ATOM     11  O   UNL     1      57.189  -0.300  22.483  0.00  0.00    +0.000 OA
ATOM     12  N   UNL     1      54.246  -0.733  29.916  0.00  0.00    +0.000 NA
ATOM     13  N   UNL     1      52.143   1.475  29.340  0.00  0.00    +0.000 NA
ATOM     14  N   UNL     1      53.781  -3.534  28.368  0.00  0.00    +0.000 NA
ATOM     15  N   UNL     1      54.889  -3.270  25.399  0.00  0.00    +0.000 NA
ATOM     16  N   UNL     1      50.854   3.911  27.956  0.00  0.00    +0.000 NA
ATOM     17  N   UNL     1      52.050   1.148  18.528  0.00  0.00    +0.000 N 
ATOM     18  N   UNL     1      51.090   3.263  20.586  0.00  0.00    +0.000 N 
ATOM     19  N   UNL     1      50.840   5.324  22.618  0.00  0.00    +0.000 NA
ATOM     20  N   UNL     1      52.703   5.148  25.868  0.00  0.00    +0.000 NA
ATOM     21  N   UNL     1      55.084  -0.836  23.687  0.00  0.00    +0.000 NA
ATOM     22  N   UNL     1      54.357   0.385  20.461  0.00  0.00    +0.000 NA
ATOM     23  C   UNL     1      54.506   0.605  29.884  0.00  0.00    +0.000 C 
ATOM     24  C   UNL     1      53.499  -2.267  28.685  0.00  0.00    +0.000 C 
ATOM     25  C   UNL     1      51.113   2.259  29.821  0.00  0.00    +0.000 C 
ATOM     26  C   UNL     1      55.582   1.188  30.530  0.00  0.00    +0.000 C 
ATOM     27  C   UNL     1      52.084  -2.486  29.062  0.00  0.00    +0.000 C 
ATOM     28  C   UNL     1      53.462   1.503  29.806  0.00  0.00    +0.000 C 
ATOM     29  C   UNL     1      54.639  -1.921  29.327  0.00  0.00    +0.000 C 
ATOM     30  C   UNL     1      54.729  -3.878  26.541  0.00  0.00    +0.000 C 
ATOM     31  C   UNL     1      53.516  -3.532  27.058  0.00  0.00    +0.000 C 
ATOM     32  C   UNL     1      50.253   3.140  28.974  0.00  0.00    +0.000 C 
ATOM     33  C   UNL     1      56.099   0.054  31.229  0.00  0.00    +0.000 C 
ATOM     34  C   UNL     1      55.148   2.383  30.999  0.00  0.00    +0.000 C 
ATOM     35  C   UNL     1      55.351  -0.989  30.706  0.00  0.00    +0.000 C 
ATOM     36  C   UNL     1      52.471  -4.065  28.524  0.00  0.00    +0.000 C 
ATOM     37  C   UNL     1      51.382   5.217  28.122  0.00  0.00    +0.000 C 
ATOM     38  C   UNL     1      51.643   3.498  19.353  0.00  0.00    +0.000 A 
ATOM     39  C   UNL     1      55.671  -2.298  25.859  0.00  0.00    +0.000 C 
ATOM     40  C   UNL     1      53.236   0.390  18.362  0.00  0.00    +0.000 C 
ATOM     41  C   UNL     1      49.822   4.458  22.393  0.00  0.00    +0.000 C 
ATOM     42  C   UNL     1      55.546  -4.492  24.869  0.00  0.00    +0.000 C 
ATOM     43  C   UNL     1      51.915   4.740  18.702  0.00  0.00    +0.000 A 
ATOM     44  C   UNL     1      52.925  -0.258  16.699  0.00  0.00    +0.000 C 
ATOM     45  C   UNL     1      55.648  -1.283  24.766  0.00  0.00    +0.000 C 
ATOM     46  C   UNL     1      48.780   5.286  21.690  0.00  0.00    +0.000 C 
ATOM     47  C   UNL     1      50.986   5.840  29.344  0.00  0.00    +0.000 C 
ATOM     48  C   UNL     1      52.113   2.516  18.488  0.00  0.00    +0.000 A 
ATOM     49  C   UNL     1      52.248   5.727  27.211  0.00  0.00    +0.000 C 
ATOM     50  C   UNL     1      50.142   3.995  21.127  0.00  0.00    +0.000 C 
ATOM     51  C   UNL     1      54.339   0.065  19.116  0.00  0.00    +0.000 C 
ATOM     52  C   UNL     1      51.625   5.254  24.881  0.00  0.00    +0.000 C 
ATOM     53  C   UNL     1      51.695   6.142  19.202  0.00  0.00    +0.000 C 
ATOM     54  C   UNL     1      52.549   4.456  17.520  0.00  0.00    +0.000 A 
ATOM     55  C   UNL     1      50.594   5.541  23.949  0.00  0.00    +0.000 C 
ATOM     56  C   UNL     1      55.326   0.131  21.279  0.00  0.00    +0.000 C 
ATOM     57  C   UNL     1      56.804  -1.274  25.499  0.00  0.00    +0.000 C 
ATOM     58  C   UNL     1      51.998   0.539  17.321  0.00  0.00    +0.000 C 
ATOM     59  C   UNL     1      50.381   5.659  30.363  0.00  0.00    +0.000 C 
ATOM     60  C   UNL     1      55.756  -0.360  22.648  0.00  0.00    +0.000 C 
ATOM     61  C   UNL     1      50.108   6.667  22.282  0.00  0.00    +0.000 C 
ATOM     62  C   UNL     1      53.253   6.301  26.196  0.00  0.00    +0.000 C 
ATOM     63  C   UNL     1      56.673   0.059  21.411  0.00  0.00    +0.000 C 
ATOM     64  H   UNL     1      51.514   3.356  27.411  0.00  0.00    +0.000 HD
ATOM     65  H   UNL     1      51.599   2.624  21.192  0.00  0.00    +0.000 HD
ATOM     66  H   UNL     1      54.112  -1.090  23.531  0.00  0.00    +0.000 HD
ATOM     67  H   UNL     1      53.415   0.498  20.823  0.00  0.00    +0.000 HD
ATOM     68  C   UNL     1      51.022   2.611  31.074  0.00  0.00    +0.000 C 
ATOM     69  C   UNL     1      50.392   3.652  31.811  0.00  0.00    +0.000 C 
ATOM     70  C   UNL     1      49.664   4.526  30.868  0.00  0.00    +0.000 C 
ATOM     71  C   UNL     1      51.191  -3.006  30.378  0.00  0.00    +0.000 C 
ATOM     72  C   UNL     1      50.004  -2.542  30.766  0.00  0.00    +0.000 C 
ATOM     73  C   UNL     1      51.617  -4.053  29.556  0.00  0.00    +0.000 C 
ATOM     74  C   UNL     1      55.256  -5.174  26.091  0.00  0.00    +0.000 C 
ATOM     75  C   UNL     1      56.434  -5.547  25.459  0.00  0.00    +0.000 C 
ATOM     76  C   UNL     1      56.612  -6.959  24.860  0.00  0.00    +0.000 C 
ATOM     77  C   UNL     1      56.898  -4.578  24.590  0.00  0.00    +0.000 C 
ATOM     78  C   UNL     1      47.579   6.316  21.929  0.00  0.00    +0.000 C 
ATOM     79  C   UNL     1      46.455   6.613  21.282  0.00  0.00    +0.000 C 
ATOM     80  C   UNL     1      48.781   6.980  22.181  0.00  0.00    +0.000 C 
ATOM     81  C   UNL     1      53.994  -0.987  16.371  0.00  0.00    +0.000 C 
ATOM     82  C   UNL     1      54.104  -1.697  15.063  0.00  0.00    +0.000 C 
ATOM     83  C   UNL     1      55.009  -1.071  17.356  0.00  0.00    +0.000 C 
ENDROOT
BRANCH  69  84
ATOM     84  C   UNL     1      50.717   4.056  33.127  0.00  0.00    +0.000 C 
ATOM     85  C   UNL     1      50.993   4.391  34.247  0.00  0.00    +0.000 C 
BRANCH  85  86
ATOM     86  C   UNL     1      51.344   4.814  35.677  0.00  0.00    +0.000 C 
ATOM     87  C   UNL     1      51.644   5.184  36.921  0.00  0.00    +0.000 C 
ENDBRANCH  85  86
ENDBRANCH  69  84
BRANCH  13  88
ATOM     88  C   UNL     1      51.910   0.777  28.086  0.00  0.00    +0.000 C 
BRANCH  88  89
ATOM     89  O   UNL     1      51.719   0.129  26.945  0.00  0.00    +0.000 OA
ATOM     90  H   UNL     1      50.767  -0.014  26.799  0.00  0.00    +0.000 HD
ENDBRANCH  88  89
ENDBRANCH  13  88
TORSDOF 4
ENDMDL
