MODEL 1
REMARK VINA RESULT:      -6.5      0.000      0.000
REMARK  Name = Danazol.pdbqt.pdb
REMARK  2 active torsions:
REMARK  status: ('A' for Active; 'I' for Inactive)
REMARK    1  A    between atoms: C_9  and  O_23
REMARK    2  A    between atoms: C_9  and  C_25
REMARK                            x       y       z     vdW  Elec       q    Type
REMARK                         _______ _______ _______ _____ _____    ______ ____
ROOT
ATOM      1  O   UNL     1      38.799 -22.726  -7.153  0.00  0.00    +0.000 OA
ATOM      2  N   UNL     1      38.280 -23.603  -6.177  0.00  0.00    +0.000 NA
ATOM      3  C   UNL     1      42.138 -16.851  -3.648  0.00  0.00    +0.000 C 
ATOM      4  C   UNL     1      42.357 -16.967  -2.050  0.00  0.00    +0.000 C 
ATOM      5  C   UNL     1      42.049 -18.030  -4.531  0.00  0.00    +0.000 C 
ATOM      6  C   UNL     1      41.994 -19.468  -4.091  0.00  0.00    +0.000 C 
ATOM      7  C   UNL     1      42.040 -20.672  -5.062  0.00  0.00    +0.000 C 
ATOM      8  C   UNL     1      42.161 -18.392  -1.743  0.00  0.00    +0.000 C 
ATOM      9  C   UNL     1      41.248 -15.941  -1.431  0.00  0.00    +0.000 C 
ATOM     10  C   UNL     1      42.008 -19.569  -2.673  0.00  0.00    +0.000 C 
ATOM     11  C   UNL     1      41.426 -15.652  -3.936  0.00  0.00    +0.000 C 
ATOM     12  C   UNL     1      41.880 -17.889  -5.927  0.00  0.00    +0.000 C 
ATOM     13  C   UNL     1      40.936 -15.122  -2.620  0.00  0.00    +0.000 C 
ATOM     14  C   UNL     1      41.600 -20.326  -6.625  0.00  0.00    +0.000 C 
ATOM     15  C   UNL     1      43.848 -16.541  -1.790  0.00  0.00    +0.000 C 
ATOM     16  C   UNL     1      41.661 -18.952  -6.962  0.00  0.00    +0.000 C 
ATOM     17  C   UNL     1      41.044 -21.718  -4.632  0.00  0.00    +0.000 C 
ATOM     18  C   UNL     1      43.486 -21.243  -5.108  0.00  0.00    +0.000 C 
ATOM     19  C   UNL     1      40.629 -21.050  -7.137  0.00  0.00    +0.000 C 
ATOM     20  C   UNL     1      39.986 -22.424  -5.275  0.00  0.00    +0.000 A 
ATOM     21  C   UNL     1      39.805 -22.055  -6.580  0.00  0.00    +0.000 A 
ATOM     22  C   UNL     1      39.018 -23.401  -5.064  0.00  0.00    +0.000 A 
ENDROOT
BRANCH   9  23
ATOM     23  O   UNL     1      41.734 -15.086  -0.385  0.00  0.00    +0.000 OA
ATOM     24  H   UNL     1      41.625 -14.166  -0.682  0.00  0.00    +0.000 HD
ENDBRANCH   9  23
BRANCH   9  25
ATOM     25  C   UNL     1      40.048 -16.671  -0.953  0.00  0.00    +0.000 C 
ATOM     26  C   UNL     1      39.067 -17.236  -0.569  0.00  0.00    +0.000 C 
ENDBRANCH   9  25
TORSDOF 2
ENDMDL
MODEL 2
REMARK VINA RESULT:      -6.2     48.033     51.476
REMARK  Name = Danazol.pdbqt.pdb
REMARK  2 active torsions:
REMARK  status: ('A' for Active; 'I' for Inactive)
REMARK    1  A    between atoms: C_9  and  O_23
REMARK    2  A    between atoms: C_9  and  C_25
REMARK                            x       y       z     vdW  Elec       q    Type
REMARK                         _______ _______ _______ _____ _____    ______ ____
ROOT
ATOM      1  O   UNL     1      41.773  24.117  30.333  0.00  0.00    +0.000 OA
ATOM      2  N   UNL     1      42.556  23.916  31.490  0.00  0.00    +0.000 NA
ATOM      3  C   UNL     1      45.387  21.072  24.365  0.00  0.00    +0.000 C 
ATOM      4  C   UNL     1      46.671  20.138  24.673  0.00  0.00    +0.000 C 
ATOM      5  C   UNL     1      44.288  21.263  25.331  0.00  0.00    +0.000 C 
ATOM      6  C   UNL     1      44.256  20.769  26.752  0.00  0.00    +0.000 C 
ATOM      7  C   UNL     1      43.023  20.878  27.679  0.00  0.00    +0.000 C 
ATOM      8  C   UNL     1      46.580  19.829  26.108  0.00  0.00    +0.000 C 
ATOM      9  C   UNL     1      47.939  21.060  24.217  0.00  0.00    +0.000 C 
ATOM     10  C   UNL     1      45.463  20.096  27.085  0.00  0.00    +0.000 C 
ATOM     11  C   UNL     1      45.765  22.101  23.456  0.00  0.00    +0.000 C 
ATOM     12  C   UNL     1      43.169  22.069  25.018  0.00  0.00    +0.000 C 
ATOM     13  C   UNL     1      47.262  22.058  23.364  0.00  0.00    +0.000 C 
ATOM     14  C   UNL     1      41.921  22.041  27.242  0.00  0.00    +0.000 C 
ATOM     15  C   UNL     1      46.473  18.839  23.809  0.00  0.00    +0.000 C 
ATOM     16  C   UNL     1      42.021  22.469  25.896  0.00  0.00    +0.000 C 
ATOM     17  C   UNL     1      43.452  21.293  29.062  0.00  0.00    +0.000 C 
ATOM     18  C   UNL     1      42.269  19.518  27.697  0.00  0.00    +0.000 C 
ATOM     19  C   UNL     1      41.614  22.934  28.157  0.00  0.00    +0.000 C 
ATOM     20  C   UNL     1      43.069  22.324  29.968  0.00  0.00    +0.000 A 
ATOM     21  C   UNL     1      42.105  23.153  29.465  0.00  0.00    +0.000 A 
ATOM     22  C   UNL     1      43.317  22.828  31.241  0.00  0.00    +0.000 A 
ENDROOT
BRANCH   9  23
ATOM     23  O   UNL     1      48.935  20.376  23.441  0.00  0.00    +0.000 OA
ATOM     24  H   UNL     1      48.870  20.701  22.526  0.00  0.00    +0.000 HD
ENDBRANCH   9  23
BRANCH   9  25
ATOM     25  C   UNL     1      48.584  21.704  25.388  0.00  0.00    +0.000 C 
ATOM     26  C   UNL     1      49.120  22.235  26.314  0.00  0.00    +0.000 C 
ENDBRANCH   9  25
TORSDOF 2
ENDMDL
MODEL 3
REMARK VINA RESULT:      -6.0     26.027     29.232
REMARK  Name = Danazol.pdbqt.pdb
REMARK  2 active torsions:
REMARK  status: ('A' for Active; 'I' for Inactive)
REMARK    1  A    between atoms: C_9  and  O_23
REMARK    2  A    between atoms: C_9  and  C_25
REMARK                            x       y       z     vdW  Elec       q    Type
REMARK                         _______ _______ _______ _____ _____    ______ ____
ROOT
ATOM      1  O   UNL     1      25.294   7.766   5.513  0.00  0.00    +0.000 OA
ATOM      2  N   UNL     1      23.933   8.128   5.611  0.00  0.00    +0.000 NA
ATOM      3  C   UNL     1      25.802   0.176   5.239  0.00  0.00    +0.000 C 
ATOM      4  C   UNL     1      24.429  -0.653   5.032  0.00  0.00    +0.000 C 
ATOM      5  C   UNL     1      25.977   1.564   4.769  0.00  0.00    +0.000 C 
ATOM      6  C   UNL     1      24.906   2.447   4.188  0.00  0.00    +0.000 C 
ATOM      7  C   UNL     1      25.172   3.846   3.584  0.00  0.00    +0.000 C 
ATOM      8  C   UNL     1      23.448   0.345   4.580  0.00  0.00    +0.000 C 
ATOM      9  C   UNL     1      24.153  -1.317   6.498  0.00  0.00    +0.000 C 
ATOM     10  C   UNL     1      23.650   1.781   4.167  0.00  0.00    +0.000 C 
ATOM     11  C   UNL     1      26.467  -0.304   6.403  0.00  0.00    +0.000 C 
ATOM     12  C   UNL     1      27.200   2.249   4.947  0.00  0.00    +0.000 C 
ATOM     13  C   UNL     1      25.492  -1.197   7.112  0.00  0.00    +0.000 C 
ATOM     14  C   UNL     1      26.578   4.570   4.091  0.00  0.00    +0.000 C 
ATOM     15  C   UNL     1      24.726  -1.698   3.896  0.00  0.00    +0.000 C 
ATOM     16  C   UNL     1      27.532   3.680   4.641  0.00  0.00    +0.000 C 
ATOM     17  C   UNL     1      24.097   4.808   4.020  0.00  0.00    +0.000 C 
ATOM     18  C   UNL     1      25.247   3.735   2.035  0.00  0.00    +0.000 C 
ATOM     19  C   UNL     1      26.465   5.767   4.624  0.00  0.00    +0.000 C 
ATOM     20  C   UNL     1      24.086   6.094   4.635  0.00  0.00    +0.000 A 
ATOM     21  C   UNL     1      25.337   6.564   4.927  0.00  0.00    +0.000 A 
ATOM     22  C   UNL     1      23.236   7.106   5.070  0.00  0.00    +0.000 A 
ENDROOT
BRANCH   9  23
ATOM     23  O   UNL     1      23.769  -2.700   6.473  0.00  0.00    +0.000 OA
ATOM     24  H   UNL     1      22.882  -2.767   6.867  0.00  0.00    +0.000 HD
ENDBRANCH   9  23
BRANCH   9  25
ATOM     25  C   UNL     1      23.143  -0.540   7.259  0.00  0.00    +0.000 C 
ATOM     26  C   UNL     1      22.350   0.102   7.881  0.00  0.00    +0.000 C 
ENDBRANCH   9  25
TORSDOF 2
ENDMDL
MODEL 4
REMARK VINA RESULT:      -5.6      9.979     11.857
REMARK  Name = Danazol.pdbqt.pdb
REMARK  2 active torsions:
REMARK  status: ('A' for Active; 'I' for Inactive)
REMARK    1  A    between atoms: C_9  and  O_23
REMARK    2  A    between atoms: C_9  and  C_25
REMARK                            x       y       z     vdW  Elec       q    Type
REMARK                         _______ _______ _______ _____ _____    ______ ____
ROOT
ATOM      1  O   UNL     1      46.869 -31.436  -2.653  0.00  0.00    +0.000 OA
ATOM      2  N   UNL     1      48.166 -31.002  -2.304  0.00  0.00    +0.000 NA
ATOM      3  C   UNL     1      41.857 -28.318   2.153  0.00  0.00    +0.000 C 
ATOM      4  C   UNL     1      42.396 -27.149   3.132  0.00  0.00    +0.000 C 
ATOM      5  C   UNL     1      42.478 -28.618   0.848  0.00  0.00    +0.000 C 
ATOM      6  C   UNL     1      43.748 -28.018   0.309  0.00  0.00    +0.000 C 
ATOM      7  C   UNL     1      44.283 -28.264  -1.122  0.00  0.00    +0.000 C 
ATOM      8  C   UNL     1      43.687 -26.740   2.559  0.00  0.00    +0.000 C 
ATOM      9  C   UNL     1      42.457 -27.867   4.596  0.00  0.00    +0.000 C 
ATOM     10  C   UNL     1      44.325 -27.117   1.245  0.00  0.00    +0.000 C 
ATOM     11  C   UNL     1      41.244 -29.337   2.936  0.00  0.00    +0.000 C 
ATOM     12  C   UNL     1      41.965 -29.633   0.008  0.00  0.00    +0.000 C 
ATOM     13  C   UNL     1      41.586 -29.038   4.366  0.00  0.00    +0.000 C 
ATOM     14  C   UNL     1      43.705 -29.636  -1.856  0.00  0.00    +0.000 C 
ATOM     15  C   UNL     1      41.345 -25.984   3.026  0.00  0.00    +0.000 C 
ATOM     16  C   UNL     1      42.516 -30.153  -1.286  0.00  0.00    +0.000 C 
ATOM     17  C   UNL     1      45.773 -28.478  -1.085  0.00  0.00    +0.000 C 
ATOM     18  C   UNL     1      43.898 -27.062  -2.030  0.00  0.00    +0.000 C 
ATOM     19  C   UNL     1      44.603 -30.489  -2.300  0.00  0.00    +0.000 C 
ATOM     20  C   UNL     1      46.659 -29.480  -1.579  0.00  0.00    +0.000 A 
ATOM     21  C   UNL     1      46.014 -30.507  -2.212  0.00  0.00    +0.000 A 
ATOM     22  C   UNL     1      48.005 -29.823  -1.666  0.00  0.00    +0.000 A 
ENDROOT
BRANCH   9  23
ATOM     23  O   UNL     1      41.920 -27.086   5.675  0.00  0.00    +0.000 OA
ATOM     24  H   UNL     1      42.652 -26.878   6.281  0.00  0.00    +0.000 HD
ENDBRANCH   9  23
BRANCH   9  25
ATOM     25  C   UNL     1      43.840 -28.285   4.933  0.00  0.00    +0.000 C 
ATOM     26  C   UNL     1      44.947 -28.625   5.230  0.00  0.00    +0.000 C 
ENDBRANCH   9  25
TORSDOF 2
ENDMDL
MODEL 5
REMARK VINA RESULT:      -5.5     39.349     42.816
REMARK  Name = Danazol.pdbqt.pdb
REMARK  2 active torsions:
REMARK  status: ('A' for Active; 'I' for Inactive)
REMARK    1  A    between atoms: C_9  and  O_23
REMARK    2  A    between atoms: C_9  and  C_25
REMARK                            x       y       z     vdW  Elec       q    Type
REMARK                         _______ _______ _______ _____ _____    ______ ____
ROOT
ATOM      1  O   UNL     1      51.199  -5.578  39.685  0.00  0.00    +0.000 OA
ATOM      2  N   UNL     1      51.548  -6.939  39.556  0.00  0.00    +0.000 NA
ATOM      3  C   UNL     1      49.769  -2.742  32.767  0.00  0.00    +0.000 C 
ATOM      4  C   UNL     1      49.650  -3.793  31.544  0.00  0.00    +0.000 C 
ATOM      5  C   UNL     1      49.482  -3.108  34.167  0.00  0.00    +0.000 C 
ATOM      6  C   UNL     1      49.198  -4.493  34.684  0.00  0.00    +0.000 C 
ATOM      7  C   UNL     1      48.769  -4.803  36.137  0.00  0.00    +0.000 C 
ATOM      8  C   UNL     1      49.495  -5.107  32.187  0.00  0.00    +0.000 C 
ATOM      9  C   UNL     1      51.030  -3.565  30.702  0.00  0.00    +0.000 C 
ATOM     10  C   UNL     1      49.267  -5.453  33.637  0.00  0.00    +0.000 C 
ATOM     11  C   UNL     1      50.742  -1.755  32.442  0.00  0.00    +0.000 C 
ATOM     12  C   UNL     1      49.574  -2.156  35.208  0.00  0.00    +0.000 C 
ATOM     13  C   UNL     1      51.451  -2.244  31.214  0.00  0.00    +0.000 C 
ATOM     14  C   UNL     1      49.161  -3.633  37.246  0.00  0.00    +0.000 C 
ATOM     15  C   UNL     1      48.344  -3.397  30.763  0.00  0.00    +0.000 C 
ATOM     16  C   UNL     1      49.432  -2.360  36.687  0.00  0.00    +0.000 C 
ATOM     17  C   UNL     1      49.491  -6.027  36.637  0.00  0.00    +0.000 C 
ATOM     18  C   UNL     1      47.225  -4.987  36.192  0.00  0.00    +0.000 C 
ATOM     19  C   UNL     1      49.870  -4.019  38.284  0.00  0.00    +0.000 C 
ATOM     20  C   UNL     1      50.278  -6.332  37.785  0.00  0.00    +0.000 A 
ATOM     21  C   UNL     1      50.448  -5.264  38.623  0.00  0.00    +0.000 A 
ATOM     22  C   UNL     1      50.974  -7.363  38.409  0.00  0.00    +0.000 A 
ENDROOT
BRANCH   9  23
ATOM     23  O   UNL     1      50.863  -3.487  29.278  0.00  0.00    +0.000 OA
ATOM     24  H   UNL     1      51.750  -3.492  28.877  0.00  0.00    +0.000 HD
ENDBRANCH   9  23
BRANCH   9  25
ATOM     25  C   UNL     1      52.034  -4.610  31.023  0.00  0.00    +0.000 C 
ATOM     26  C   UNL     1      52.863  -5.434  31.272  0.00  0.00    +0.000 C 
ENDBRANCH   9  25
TORSDOF 2
ENDMDL
MODEL 6
REMARK VINA RESULT:      -5.4     48.874     51.179
REMARK  Name = Danazol.pdbqt.pdb
REMARK  2 active torsions:
REMARK  status: ('A' for Active; 'I' for Inactive)
REMARK    1  A    between atoms: C_9  and  O_23
REMARK    2  A    between atoms: C_9  and  C_25
REMARK                            x       y       z     vdW  Elec       q    Type
REMARK                         _______ _______ _______ _____ _____    ______ ____
ROOT
ATOM      1  O   UNL     1      51.599  20.980  25.453  0.00  0.00    +0.000 OA
ATOM      2  N   UNL     1      52.068  22.283  25.723  0.00  0.00    +0.000 NA
ATOM      3  C   UNL     1      44.035  20.870  26.305  0.00  0.00    +0.000 C 
ATOM      4  C   UNL     1      43.286  22.294  26.469  0.00  0.00    +0.000 C 
ATOM      5  C   UNL     1      45.322  20.720  25.597  0.00  0.00    +0.000 C 
ATOM      6  C   UNL     1      46.184  21.837  25.074  0.00  0.00    +0.000 C 
ATOM      7  C   UNL     1      47.456  21.621  24.220  0.00  0.00    +0.000 C 
ATOM      8  C   UNL     1      44.274  23.294  26.038  0.00  0.00    +0.000 C 
ATOM      9  C   UNL     1      42.869  22.332  28.047  0.00  0.00    +0.000 C 
ATOM     10  C   UNL     1      45.615  23.105  25.374  0.00  0.00    +0.000 C 
ATOM     11  C   UNL     1      43.687  20.030  27.400  0.00  0.00    +0.000 C 
ATOM     12  C   UNL     1      45.936  19.455  25.453  0.00  0.00    +0.000 C 
ATOM     13  C   UNL     1      42.981  20.900  28.397  0.00  0.00    +0.000 C 
ATOM     14  C   UNL     1      48.143  20.117  24.359  0.00  0.00    +0.000 C 
ATOM     15  C   UNL     1      42.065  22.253  25.479  0.00  0.00    +0.000 C 
ATOM     16  C   UNL     1      47.278  19.120  24.873  0.00  0.00    +0.000 C 
ATOM     17  C   UNL     1      48.546  22.556  24.674  0.00  0.00    +0.000 C 
ATOM     18  C   UNL     1      47.111  21.830  22.718  0.00  0.00    +0.000 C 
ATOM     19  C   UNL     1      49.411  20.078  24.706  0.00  0.00    +0.000 C 
ATOM     20  C   UNL     1      49.906  22.400  25.070  0.00  0.00    +0.000 A 
ATOM     21  C   UNL     1      50.323  21.096  25.067  0.00  0.00    +0.000 A 
ATOM     22  C   UNL     1      51.031  23.111  25.477  0.00  0.00    +0.000 A 
ENDROOT
BRANCH   9  23
ATOM     23  O   UNL     1      41.528  22.776  28.307  0.00  0.00    +0.000 OA
ATOM     24  H   UNL     1      41.489  23.727  28.104  0.00  0.00    +0.000 HD
ENDBRANCH   9  23
BRANCH   9  25
ATOM     25  C   UNL     1      43.821  23.153  28.835  0.00  0.00    +0.000 C 
ATOM     26  C   UNL     1      44.579  23.802  29.492  0.00  0.00    +0.000 C 
ENDBRANCH   9  25
TORSDOF 2
ENDMDL
MODEL 7
REMARK VINA RESULT:      -5.3     35.193     37.745
REMARK  Name = Danazol.pdbqt.pdb
REMARK  2 active torsions:
REMARK  status: ('A' for Active; 'I' for Inactive)
REMARK    1  A    between atoms: C_9  and  O_23
REMARK    2  A    between atoms: C_9  and  C_25
REMARK                            x       y       z     vdW  Elec       q    Type
REMARK                         _______ _______ _______ _____ _____    ______ ____
ROOT
ATOM      1  O   UNL     1      26.722 -17.433  29.242  0.00  0.00    +0.000 OA
ATOM      2  N   UNL     1      27.088 -18.522  28.422  0.00  0.00    +0.000 NA
ATOM      3  C   UNL     1      32.482 -15.875  33.969  0.00  0.00    +0.000 C 
ATOM      4  C   UNL     1      33.896 -16.605  33.682  0.00  0.00    +0.000 C 
ATOM      5  C   UNL     1      31.488 -15.611  32.910  0.00  0.00    +0.000 C 
ATOM      6  C   UNL     1      31.556 -16.096  31.487  0.00  0.00    +0.000 C 
ATOM      7  C   UNL     1      30.558 -15.677  30.382  0.00  0.00    +0.000 C 
ATOM      8  C   UNL     1      33.781 -17.129  32.312  0.00  0.00    +0.000 C 
ATOM      9  C   UNL     1      34.003 -17.720  34.869  0.00  0.00    +0.000 C 
ATOM     10  C   UNL     1      32.715 -16.891  31.273  0.00  0.00    +0.000 C 
ATOM     11  C   UNL     1      32.086 -16.135  35.312  0.00  0.00    +0.000 C 
ATOM     12  C   UNL     1      30.272 -14.949  33.194  0.00  0.00    +0.000 C 
ATOM     13  C   UNL     1      33.007 -17.200  35.829  0.00  0.00    +0.000 C 
ATOM     14  C   UNL     1      29.098 -15.115  30.936  0.00  0.00    +0.000 C 
ATOM     15  C   UNL     1      34.985 -15.474  33.757  0.00  0.00    +0.000 C 
ATOM     16  C   UNL     1      29.105 -14.692  32.288  0.00  0.00    +0.000 C 
ATOM     17  C   UNL     1      30.187 -16.872  29.543  0.00  0.00    +0.000 C 
ATOM     18  C   UNL     1      31.186 -14.546  29.520  0.00  0.00    +0.000 C 
ATOM     19  C   UNL     1      28.023 -15.720  30.481  0.00  0.00    +0.000 C 
ATOM     20  C   UNL     1      28.961 -17.473  29.133  0.00  0.00    +0.000 A 
ATOM     21  C   UNL     1      27.856 -16.841  29.635  0.00  0.00    +0.000 A 
ATOM     22  C   UNL     1      28.437 -18.514  28.372  0.00  0.00    +0.000 A 
ENDROOT
BRANCH   9  23
ATOM     23  O   UNL     1      35.284 -17.794  35.515  0.00  0.00    +0.000 OA
ATOM     24  H   UNL     1      35.248 -18.524  36.157  0.00  0.00    +0.000 HD
ENDBRANCH   9  23
BRANCH   9  25
ATOM     25  C   UNL     1      33.622 -19.067  34.378  0.00  0.00    +0.000 C 
ATOM     26  C   UNL     1      33.293 -20.152  33.999  0.00  0.00    +0.000 C 
ENDBRANCH   9  25
TORSDOF 2
ENDMDL
MODEL 8
REMARK VINA RESULT:      -5.3     10.720     12.988
REMARK  Name = Danazol.pdbqt.pdb
REMARK  2 active torsions:
REMARK  status: ('A' for Active; 'I' for Inactive)
REMARK    1  A    between atoms: C_9  and  O_23
REMARK    2  A    between atoms: C_9  and  C_25
REMARK                            x       y       z     vdW  Elec       q    Type
REMARK                         _______ _______ _______ _____ _____    ______ ____
ROOT
ATOM      1  O   UNL     1      47.230 -28.849   4.065  0.00  0.00    +0.000 OA
ATOM      2  N   UNL     1      47.129 -29.259   5.411  0.00  0.00    +0.000 NA
ATOM      3  C   UNL     1      40.226 -28.239   1.149  0.00  0.00    +0.000 C 
ATOM      4  C   UNL     1      38.982 -28.318   2.181  0.00  0.00    +0.000 C 
ATOM      5  C   UNL     1      41.570 -27.784   1.551  0.00  0.00    +0.000 C 
ATOM      6  C   UNL     1      42.025 -27.483   2.954  0.00  0.00    +0.000 C 
ATOM      7  C   UNL     1      43.405 -26.878   3.306  0.00  0.00    +0.000 C 
ATOM      8  C   UNL     1      39.581 -28.127   3.511  0.00  0.00    +0.000 C 
ATOM      9  C   UNL     1      38.333 -29.788   1.892  0.00  0.00    +0.000 C 
ATOM     10  C   UNL     1      40.983 -27.722   3.891  0.00  0.00    +0.000 C 
ATOM     11  C   UNL     1      40.045 -29.210   0.124  0.00  0.00    +0.000 C 
ATOM     12  C   UNL     1      42.628 -27.705   0.616  0.00  0.00    +0.000 C 
ATOM     13  C   UNL     1      38.914 -30.091   0.568  0.00  0.00    +0.000 C 
ATOM     14  C   UNL     1      44.573 -27.081   2.143  0.00  0.00    +0.000 C 
ATOM     15  C   UNL     1      38.043 -27.113   1.813  0.00  0.00    +0.000 C 
ATOM     16  C   UNL     1      44.072 -27.377   0.852  0.00  0.00    +0.000 C 
ATOM     17  C   UNL     1      43.978 -27.571   4.514  0.00  0.00    +0.000 C 
ATOM     18  C   UNL     1      43.254 -25.349   3.541  0.00  0.00    +0.000 C 
ATOM     19  C   UNL     1      45.689 -27.661   2.525  0.00  0.00    +0.000 C 
ATOM     20  C   UNL     1      45.216 -28.212   4.814  0.00  0.00    +0.000 A 
ATOM     21  C   UNL     1      46.084 -28.233   3.757  0.00  0.00    +0.000 A 
ATOM     22  C   UNL     1      45.911 -28.856   5.833  0.00  0.00    +0.000 A 
ENDROOT
BRANCH   9  23
ATOM     23  O   UNL     1      36.901 -29.806   1.792  0.00  0.00    +0.000 OA
ATOM     24  H   UNL     1      36.571 -30.477   2.416  0.00  0.00    +0.000 HD
ENDBRANCH   9  23
BRANCH   9  25
ATOM     25  C   UNL     1      38.769 -30.777   2.908  0.00  0.00    +0.000 C 
ATOM     26  C   UNL     1      39.120 -31.555   3.745  0.00  0.00    +0.000 C 
ENDBRANCH   9  25
TORSDOF 2
ENDMDL
MODEL 9
REMARK VINA RESULT:      -5.2     10.024     12.764
REMARK  Name = Danazol.pdbqt.pdb
REMARK  2 active torsions:
REMARK  status: ('A' for Active; 'I' for Inactive)
REMARK    1  A    between atoms: C_9  and  O_23
REMARK    2  A    between atoms: C_9  and  C_25
REMARK                            x       y       z     vdW  Elec       q    Type
REMARK                         _______ _______ _______ _____ _____    ______ ____
ROOT
ATOM      1  O   UNL     1      43.754 -29.376   6.728  0.00  0.00    +0.000 OA
ATOM      2  N   UNL     1      42.884 -30.463   6.954  0.00  0.00    +0.000 NA
ATOM      3  C   UNL     1      43.615 -27.617  -0.676  0.00  0.00    +0.000 C 
ATOM      4  C   UNL     1      42.471 -28.314  -1.583  0.00  0.00    +0.000 C 
ATOM      5  C   UNL     1      43.458 -27.391   0.774  0.00  0.00    +0.000 C 
ATOM      6  C   UNL     1      42.329 -27.889   1.634  0.00  0.00    +0.000 C 
ATOM      7  C   UNL     1      42.141 -27.509   3.122  0.00  0.00    +0.000 C 
ATOM      8  C   UNL     1      41.501 -28.855  -0.620  0.00  0.00    +0.000 C 
ATOM      9  C   UNL     1      43.295 -29.412  -2.467  0.00  0.00    +0.000 C 
ATOM     10  C   UNL     1      41.406 -28.657   0.872  0.00  0.00    +0.000 C 
ATOM     11  C   UNL     1      44.890 -27.872  -1.255  0.00  0.00    +0.000 C 
ATOM     12  C   UNL     1      44.470 -26.757   1.531  0.00  0.00    +0.000 C 
ATOM     13  C   UNL     1      44.675 -28.907  -2.319  0.00  0.00    +0.000 C 
ATOM     14  C   UNL     1      43.516 -26.978   3.886  0.00  0.00    +0.000 C 
ATOM     15  C   UNL     1      41.829 -27.154  -2.429  0.00  0.00    +0.000 C 
ATOM     16  C   UNL     1      44.542 -26.540   3.013  0.00  0.00    +0.000 C 
ATOM     17  C   UNL     1      41.735 -28.722   3.917  0.00  0.00    +0.000 C 
ATOM     18  C   UNL     1      41.087 -26.371   3.235  0.00  0.00    +0.000 C 
ATOM     19  C   UNL     1      43.864 -27.616   4.982  0.00  0.00    +0.000 C 
ATOM     20  C   UNL     1      42.215 -29.359   5.098  0.00  0.00    +0.000 A 
ATOM     21  C   UNL     1      43.320 -28.750   5.628  0.00  0.00    +0.000 A 
ATOM     22  C   UNL     1      41.969 -30.421   5.962  0.00  0.00    +0.000 A 
ENDROOT
BRANCH   9  23
ATOM     23  O   UNL     1      42.952 -29.445  -3.861  0.00  0.00    +0.000 OA
ATOM     24  H   UNL     1      43.768 -29.624  -4.360  0.00  0.00    +0.000 HD
ENDBRANCH   9  23
BRANCH   9  25
ATOM     25  C   UNL     1      43.158 -30.774  -1.894  0.00  0.00    +0.000 C 
ATOM     26  C   UNL     1      43.074 -31.876  -1.439  0.00  0.00    +0.000 C 
ENDBRANCH   9  25
TORSDOF 2
ENDMDL
