MODEL 1
REMARK VINA RESULT:      -6.1      0.000      0.000
REMARK  Name = Decitabine.pdbqt.pdb
REMARK  4 active torsions:
REMARK  status: ('A' for Active; 'I' for Inactive)
REMARK    1  A    between atoms: N_2  and  C1*_8
REMARK    2  A    between atoms: C4*_10  and  C5*_13
REMARK    3  A    between atoms: C3*_11  and  O3*_16
REMARK    4  A    between atoms: C5*_13  and  O5*_14
REMARK                            x       y       z     vdW  Elec       q    Type
REMARK                         _______ _______ _______ _____ _____    ______ ____
ROOT
ATOM      1  O   UNL     1      36.041   2.552  11.572  0.00  0.00    +0.000 OA
ATOM      2  N   UNL     1      36.814   0.964  13.069  0.00  0.00    +0.000 N 
ATOM      3  N   UNL     1      37.917   1.358  11.038  0.00  0.00    +0.000 NA
ATOM      4  N   UNL     1      38.715  -0.294  12.555  0.00  0.00    +0.000 NA
ATOM      5  C   UNL     1      36.857   1.689  11.882  0.00  0.00    +0.000 A 
ATOM      6  C   UNL     1      37.799   0.077  13.174  0.00  0.00    +0.000 A 
ATOM      7  C   UNL     1      38.780   0.437  11.381  0.00  0.00    +0.000 A 
ATOM      8  N   UNL     1      39.798   0.156  10.528  0.00  0.00    +0.000 N 
ATOM      9  H   UNL     1      40.168  -0.782  10.613  0.00  0.00    +0.000 HD
ATOM     10  H   UNL     1      39.620   0.459   9.578  0.00  0.00    +0.000 HD
ENDROOT
BRANCH   2  11
ATOM     11  C1* UNL     1      35.890   1.091  14.058  0.00  0.00    +0.000 A 
ATOM     12  O4* UNL     1      34.986   0.069  14.366  0.00  0.00    +0.000 OA
ATOM     13  C4* UNL     1      34.196   0.531  15.426  0.00  0.00    +0.000 A 
ATOM     14  C3* UNL     1      34.612   1.864  15.780  0.00  0.00    +0.000 A 
ATOM     15  C2* UNL     1      35.678   2.185  14.921  0.00  0.00    +0.000 A 
BRANCH  14  16
ATOM     16  O3* UNL     1      34.493   2.322  17.061  0.00  0.00    +0.000 OA
ATOM     17  H3* UNL     1      35.332   2.703  17.375  0.00  0.00    +0.000 HD
ENDBRANCH  14  16
BRANCH  13  18
ATOM     18  C5* UNL     1      33.289  -0.299  16.113  0.00  0.00    +0.000 C 
BRANCH  18  19
ATOM     19  O5* UNL     1      32.431  -1.079  16.764  0.00  0.00    +0.000 OA
ATOM     20  H5* UNL     1      31.553  -1.034  16.348  0.00  0.00    +0.000 HD
ENDBRANCH  18  19
ENDBRANCH  13  18
ENDBRANCH   2  11
TORSDOF 4
ENDMDL
MODEL 2
REMARK VINA RESULT:      -5.5     31.634     33.551
REMARK  Name = Decitabine.pdbqt.pdb
REMARK  4 active torsions:
REMARK  status: ('A' for Active; 'I' for Inactive)
REMARK    1  A    between atoms: N_2  and  C1*_8
REMARK    2  A    between atoms: C4*_10  and  C5*_13
REMARK    3  A    between atoms: C3*_11  and  O3*_16
REMARK    4  A    between atoms: C5*_13  and  O5*_14
REMARK                            x       y       z     vdW  Elec       q    Type
REMARK                         _______ _______ _______ _____ _____    ______ ____
ROOT
ATOM      1  O   UNL     1      21.541  -6.906  41.800  0.00  0.00    +0.000 OA
ATOM      2  N   UNL     1      19.800  -8.431  41.785  0.00  0.00    +0.000 N 
ATOM      3  N   UNL     1      20.771  -7.714  43.795  0.00  0.00    +0.000 NA
ATOM      4  N   UNL     1      18.995  -9.300  43.799  0.00  0.00    +0.000 NA
ATOM      5  C   UNL     1      20.757  -7.631  42.402  0.00  0.00    +0.000 A 
ATOM      6  C   UNL     1      19.075  -9.137  42.647  0.00  0.00    +0.000 A 
ATOM      7  C   UNL     1      19.928  -8.492  44.425  0.00  0.00    +0.000 A 
ATOM      8  N   UNL     1      19.978  -8.533  45.781  0.00  0.00    +0.000 N 
ATOM      9  H   UNL     1      19.638  -9.395  46.186  0.00  0.00    +0.000 HD
ATOM     10  H   UNL     1      20.858  -8.202  46.160  0.00  0.00    +0.000 HD
ENDROOT
BRANCH   2  11
ATOM     11  C1* UNL     1      19.577  -8.534  40.448  0.00  0.00    +0.000 A 
ATOM     12  O4* UNL     1      18.365  -8.150  39.865  0.00  0.00    +0.000 OA
ATOM     13  C4* UNL     1      18.484  -8.382  38.489  0.00  0.00    +0.000 A 
ATOM     14  C3* UNL     1      19.790  -8.926  38.212  0.00  0.00    +0.000 A 
ATOM     15  C2* UNL     1      20.456  -8.998  39.448  0.00  0.00    +0.000 A 
BRANCH  14  16
ATOM     16  O3* UNL     1      20.410  -8.695  37.018  0.00  0.00    +0.000 OA
ATOM     17  H3* UNL     1      21.093  -9.365  36.843  0.00  0.00    +0.000 HD
ENDBRANCH  14  16
BRANCH  13  18
ATOM     18  C5* UNL     1      17.516  -7.952  37.561  0.00  0.00    +0.000 C 
BRANCH  18  19
ATOM     19  O5* UNL     1      16.598  -7.547  36.688  0.00  0.00    +0.000 OA
ATOM     20  H5* UNL     1      17.017  -7.040  35.971  0.00  0.00    +0.000 HD
ENDBRANCH  18  19
ENDBRANCH  13  18
ENDBRANCH   2  11
TORSDOF 4
ENDMDL
MODEL 3
REMARK VINA RESULT:      -5.4     20.010     21.126
REMARK  Name = Decitabine.pdbqt.pdb
REMARK  4 active torsions:
REMARK  status: ('A' for Active; 'I' for Inactive)
REMARK    1  A    between atoms: N_2  and  C1*_8
REMARK    2  A    between atoms: C4*_10  and  C5*_13
REMARK    3  A    between atoms: C3*_11  and  O3*_16
REMARK    4  A    between atoms: C5*_13  and  O5*_14
REMARK                            x       y       z     vdW  Elec       q    Type
REMARK                         _______ _______ _______ _____ _____    ______ ____
ROOT
ATOM      1  O   UNL     1      50.342  -0.477  31.399  0.00  0.00    +0.000 OA
ATOM      2  N   UNL     1      48.952   0.099  29.639  0.00  0.00    +0.000 N 
ATOM      3  N   UNL     1      48.789  -1.994  30.682  0.00  0.00    +0.000 NA
ATOM      4  N   UNL     1      47.365  -1.430  28.860  0.00  0.00    +0.000 NA
ATOM      5  C   UNL     1      49.430  -0.756  30.627  0.00  0.00    +0.000 A 
ATOM      6  C   UNL     1      47.968  -0.433  28.920  0.00  0.00    +0.000 A 
ATOM      7  C   UNL     1      47.818  -2.280  29.854  0.00  0.00    +0.000 A 
ATOM      8  N   UNL     1      47.222  -3.496  29.952  0.00  0.00    +0.000 N 
ATOM      9  H   UNL     1      46.805  -3.828  29.092  0.00  0.00    +0.000 HD
ATOM     10  H   UNL     1      47.785  -4.180  30.444  0.00  0.00    +0.000 HD
ENDROOT
BRANCH   2  11
ATOM     11  C1* UNL     1      49.400   1.355  29.375  0.00  0.00    +0.000 A 
ATOM     12  O4* UNL     1      48.668   2.494  29.728  0.00  0.00    +0.000 OA
ATOM     13  C4* UNL     1      49.419   3.603  29.319  0.00  0.00    +0.000 A 
ATOM     14  C3* UNL     1      50.635   3.146  28.695  0.00  0.00    +0.000 A 
ATOM     15  C2* UNL     1      50.604   1.742  28.755  0.00  0.00    +0.000 A 
BRANCH  14  16
ATOM     16  O3* UNL     1      51.777   3.893  28.749  0.00  0.00    +0.000 OA
ATOM     17  H3* UNL     1      52.566   3.330  28.664  0.00  0.00    +0.000 HD
ENDBRANCH  14  16
BRANCH  13  18
ATOM     18  C5* UNL     1      49.071   4.923  29.663  0.00  0.00    +0.000 C 
BRANCH  18  19
ATOM     19  O5* UNL     1      48.747   6.171  29.989  0.00  0.00    +0.000 OA
ATOM     20  H5* UNL     1      47.793   6.237  30.163  0.00  0.00    +0.000 HD
ENDBRANCH  18  19
ENDBRANCH  13  18
ENDBRANCH   2  11
TORSDOF 4
ENDMDL
MODEL 4
REMARK VINA RESULT:      -5.3     20.652     21.945
REMARK  Name = Decitabine.pdbqt.pdb
REMARK  4 active torsions:
REMARK  status: ('A' for Active; 'I' for Inactive)
REMARK    1  A    between atoms: N_2  and  C1*_8
REMARK    2  A    between atoms: C4*_10  and  C5*_13
REMARK    3  A    between atoms: C3*_11  and  O3*_16
REMARK    4  A    between atoms: C5*_13  and  O5*_14
REMARK                            x       y       z     vdW  Elec       q    Type
REMARK                         _______ _______ _______ _____ _____    ______ ____
ROOT
ATOM      1  O   UNL     1      21.305 -13.561  23.870  0.00  0.00    +0.000 OA
ATOM      2  N   UNL     1      23.388 -12.629  24.263  0.00  0.00    +0.000 N 
ATOM      3  N   UNL     1      21.456 -11.303  24.197  0.00  0.00    +0.000 NA
ATOM      4  N   UNL     1      23.591 -10.322  24.581  0.00  0.00    +0.000 NA
ATOM      5  C   UNL     1      22.007 -12.580  24.095  0.00  0.00    +0.000 A 
ATOM      6  C   UNL     1      23.929 -11.435  24.485  0.00  0.00    +0.000 A 
ATOM      7  C   UNL     1      22.215 -10.265  24.438  0.00  0.00    +0.000 A 
ATOM      8  N   UNL     1      21.630  -9.045  24.534  0.00  0.00    +0.000 N 
ATOM      9  H   UNL     1      22.238  -8.270  24.307  0.00  0.00    +0.000 HD
ATOM     10  H   UNL     1      20.713  -9.005  24.106  0.00  0.00    +0.000 HD
ENDROOT
BRANCH   2  11
ATOM     11  C1* UNL     1      24.167 -13.742  24.212  0.00  0.00    +0.000 A 
ATOM     12  O4* UNL     1      25.141 -13.923  23.224  0.00  0.00    +0.000 OA
ATOM     13  C4* UNL     1      25.750 -15.158  23.476  0.00  0.00    +0.000 A 
ATOM     14  C3* UNL     1      25.142 -15.758  24.636  0.00  0.00    +0.000 A 
ATOM     15  C2* UNL     1      24.167 -14.849  25.084  0.00  0.00    +0.000 A 
BRANCH  14  16
ATOM     16  O3* UNL     1      25.854 -16.586  25.457  0.00  0.00    +0.000 OA
ATOM     17  H3* UNL     1      26.246 -16.092  26.197  0.00  0.00    +0.000 HD
ENDBRANCH  14  16
BRANCH  13  18
ATOM     18  C5* UNL     1      26.896 -15.594  22.782  0.00  0.00    +0.000 C 
BRANCH  18  19
ATOM     19  O5* UNL     1      27.978 -16.010  22.130  0.00  0.00    +0.000 OA
ATOM     20  H5* UNL     1      28.780 -15.775  22.626  0.00  0.00    +0.000 HD
ENDBRANCH  18  19
ENDBRANCH  13  18
ENDBRANCH   2  11
TORSDOF 4
ENDMDL
MODEL 5
REMARK VINA RESULT:      -5.3     19.579     21.959
REMARK  Name = Decitabine.pdbqt.pdb
REMARK  4 active torsions:
REMARK  status: ('A' for Active; 'I' for Inactive)
REMARK    1  A    between atoms: N_2  and  C1*_8
REMARK    2  A    between atoms: C4*_10  and  C5*_13
REMARK    3  A    between atoms: C3*_11  and  O3*_16
REMARK    4  A    between atoms: C5*_13  and  O5*_14
REMARK                            x       y       z     vdW  Elec       q    Type
REMARK                         _______ _______ _______ _____ _____    ______ ____
ROOT
ATOM      1  O   UNL     1      38.725 -13.595  -1.779  0.00  0.00    +0.000 OA
ATOM      2  N   UNL     1      40.253 -13.910  -0.068  0.00  0.00    +0.000 N 
ATOM      3  N   UNL     1      38.050 -13.242   0.377  0.00  0.00    +0.000 NA
ATOM      4  N   UNL     1      39.613 -13.541   2.149  0.00  0.00    +0.000 NA
ATOM      5  C   UNL     1      39.001 -13.589  -0.583  0.00  0.00    +0.000 A 
ATOM      6  C   UNL     1      40.311 -13.820   1.257  0.00  0.00    +0.000 A 
ATOM      7  C   UNL     1      38.357 -13.240   1.649  0.00  0.00    +0.000 A 
ATOM      8  N   UNL     1      37.395 -12.902   2.545  0.00  0.00    +0.000 N 
ATOM      9  H   UNL     1      37.747 -12.519   3.412  0.00  0.00    +0.000 HD
ATOM     10  H   UNL     1      36.628 -12.385   2.132  0.00  0.00    +0.000 HD
ENDROOT
BRANCH   2  11
ATOM     11  C1* UNL     1      41.348 -14.281  -0.784  0.00  0.00    +0.000 A 
ATOM     12  O4* UNL     1      42.205 -13.343  -1.369  0.00  0.00    +0.000 OA
ATOM     13  C4* UNL     1      43.217 -14.065  -2.014  0.00  0.00    +0.000 A 
ATOM     14  C3* UNL     1      42.983 -15.474  -1.832  0.00  0.00    +0.000 A 
ATOM     15  C2* UNL     1      41.819 -15.582  -1.050  0.00  0.00    +0.000 A 
BRANCH  14  16
ATOM     16  O3* UNL     1      44.020 -16.361  -1.790  0.00  0.00    +0.000 OA
ATOM     17  H3* UNL     1      43.740 -17.208  -1.401  0.00  0.00    +0.000 HD
ENDBRANCH  14  16
BRANCH  13  18
ATOM     18  C5* UNL     1      44.354 -13.445  -2.569  0.00  0.00    +0.000 C 
BRANCH  18  19
ATOM     19  O5* UNL     1      45.426 -12.856  -3.091  0.00  0.00    +0.000 OA
ATOM     20  H5* UNL     1      45.591 -12.006  -2.649  0.00  0.00    +0.000 HD
ENDBRANCH  18  19
ENDBRANCH  13  18
ENDBRANCH   2  11
TORSDOF 4
ENDMDL
MODEL 6
REMARK VINA RESULT:      -4.8      2.170      2.777
REMARK  Name = Decitabine.pdbqt.pdb
REMARK  4 active torsions:
REMARK  status: ('A' for Active; 'I' for Inactive)
REMARK    1  A    between atoms: N_2  and  C1*_8
REMARK    2  A    between atoms: C4*_10  and  C5*_13
REMARK    3  A    between atoms: C3*_11  and  O3*_16
REMARK    4  A    between atoms: C5*_13  and  O5*_14
REMARK                            x       y       z     vdW  Elec       q    Type
REMARK                         _______ _______ _______ _____ _____    ______ ____
ROOT
ATOM      1  O   UNL     1      37.825   2.629   9.695  0.00  0.00    +0.000 OA
ATOM      2  N   UNL     1      38.304   1.222  11.471  0.00  0.00    +0.000 N 
ATOM      3  N   UNL     1      39.088   0.761   9.310  0.00  0.00    +0.000 NA
ATOM      4  N   UNL     1      39.573  -0.709  11.118  0.00  0.00    +0.000 NA
ATOM      5  C   UNL     1      38.362   1.618  10.138  0.00  0.00    +0.000 A 
ATOM      6  C   UNL     1      38.953   0.086  11.706  0.00  0.00    +0.000 A 
ATOM      7  C   UNL     1      39.655  -0.313   9.794  0.00  0.00    +0.000 A 
ATOM      8  N   UNL     1      40.355  -1.111   8.948  0.00  0.00    +0.000 N 
ATOM      9  H   UNL     1      40.413  -2.078   9.237  0.00  0.00    +0.000 HD
ATOM     10  H   UNL     1      40.115  -0.971   7.974  0.00  0.00    +0.000 HD
ENDROOT
BRANCH   2  11
ATOM     11  C1* UNL     1      37.666   1.875  12.478  0.00  0.00    +0.000 A 
ATOM     12  O4* UNL     1      36.275   1.837  12.625  0.00  0.00    +0.000 OA
ATOM     13  C4* UNL     1      35.965   2.602  13.756  0.00  0.00    +0.000 A 
ATOM     14  C3* UNL     1      37.182   3.129  14.319  0.00  0.00    +0.000 A 
ATOM     15  C2* UNL     1      38.229   2.650  13.512  0.00  0.00    +0.000 A 
BRANCH  14  16
ATOM     16  O3* UNL     1      37.293   3.366  15.660  0.00  0.00    +0.000 OA
ATOM     17  H3* UNL     1      38.222   3.494  15.916  0.00  0.00    +0.000 HD
ENDBRANCH  14  16
BRANCH  13  18
ATOM     18  C5* UNL     1      34.670   2.648  14.308  0.00  0.00    +0.000 C 
BRANCH  18  19
ATOM     19  O5* UNL     1      33.449   2.690  14.833  0.00  0.00    +0.000 OA
ATOM     20  H5* UNL     1      33.041   3.557  14.668  0.00  0.00    +0.000 HD
ENDBRANCH  18  19
ENDBRANCH  13  18
ENDBRANCH   2  11
TORSDOF 4
ENDMDL
MODEL 7
REMARK VINA RESULT:      -4.8     22.760     23.798
REMARK  Name = Decitabine.pdbqt.pdb
REMARK  4 active torsions:
REMARK  status: ('A' for Active; 'I' for Inactive)
REMARK    1  A    between atoms: N_2  and  C1*_8
REMARK    2  A    between atoms: C4*_10  and  C5*_13
REMARK    3  A    between atoms: C3*_11  and  O3*_16
REMARK    4  A    between atoms: C5*_13  and  O5*_14
REMARK                            x       y       z     vdW  Elec       q    Type
REMARK                         _______ _______ _______ _____ _____    ______ ____
ROOT
ATOM      1  O   UNL     1      51.763  -3.217  33.586  0.00  0.00    +0.000 OA
ATOM      2  N   UNL     1      49.762  -4.165  32.911  0.00  0.00    +0.000 N 
ATOM      3  N   UNL     1      50.703  -4.670  34.998  0.00  0.00    +0.000 NA
ATOM      4  N   UNL     1      48.655  -5.672  34.313  0.00  0.00    +0.000 NA
ATOM      5  C   UNL     1      50.809  -3.957  33.803  0.00  0.00    +0.000 A 
ATOM      6  C   UNL     1      48.851  -5.020  33.366  0.00  0.00    +0.000 A 
ATOM      7  C   UNL     1      49.680  -5.455  35.218  0.00  0.00    +0.000 A 
ATOM      8  N   UNL     1      49.621  -6.122  36.398  0.00  0.00    +0.000 N 
ATOM      9  H   UNL     1      49.089  -6.982  36.366  0.00  0.00    +0.000 HD
ATOM     10  H   UNL     1      50.518  -6.193  36.864  0.00  0.00    +0.000 HD
ENDROOT
BRANCH   2  11
ATOM     11  C1* UNL     1      49.623  -3.595  31.685  0.00  0.00    +0.000 A 
ATOM     12  O4* UNL     1      48.505  -2.825  31.346  0.00  0.00    +0.000 OA
ATOM     13  C4* UNL     1      48.693  -2.394  30.027  0.00  0.00    +0.000 A 
ATOM     14  C3* UNL     1      49.945  -2.910  29.535  0.00  0.00    +0.000 A 
ATOM     15  C2* UNL     1      50.511  -3.644  30.592  0.00  0.00    +0.000 A 
BRANCH  14  16
ATOM     16  O3* UNL     1      50.669  -2.227  28.600  0.00  0.00    +0.000 OA
ATOM     17  H3* UNL     1      50.257  -1.370  28.396  0.00  0.00    +0.000 HD
ENDBRANCH  14  16
BRANCH  13  18
ATOM     18  C5* UNL     1      47.846  -1.454  29.408  0.00  0.00    +0.000 C 
BRANCH  18  19
ATOM     19  O5* UNL     1      47.049  -0.566  28.820  0.00  0.00    +0.000 OA
ATOM     20  H5* UNL     1      46.984  -0.752  27.868  0.00  0.00    +0.000 HD
ENDBRANCH  18  19
ENDBRANCH  13  18
ENDBRANCH   2  11
TORSDOF 4
ENDMDL
MODEL 8
REMARK VINA RESULT:      -4.8     21.354     23.918
REMARK  Name = Decitabine.pdbqt.pdb
REMARK  4 active torsions:
REMARK  status: ('A' for Active; 'I' for Inactive)
REMARK    1  A    between atoms: N_2  and  C1*_8
REMARK    2  A    between atoms: C4*_10  and  C5*_13
REMARK    3  A    between atoms: C3*_11  and  O3*_16
REMARK    4  A    between atoms: C5*_13  and  O5*_14
REMARK                            x       y       z     vdW  Elec       q    Type
REMARK                         _______ _______ _______ _____ _____    ______ ____
ROOT
ATOM      1  O   UNL     1      18.712 -13.903  25.506  0.00  0.00    +0.000 OA
ATOM      2  N   UNL     1      19.005 -11.752  24.699  0.00  0.00    +0.000 N 
ATOM      3  N   UNL     1      16.865 -12.609  25.126  0.00  0.00    +0.000 NA
ATOM      4  N   UNL     1      17.144 -10.403  24.277  0.00  0.00    +0.000 NA
ATOM      5  C   UNL     1      18.243 -12.831  25.137  0.00  0.00    +0.000 A 
ATOM      6  C   UNL     1      18.269 -10.704  24.342  0.00  0.00    +0.000 A 
ATOM      7  C   UNL     1      16.377 -11.461  24.732  0.00  0.00    +0.000 A 
ATOM      8  N   UNL     1      15.030 -11.294  24.745  0.00  0.00    +0.000 N 
ATOM      9  H   UNL     1      14.687 -10.611  24.081  0.00  0.00    +0.000 HD
ATOM     10  H   UNL     1      14.518 -12.167  24.760  0.00  0.00    +0.000 HD
ENDROOT
BRANCH   2  11
ATOM     11  C1* UNL     1      20.361 -11.706  24.614  0.00  0.00    +0.000 A 
ATOM     12  O4* UNL     1      21.088 -10.560  24.953  0.00  0.00    +0.000 OA
ATOM     13  C4* UNL     1      22.441 -10.864  24.756  0.00  0.00    +0.000 A 
ATOM     14  C3* UNL     1      22.557 -12.219  24.282  0.00  0.00    +0.000 A 
ATOM     15  C2* UNL     1      21.247 -12.726  24.215  0.00  0.00    +0.000 A 
BRANCH  14  16
ATOM     16  O3* UNL     1      23.659 -12.974  24.568  0.00  0.00    +0.000 OA
ATOM     17  H3* UNL     1      23.561 -13.879  24.224  0.00  0.00    +0.000 HD
ENDBRANCH  14  16
BRANCH  13  18
ATOM     18  C5* UNL     1      23.478 -10.001  25.159  0.00  0.00    +0.000 C 
BRANCH  18  19
ATOM     19  O5* UNL     1      24.456  -9.185  25.544  0.00  0.00    +0.000 OA
ATOM     20  H5* UNL     1      24.132  -8.269  25.587  0.00  0.00    +0.000 HD
ENDBRANCH  18  19
ENDBRANCH  13  18
ENDBRANCH   2  11
TORSDOF 4
ENDMDL
MODEL 9
REMARK VINA RESULT:      -4.6     21.670     22.465
REMARK  Name = Decitabine.pdbqt.pdb
REMARK  4 active torsions:
REMARK  status: ('A' for Active; 'I' for Inactive)
REMARK    1  A    between atoms: N_2  and  C1*_8
REMARK    2  A    between atoms: C4*_10  and  C5*_13
REMARK    3  A    between atoms: C3*_11  and  O3*_16
REMARK    4  A    between atoms: C5*_13  and  O5*_14
REMARK                            x       y       z     vdW  Elec       q    Type
REMARK                         _______ _______ _______ _____ _____    ______ ____
ROOT
ATOM      1  O   UNL     1      52.306  -1.565  30.756  0.00  0.00    +0.000 OA
ATOM      2  N   UNL     1      50.012  -1.425  30.476  0.00  0.00    +0.000 N 
ATOM      3  N   UNL     1      51.450   0.176  29.546  0.00  0.00    +0.000 NA
ATOM      4  N   UNL     1      49.092   0.349  29.264  0.00  0.00    +0.000 NA
ATOM      5  C   UNL     1      51.322  -0.992  30.298  0.00  0.00    +0.000 A 
ATOM      6  C   UNL     1      49.117  -0.632  29.895  0.00  0.00    +0.000 A 
ATOM      7  C   UNL     1      50.393   0.777  29.063  0.00  0.00    +0.000 A 
ATOM      8  N   UNL     1      50.571   1.907  28.333  0.00  0.00    +0.000 N 
ATOM      9  H   UNL     1      49.780   2.537  28.338  0.00  0.00    +0.000 HD
ATOM     10  H   UNL     1      51.469   2.350  28.491  0.00  0.00    +0.000 HD
ENDROOT
BRANCH   2  11
ATOM     11  C1* UNL     1      49.614  -2.529  31.163  0.00  0.00    +0.000 A 
ATOM     12  O4* UNL     1      49.288  -2.480  32.522  0.00  0.00    +0.000 OA
ATOM     13  C4* UNL     1      48.919  -3.778  32.898  0.00  0.00    +0.000 A 
ATOM     14  C3* UNL     1      49.023  -4.649  31.756  0.00  0.00    +0.000 A 
ATOM     15  C2* UNL     1      49.445  -3.843  30.684  0.00  0.00    +0.000 A 
BRANCH  14  16
ATOM     16  O3* UNL     1      48.210  -5.738  31.624  0.00  0.00    +0.000 OA
ATOM     17  H3* UNL     1      48.730  -6.546  31.468  0.00  0.00    +0.000 HD
ENDBRANCH  14  16
BRANCH  13  18
ATOM     18  C5* UNL     1      48.363  -4.073  34.158  0.00  0.00    +0.000 C 
BRANCH  18  19
ATOM     19  O5* UNL     1      47.835  -4.353  35.346  0.00  0.00    +0.000 OA
ATOM     20  H5* UNL     1      46.864  -4.378  35.285  0.00  0.00    +0.000 HD
ENDBRANCH  18  19
ENDBRANCH  13  18
ENDBRANCH   2  11
TORSDOF 4
ENDMDL
