MODEL 1
REMARK VINA RESULT:      -5.3      0.000      0.000
REMARK  Name = Deferoxamine.pdbqt.pdb
REMARK  19 active torsions:
REMARK  status: ('A' for Active; 'I' for Inactive)
REMARK    1  A    between atoms: C_1  and  C_2
REMARK    2  A    between atoms: C_3  and  C_4
REMARK    3  A    between atoms: C_4  and  N_5
REMARK    4  A    between atoms: C_6  and  C_9
REMARK    5  A    between atoms: C_10  and  C_11
REMARK    6  A    between atoms: N_13  and  O_14
REMARK    7  A    between atoms: N_13  and  C_16
REMARK    8  A    between atoms: C_17  and  C_18
REMARK    9  A    between atoms: C_19  and  C_20
REMARK   10  A    between atoms: C_20  and  N_21
REMARK   11  A    between atoms: C_24  and  N_25
REMARK   12  A    between atoms: N_25  and  O_28
REMARK   13  A    between atoms: C_26  and  C_30
REMARK   14  A    between atoms: C_31  and  C_32
REMARK   15  A    between atoms: N_34  and  C_36
REMARK   16  A    between atoms: C_37  and  C_38
REMARK   17  A    between atoms: C_38  and  C_39
REMARK   18  A    between atoms: C_40  and  N_41
REMARK   19  A    between atoms: N_41  and  O_45
REMARK                            x       y       z     vdW  Elec       q    Type
REMARK                         _______ _______ _______ _____ _____    ______ ____
ROOT
ATOM      1  C   UNL     1      18.324   4.957  19.152  0.00  0.00    +0.000 C 
ATOM      2  C   UNL     1      18.868   6.023  19.047  0.00  0.00    +0.000 C 
ENDROOT
BRANCH   2   3
ATOM      3  N   UNL     1      19.478   7.221  18.929  0.00  0.00    +0.000 N 
ATOM      4  C   UNL     1      20.400   7.677  18.002  0.00  0.00    +0.000 C 
ATOM      5  O   UNL     1      20.975   6.971  17.181  0.00  0.00    +0.000 OA
BRANCH   4   6
ATOM      6  C   UNL     1      20.732   9.086  18.030  0.00  0.00    +0.000 C 
ATOM      7  C   UNL     1      20.997  10.258  18.046  0.00  0.00    +0.000 C 
BRANCH   7   8
ATOM      8  C   UNL     1      21.305  11.667  18.044  0.00  0.00    +0.000 C 
ATOM      9  O   UNL     1      21.914  12.140  17.095  0.00  0.00    +0.000 OA
ATOM     10  N   UNL     1      20.867  12.365  19.147  0.00  0.00    +0.000 N 
ATOM     11  H   UNL     1      20.371  11.828  19.847  0.00  0.00    +0.000 HD
BRANCH  10  12
ATOM     12  C   UNL     1      21.001  13.678  19.432  0.00  0.00    +0.000 C 
ATOM     13  C   UNL     1      21.124  14.846  19.681  0.00  0.00    +0.000 C 
BRANCH  13  14
ATOM     14  C   UNL     1      21.286  16.337  19.990  0.00  0.00    +0.000 C 
BRANCH  14  15
ATOM     15  C   UNL     1      21.455  17.829  20.293  0.00  0.00    +0.000 C 
ATOM     16  C   UNL     1      21.589  18.998  20.528  0.00  0.00    +0.000 C 
BRANCH  16  17
ATOM     17  N   UNL     1      21.740  20.312  20.786  0.00  0.00    +0.000 N 
ATOM     18  C   UNL     1      22.128  20.973  21.927  0.00  0.00    +0.000 C 
ATOM     19  O   UNL     1      22.444  20.534  23.018  0.00  0.00    +0.000 OA
ATOM     20  C   UNL     1      22.202  22.480  21.916  0.00  0.00    +0.000 C 
BRANCH  17  21
ATOM     21  O   UNL     1      21.417  21.057  19.622  0.00  0.00    +0.000 OA
ATOM     22  H   UNL     1      20.461  21.236  19.732  0.00  0.00    +0.000 HD
ENDBRANCH  17  21
ENDBRANCH  16  17
ENDBRANCH  14  15
ENDBRANCH  13  14
ENDBRANCH  10  12
ENDBRANCH   7   8
ENDBRANCH   4   6
BRANCH   3  23
ATOM     23  O   UNL     1      18.752   8.190  19.657  0.00  0.00    +0.000 OA
ATOM     24  H   UNL     1      19.085   8.042  20.562  0.00  0.00    +0.000 HD
ENDBRANCH   3  23
ENDBRANCH   2   3
BRANCH   1  25
ATOM     25  C   UNL     1      17.630   3.598  19.269  0.00  0.00    +0.000 C 
ATOM     26  C   UNL     1      17.080   2.537  19.373  0.00  0.00    +0.000 C 
BRANCH  26  27
ATOM     27  C   UNL     1      16.372   1.186  19.518  0.00  0.00    +0.000 C 
BRANCH  27  28
ATOM     28  N   UNL     1      15.748  -0.007  19.627  0.00  0.00    +0.000 N 
ATOM     29  C   UNL     1      14.504  -0.379  19.175  0.00  0.00    +0.000 C 
ATOM     30  O   UNL     1      13.719   0.338  18.572  0.00  0.00    +0.000 OA
ATOM     31  H   UNL     1      16.288  -0.718  20.105  0.00  0.00    +0.000 HD
BRANCH  29  32
ATOM     32  C   UNL     1      14.130  -1.744  19.453  0.00  0.00    +0.000 C 
ATOM     33  C   UNL     1      13.796  -2.876  19.679  0.00  0.00    +0.000 C 
BRANCH  33  34
ATOM     34  C   UNL     1      13.378  -4.239  19.934  0.00  0.00    +0.000 C 
ATOM     35  O   UNL     1      12.552  -4.733  19.173  0.00  0.00    +0.000 OA
ATOM     36  N   UNL     1      13.914  -4.874  21.042  0.00  0.00    +0.000 N 
BRANCH  36  37
ATOM     37  C   UNL     1      13.830  -6.158  21.446  0.00  0.00    +0.000 C 
ATOM     38  C   UNL     1      13.752  -7.300  21.808  0.00  0.00    +0.000 C 
BRANCH  38  39
ATOM     39  C   UNL     1      13.651  -8.755  22.276  0.00  0.00    +0.000 C 
ATOM     40  C   UNL     1      13.566  -9.894  22.644  0.00  0.00    +0.000 C 
BRANCH  40  41
ATOM     41  C   UNL     1      13.455 -11.348  23.112  0.00  0.00    +0.000 C 
BRANCH  41  42
ATOM     42  N   UNL     1      13.348 -12.728  23.557  0.00  0.00    +0.000 NA
ATOM     43  H   UNL     1      14.085 -13.293  23.141  0.00  0.00    +0.000 HD
ATOM     44  H   UNL     1      13.482 -12.787  24.565  0.00  0.00    +0.000 HD
ENDBRANCH  41  42
ENDBRANCH  40  41
ENDBRANCH  38  39
ENDBRANCH  36  37
BRANCH  36  45
ATOM     45  O   UNL     1      15.003  -4.248  21.689  0.00  0.00    +0.000 OA
ATOM     46  H   UNL     1      14.599  -3.409  21.980  0.00  0.00    +0.000 HD
ENDBRANCH  36  45
ENDBRANCH  33  34
ENDBRANCH  29  32
ENDBRANCH  27  28
ENDBRANCH  26  27
ENDBRANCH   1  25
TORSDOF 19
ENDMDL
MODEL 2
REMARK VINA RESULT:      -4.9     21.216     25.502
REMARK  Name = Deferoxamine.pdbqt.pdb
REMARK  19 active torsions:
REMARK  status: ('A' for Active; 'I' for Inactive)
REMARK    1  A    between atoms: C_1  and  C_2
REMARK    2  A    between atoms: C_3  and  C_4
REMARK    3  A    between atoms: C_4  and  N_5
REMARK    4  A    between atoms: C_6  and  C_9
REMARK    5  A    between atoms: C_10  and  C_11
REMARK    6  A    between atoms: N_13  and  O_14
REMARK    7  A    between atoms: N_13  and  C_16
REMARK    8  A    between atoms: C_17  and  C_18
REMARK    9  A    between atoms: C_19  and  C_20
REMARK   10  A    between atoms: C_20  and  N_21
REMARK   11  A    between atoms: C_24  and  N_25
REMARK   12  A    between atoms: N_25  and  O_28
REMARK   13  A    between atoms: C_26  and  C_30
REMARK   14  A    between atoms: C_31  and  C_32
REMARK   15  A    between atoms: N_34  and  C_36
REMARK   16  A    between atoms: C_37  and  C_38
REMARK   17  A    between atoms: C_38  and  C_39
REMARK   18  A    between atoms: C_40  and  N_41
REMARK   19  A    between atoms: N_41  and  O_45
REMARK                            x       y       z     vdW  Elec       q    Type
REMARK                         _______ _______ _______ _____ _____    ______ ____
ROOT
ATOM      1  C   UNL     1      23.693  -1.411   1.821  0.00  0.00    +0.000 C 
ATOM      2  C   UNL     1      23.282  -1.377   2.949  0.00  0.00    +0.000 C 
ENDROOT
BRANCH   2   3
ATOM      3  N   UNL     1      22.822  -1.340   4.217  0.00  0.00    +0.000 N 
ATOM      4  C   UNL     1      22.938  -2.258   5.246  0.00  0.00    +0.000 C 
ATOM      5  O   UNL     1      23.364  -3.401   5.121  0.00  0.00    +0.000 OA
BRANCH   4   6
ATOM      6  C   UNL     1      22.491  -1.846   6.561  0.00  0.00    +0.000 C 
ATOM      7  C   UNL     1      22.114  -1.517   7.654  0.00  0.00    +0.000 C 
BRANCH   7   8
ATOM      8  C   UNL     1      21.644  -1.137   8.963  0.00  0.00    +0.000 C 
ATOM      9  O   UNL     1      22.359  -0.442   9.671  0.00  0.00    +0.000 OA
ATOM     10  N   UNL     1      20.395  -1.610   9.297  0.00  0.00    +0.000 N 
ATOM     11  H   UNL     1      19.927  -2.170   8.596  0.00  0.00    +0.000 HD
BRANCH  10  12
ATOM     12  C   UNL     1      19.693  -1.427  10.437  0.00  0.00    +0.000 C 
ATOM     13  C   UNL     1      19.069  -1.259  11.448  0.00  0.00    +0.000 C 
BRANCH  13  14
ATOM     14  C   UNL     1      18.269  -1.037  12.735  0.00  0.00    +0.000 C 
BRANCH  14  15
ATOM     15  C   UNL     1      17.471  -0.805  14.021  0.00  0.00    +0.000 C 
ATOM     16  C   UNL     1      16.848  -0.624  15.032  0.00  0.00    +0.000 C 
BRANCH  16  17
ATOM     17  N   UNL     1      16.155  -0.417  16.168  0.00  0.00    +0.000 N 
ATOM     18  C   UNL     1      16.340   0.483  17.191  0.00  0.00    +0.000 C 
ATOM     19  O   UNL     1      17.192   1.342  17.336  0.00  0.00    +0.000 OA
ATOM     20  C   UNL     1      15.385   0.476  18.359  0.00  0.00    +0.000 C 
BRANCH  17  21
ATOM     21  O   UNL     1      15.072  -1.332  16.229  0.00  0.00    +0.000 OA
ATOM     22  H   UNL     1      14.707  -1.183  17.126  0.00  0.00    +0.000 HD
ENDBRANCH  17  21
ENDBRANCH  16  17
ENDBRANCH  14  15
ENDBRANCH  13  14
ENDBRANCH  10  12
ENDBRANCH   7   8
ENDBRANCH   4   6
BRANCH   3  23
ATOM     23  O   UNL     1      22.515  -0.005   4.565  0.00  0.00    +0.000 OA
ATOM     24  H   UNL     1      23.121   0.144   5.314  0.00  0.00    +0.000 HD
ENDBRANCH   3  23
ENDBRANCH   2   3
BRANCH   1  25
ATOM     25  C   UNL     1      24.213  -1.470   0.382  0.00  0.00    +0.000 C 
ATOM     26  C   UNL     1      24.631  -1.526  -0.741  0.00  0.00    +0.000 C 
BRANCH  26  27
ATOM     27  C   UNL     1      25.174  -1.607  -2.172  0.00  0.00    +0.000 C 
BRANCH  27  28
ATOM     28  N   UNL     1      25.668  -1.686  -3.426  0.00  0.00    +0.000 N 
ATOM     29  C   UNL     1      26.976  -1.770  -3.838  0.00  0.00    +0.000 C 
ATOM     30  O   UNL     1      27.956  -1.788  -3.108  0.00  0.00    +0.000 OA
ATOM     31  H   UNL     1      24.962  -1.690  -4.153  0.00  0.00    +0.000 HD
BRANCH  29  32
ATOM     32  C   UNL     1      27.169  -1.845  -5.266  0.00  0.00    +0.000 C 
ATOM     33  C   UNL     1      27.314  -1.926  -6.456  0.00  0.00    +0.000 C 
BRANCH  33  34
ATOM     34  C   UNL     1      27.468  -2.031  -7.892  0.00  0.00    +0.000 C 
ATOM     35  O   UNL     1      28.434  -1.473  -8.404  0.00  0.00    +0.000 OA
ATOM     36  N   UNL     1      26.493  -2.724  -8.590  0.00  0.00    +0.000 N 
BRANCH  36  37
ATOM     37  C   UNL     1      26.438  -3.105  -9.883  0.00  0.00    +0.000 C 
ATOM     38  C   UNL     1      26.393  -3.444 -11.033  0.00  0.00    +0.000 C 
BRANCH  38  39
ATOM     39  C   UNL     1      26.342  -3.874 -12.502  0.00  0.00    +0.000 C 
ATOM     40  C   UNL     1      26.307  -4.212 -13.653  0.00  0.00    +0.000 C 
BRANCH  40  41
ATOM     41  C   UNL     1      26.266  -4.644 -15.121  0.00  0.00    +0.000 C 
BRANCH  41  42
ATOM     42  N   UNL     1      26.228  -5.055 -16.515  0.00  0.00    +0.000 NA
ATOM     43  H   UNL     1      26.078  -4.249 -17.119  0.00  0.00    +0.000 HD
ATOM     44  H   UNL     1      27.125  -5.452 -16.794  0.00  0.00    +0.000 HD
ENDBRANCH  41  42
ENDBRANCH  40  41
ENDBRANCH  38  39
ENDBRANCH  36  37
BRANCH  36  45
ATOM     45  O   UNL     1      25.567  -3.481  -7.837  0.00  0.00    +0.000 OA
ATOM     46  H   UNL     1      25.733  -4.381  -8.173  0.00  0.00    +0.000 HD
ENDBRANCH  36  45
ENDBRANCH  33  34
ENDBRANCH  29  32
ENDBRANCH  27  28
ENDBRANCH  26  27
ENDBRANCH   1  25
TORSDOF 19
ENDMDL
MODEL 3
REMARK VINA RESULT:      -4.8     36.156     42.739
REMARK  Name = Deferoxamine.pdbqt.pdb
REMARK  19 active torsions:
REMARK  status: ('A' for Active; 'I' for Inactive)
REMARK    1  A    between atoms: C_1  and  C_2
REMARK    2  A    between atoms: C_3  and  C_4
REMARK    3  A    between atoms: C_4  and  N_5
REMARK    4  A    between atoms: C_6  and  C_9
REMARK    5  A    between atoms: C_10  and  C_11
REMARK    6  A    between atoms: N_13  and  O_14
REMARK    7  A    between atoms: N_13  and  C_16
REMARK    8  A    between atoms: C_17  and  C_18
REMARK    9  A    between atoms: C_19  and  C_20
REMARK   10  A    between atoms: C_20  and  N_21
REMARK   11  A    between atoms: C_24  and  N_25
REMARK   12  A    between atoms: N_25  and  O_28
REMARK   13  A    between atoms: C_26  and  C_30
REMARK   14  A    between atoms: C_31  and  C_32
REMARK   15  A    between atoms: N_34  and  C_36
REMARK   16  A    between atoms: C_37  and  C_38
REMARK   17  A    between atoms: C_38  and  C_39
REMARK   18  A    between atoms: C_40  and  N_41
REMARK   19  A    between atoms: N_41  and  O_45
REMARK                            x       y       z     vdW  Elec       q    Type
REMARK                         _______ _______ _______ _____ _____    ______ ____
ROOT
ATOM      1  C   UNL     1      49.735 -11.767  31.516  0.00  0.00    +0.000 C 
ATOM      2  C   UNL     1      49.522 -12.911  31.220  0.00  0.00    +0.000 C 
ENDROOT
BRANCH   2   3
ATOM      3  N   UNL     1      49.285 -14.197  30.886  0.00  0.00    +0.000 N 
ATOM      4  C   UNL     1      50.041 -15.338  31.093  0.00  0.00    +0.000 C 
ATOM      5  O   UNL     1      51.200 -15.347  31.494  0.00  0.00    +0.000 OA
BRANCH   4   6
ATOM      6  C   UNL     1      49.426 -16.611  30.780  0.00  0.00    +0.000 C 
ATOM      7  C   UNL     1      48.904 -17.661  30.518  0.00  0.00    +0.000 C 
BRANCH   7   8
ATOM      8  C   UNL     1      48.258 -18.914  30.214  0.00  0.00    +0.000 C 
ATOM      9  O   UNL     1      47.896 -19.633  31.134  0.00  0.00    +0.000 OA
ATOM     10  N   UNL     1      48.106 -19.184  28.873  0.00  0.00    +0.000 N 
ATOM     11  H   UNL     1      48.455 -18.482  28.233  0.00  0.00    +0.000 HD
BRANCH  10  12
ATOM     12  C   UNL     1      47.547 -20.262  28.280  0.00  0.00    +0.000 C 
ATOM     13  C   UNL     1      47.045 -21.218  27.757  0.00  0.00    +0.000 C 
BRANCH  13  14
ATOM     14  C   UNL     1      46.396 -22.436  27.092  0.00  0.00    +0.000 C 
BRANCH  14  15
ATOM     15  C   UNL     1      45.754 -23.659  26.431  0.00  0.00    +0.000 C 
ATOM     16  C   UNL     1      45.252 -24.617  25.910  0.00  0.00    +0.000 C 
BRANCH  16  17
ATOM     17  N   UNL     1      44.695 -25.693  25.323  0.00  0.00    +0.000 N 
ATOM     18  C   UNL     1      43.557 -25.823  24.561  0.00  0.00    +0.000 C 
ATOM     19  O   UNL     1      42.747 -24.982  24.212  0.00  0.00    +0.000 OA
ATOM     20  C   UNL     1      43.176 -27.183  24.032  0.00  0.00    +0.000 C 
BRANCH  17  21
ATOM     21  O   UNL     1      45.486 -26.839  25.596  0.00  0.00    +0.000 OA
ATOM     22  H   UNL     1      46.394 -26.537  25.385  0.00  0.00    +0.000 HD
ENDBRANCH  17  21
ENDBRANCH  16  17
ENDBRANCH  14  15
ENDBRANCH  13  14
ENDBRANCH  10  12
ENDBRANCH   7   8
ENDBRANCH   4   6
BRANCH   3  23
ATOM     23  O   UNL     1      47.906 -14.367  30.627  0.00  0.00    +0.000 OA
ATOM     24  H   UNL     1      47.913 -15.148  30.044  0.00  0.00    +0.000 HD
ENDBRANCH   3  23
ENDBRANCH   2   3
BRANCH   1  25
ATOM     25  C   UNL     1      49.997 -10.303  31.879  0.00  0.00    +0.000 C 
ATOM     26  C   UNL     1      50.193  -9.156  32.173  0.00  0.00    +0.000 C 
BRANCH  26  27
ATOM     27  C   UNL     1      50.432  -7.692  32.558  0.00  0.00    +0.000 C 
BRANCH  27  28
ATOM     28  N   UNL     1      50.649  -6.407  32.913  0.00  0.00    +0.000 N 
ATOM     29  C   UNL     1      49.765  -5.355  32.940  0.00  0.00    +0.000 C 
ATOM     30  O   UNL     1      48.583  -5.406  32.634  0.00  0.00    +0.000 OA
ATOM     31  H   UNL     1      51.598  -6.210  33.203  0.00  0.00    +0.000 HD
BRANCH  29  32
ATOM     32  C   UNL     1      50.320  -4.096  33.376  0.00  0.00    +0.000 C 
ATOM     33  C   UNL     1      50.775  -3.054  33.762  0.00  0.00    +0.000 C 
BRANCH  33  34
ATOM     34  C   UNL     1      51.329  -1.806  34.246  0.00  0.00    +0.000 C 
ATOM     35  O   UNL     1      52.531  -1.617  34.089  0.00  0.00    +0.000 OA
ATOM     36  N   UNL     1      50.467  -0.932  34.887  0.00  0.00    +0.000 N 
BRANCH  36  37
ATOM     37  C   UNL     1      50.653   0.336  35.308  0.00  0.00    +0.000 C 
ATOM     38  C   UNL     1      50.819   1.463  35.686  0.00  0.00    +0.000 C 
BRANCH  38  39
ATOM     39  C   UNL     1      51.026   2.901  36.174  0.00  0.00    +0.000 C 
ATOM     40  C   UNL     1      51.184   4.026  36.558  0.00  0.00    +0.000 C 
BRANCH  40  41
ATOM     41  C   UNL     1      51.381   5.463  37.050  0.00  0.00    +0.000 C 
BRANCH  41  42
ATOM     42  N   UNL     1      51.568   6.827  37.517  0.00  0.00    +0.000 NA
ATOM     43  H   UNL     1      52.351   7.264  37.035  0.00  0.00    +0.000 HD
ATOM     44  H   UNL     1      50.750   7.393  37.296  0.00  0.00    +0.000 HD
ENDBRANCH  41  42
ENDBRANCH  40  41
ENDBRANCH  38  39
ENDBRANCH  36  37
BRANCH  36  45
ATOM     45  O   UNL     1      49.082  -1.201  34.801  0.00  0.00    +0.000 OA
ATOM     46  H   UNL     1      48.798  -1.047  35.721  0.00  0.00    +0.000 HD
ENDBRANCH  36  45
ENDBRANCH  33  34
ENDBRANCH  29  32
ENDBRANCH  27  28
ENDBRANCH  26  27
ENDBRANCH   1  25
TORSDOF 19
ENDMDL
MODEL 4
REMARK VINA RESULT:      -4.8     37.359     46.477
REMARK  Name = Deferoxamine.pdbqt.pdb
REMARK  19 active torsions:
REMARK  status: ('A' for Active; 'I' for Inactive)
REMARK    1  A    between atoms: C_1  and  C_2
REMARK    2  A    between atoms: C_3  and  C_4
REMARK    3  A    between atoms: C_4  and  N_5
REMARK    4  A    between atoms: C_6  and  C_9
REMARK    5  A    between atoms: C_10  and  C_11
REMARK    6  A    between atoms: N_13  and  O_14
REMARK    7  A    between atoms: N_13  and  C_16
REMARK    8  A    between atoms: C_17  and  C_18
REMARK    9  A    between atoms: C_19  and  C_20
REMARK   10  A    between atoms: C_20  and  N_21
REMARK   11  A    between atoms: C_24  and  N_25
REMARK   12  A    between atoms: N_25  and  O_28
REMARK   13  A    between atoms: C_26  and  C_30
REMARK   14  A    between atoms: C_31  and  C_32
REMARK   15  A    between atoms: N_34  and  C_36
REMARK   16  A    between atoms: C_37  and  C_38
REMARK   17  A    between atoms: C_38  and  C_39
REMARK   18  A    between atoms: C_40  and  N_41
REMARK   19  A    between atoms: N_41  and  O_45
REMARK                            x       y       z     vdW  Elec       q    Type
REMARK                         _______ _______ _______ _____ _____    ______ ____
ROOT
ATOM      1  C   UNL     1      55.830  15.339  34.908  0.00  0.00    +0.000 C 
ATOM      2  C   UNL     1      55.531  14.291  35.414  0.00  0.00    +0.000 C 
ENDROOT
BRANCH   2   3
ATOM      3  N   UNL     1      55.197  13.114  35.982  0.00  0.00    +0.000 N 
ATOM      4  C   UNL     1      55.264  12.698  37.300  0.00  0.00    +0.000 C 
ATOM      5  O   UNL     1      55.826  13.311  38.202  0.00  0.00    +0.000 OA
BRANCH   4   6
ATOM      6  C   UNL     1      54.653  11.426  37.630  0.00  0.00    +0.000 C 
ATOM      7  C   UNL     1      54.150  10.367  37.890  0.00  0.00    +0.000 C 
BRANCH   7   8
ATOM      8  C   UNL     1      53.542   9.092  38.180  0.00  0.00    +0.000 C 
ATOM      9  O   UNL     1      53.386   8.761  39.347  0.00  0.00    +0.000 OA
ATOM     10  N   UNL     1      53.185   8.349  37.078  0.00  0.00    +0.000 N 
ATOM     11  H   UNL     1      53.377   8.766  36.176  0.00  0.00    +0.000 HD
BRANCH  10  12
ATOM     12  C   UNL     1      52.603   7.131  37.025  0.00  0.00    +0.000 C 
ATOM     13  C   UNL     1      52.081   6.051  36.977  0.00  0.00    +0.000 C 
BRANCH  13  14
ATOM     14  C   UNL     1      51.408   4.677  36.911  0.00  0.00    +0.000 C 
BRANCH  14  15
ATOM     15  C   UNL     1      50.741   3.299  36.849  0.00  0.00    +0.000 C 
ATOM     16  C   UNL     1      50.221   2.219  36.799  0.00  0.00    +0.000 C 
BRANCH  16  17
ATOM     17  N   UNL     1      49.643   1.003  36.741  0.00  0.00    +0.000 N 
ATOM     18  C   UNL     1      49.271   0.227  35.670  0.00  0.00    +0.000 C 
ATOM     19  O   UNL     1      49.372   0.439  34.474  0.00  0.00    +0.000 OA
ATOM     20  C   UNL     1      48.629  -1.116  35.920  0.00  0.00    +0.000 C 
BRANCH  17  21
ATOM     21  O   UNL     1      49.417   0.529  38.059  0.00  0.00    +0.000 OA
ATOM     22  H   UNL     1      50.034   1.067  38.597  0.00  0.00    +0.000 HD
ENDBRANCH  17  21
ENDBRANCH  16  17
ENDBRANCH  14  15
ENDBRANCH  13  14
ENDBRANCH  10  12
ENDBRANCH   7   8
ENDBRANCH   4   6
BRANCH   3  23
ATOM     23  O   UNL     1      54.335  12.404  35.116  0.00  0.00    +0.000 OA
ATOM     24  H   UNL     1      54.530  11.481  35.364  0.00  0.00    +0.000 HD
ENDBRANCH   3  23
ENDBRANCH   2   3
BRANCH   1  25
ATOM     25  C   UNL     1      56.220  16.667  34.254  0.00  0.00    +0.000 C 
ATOM     26  C   UNL     1      56.540  17.704  33.741  0.00  0.00    +0.000 C 
BRANCH  26  27
ATOM     27  C   UNL     1      56.961  19.023  33.086  0.00  0.00    +0.000 C 
BRANCH  27  28
ATOM     28  N   UNL     1      57.316  20.188  32.500  0.00  0.00    +0.000 N 
ATOM     29  C   UNL     1      56.620  20.946  31.588  0.00  0.00    +0.000 C 
ATOM     30  O   UNL     1      55.516  20.684  31.134  0.00  0.00    +0.000 OA
ATOM     31  H   UNL     1      58.220  20.541  32.788  0.00  0.00    +0.000 HD
BRANCH  29  32
ATOM     32  C   UNL     1      57.285  22.151  31.156  0.00  0.00    +0.000 C 
ATOM     33  C   UNL     1      57.857  23.142  30.790  0.00  0.00    +0.000 C 
BRANCH  33  34
ATOM     34  C   UNL     1      58.559  24.324  30.333  0.00  0.00    +0.000 C 
ATOM     35  O   UNL     1      58.052  25.415  30.572  0.00  0.00    +0.000 OA
ATOM     36  N   UNL     1      59.735  24.135  29.626  0.00  0.00    +0.000 N 
BRANCH  36  37
ATOM     37  C   UNL     1      60.662  25.021  29.207  0.00  0.00    +0.000 C 
ATOM     38  C   UNL     1      61.487  25.807  28.832  0.00  0.00    +0.000 C 
BRANCH  38  39
ATOM     39  C   UNL     1      62.544  26.806  28.350  0.00  0.00    +0.000 C 
ATOM     40  C   UNL     1      63.374  27.588  27.977  0.00  0.00    +0.000 C 
BRANCH  40  41
ATOM     41  C   UNL     1      64.435  28.586  27.506  0.00  0.00    +0.000 C 
BRANCH  41  42
ATOM     42  N   UNL     1      65.443  29.533  27.058  0.00  0.00    +0.000 NA
ATOM     43  H   UNL     1      65.337  30.421  27.546  0.00  0.00    +0.000 HD
ATOM     44  H   UNL     1      66.376  29.195  27.289  0.00  0.00    +0.000 HD
ENDBRANCH  41  42
ENDBRANCH  40  41
ENDBRANCH  38  39
ENDBRANCH  36  37
BRANCH  36  45
ATOM     45  O   UNL     1      60.289  22.835  29.618  0.00  0.00    +0.000 OA
ATOM     46  H   UNL     1      60.269  22.622  28.667  0.00  0.00    +0.000 HD
ENDBRANCH  36  45
ENDBRANCH  33  34
ENDBRANCH  29  32
ENDBRANCH  27  28
ENDBRANCH  26  27
ENDBRANCH   1  25
TORSDOF 19
ENDMDL
MODEL 5
REMARK VINA RESULT:      -4.7      4.265      5.493
REMARK  Name = Deferoxamine.pdbqt.pdb
REMARK  19 active torsions:
REMARK  status: ('A' for Active; 'I' for Inactive)
REMARK    1  A    between atoms: C_1  and  C_2
REMARK    2  A    between atoms: C_3  and  C_4
REMARK    3  A    between atoms: C_4  and  N_5
REMARK    4  A    between atoms: C_6  and  C_9
REMARK    5  A    between atoms: C_10  and  C_11
REMARK    6  A    between atoms: N_13  and  O_14
REMARK    7  A    between atoms: N_13  and  C_16
REMARK    8  A    between atoms: C_17  and  C_18
REMARK    9  A    between atoms: C_19  and  C_20
REMARK   10  A    between atoms: C_20  and  N_21
REMARK   11  A    between atoms: C_24  and  N_25
REMARK   12  A    between atoms: N_25  and  O_28
REMARK   13  A    between atoms: C_26  and  C_30
REMARK   14  A    between atoms: C_31  and  C_32
REMARK   15  A    between atoms: N_34  and  C_36
REMARK   16  A    between atoms: C_37  and  C_38
REMARK   17  A    between atoms: C_38  and  C_39
REMARK   18  A    between atoms: C_40  and  N_41
REMARK   19  A    between atoms: N_41  and  O_45
REMARK                            x       y       z     vdW  Elec       q    Type
REMARK                         _______ _______ _______ _____ _____    ______ ____
ROOT
ATOM      1  C   UNL     1      16.089   1.481  18.943  0.00  0.00    +0.000 C 
ATOM      2  C   UNL     1      16.731   2.495  18.888  0.00  0.00    +0.000 C 
ENDROOT
BRANCH   2   3
ATOM      3  N   UNL     1      17.451   3.634  18.825  0.00  0.00    +0.000 N 
ATOM      4  C   UNL     1      18.772   3.887  19.153  0.00  0.00    +0.000 C 
ATOM      5  O   UNL     1      19.508   3.106  19.747  0.00  0.00    +0.000 OA
BRANCH   4   6
ATOM      6  C   UNL     1      19.311   5.183  18.797  0.00  0.00    +0.000 C 
ATOM      7  C   UNL     1      19.770   6.252  18.497  0.00  0.00    +0.000 C 
BRANCH   7   8
ATOM      8  C   UNL     1      20.343   7.527  18.142  0.00  0.00    +0.000 C 
ATOM      9  O   UNL     1      21.110   7.589  17.192  0.00  0.00    +0.000 OA
ATOM     10  N   UNL     1      19.956   8.584  18.935  0.00  0.00    +0.000 N 
ATOM     11  H   UNL     1      19.309   8.369  19.682  0.00  0.00    +0.000 HD
BRANCH  10  12
ATOM     12  C   UNL     1      20.316   9.883  18.855  0.00  0.00    +0.000 C 
ATOM     13  C   UNL     1      20.636  11.038  18.779  0.00  0.00    +0.000 C 
BRANCH  13  14
ATOM     14  C   UNL     1      21.042  12.511  18.672  0.00  0.00    +0.000 C 
BRANCH  14  15
ATOM     15  C   UNL     1      21.446  13.985  18.574  0.00  0.00    +0.000 C 
ATOM     16  C   UNL     1      21.763  15.140  18.501  0.00  0.00    +0.000 C 
BRANCH  16  17
ATOM     17  N   UNL     1      22.124  16.436  18.423  0.00  0.00    +0.000 N 
ATOM     18  C   UNL     1      22.126  17.314  17.366  0.00  0.00    +0.000 C 
ATOM     19  O   UNL     1      21.794  17.146  16.206  0.00  0.00    +0.000 OA
ATOM     20  C   UNL     1      22.597  18.730  17.586  0.00  0.00    +0.000 C 
BRANCH  17  21
ATOM     21  O   UNL     1      22.564  16.876  19.698  0.00  0.00    +0.000 OA
ATOM     22  H   UNL     1      22.193  17.781  19.761  0.00  0.00    +0.000 HD
ENDBRANCH  17  21
ENDBRANCH  16  17
ENDBRANCH  14  15
ENDBRANCH  13  14
ENDBRANCH  10  12
ENDBRANCH   7   8
ENDBRANCH   4   6
BRANCH   3  23
ATOM     23  O   UNL     1      16.808   4.547  17.958  0.00  0.00    +0.000 OA
ATOM     24  H   UNL     1      17.521   5.192  17.793  0.00  0.00    +0.000 HD
ENDBRANCH   3  23
ENDBRANCH   2   3
BRANCH   1  25
ATOM     25  C   UNL     1      15.268   0.190  18.999  0.00  0.00    +0.000 C 
ATOM     26  C   UNL     1      14.628  -0.823  19.055  0.00  0.00    +0.000 C 
BRANCH  26  27
ATOM     27  C   UNL     1      13.817  -2.120  19.140  0.00  0.00    +0.000 C 
BRANCH  27  28
ATOM     28  N   UNL     1      13.085  -3.254  19.213  0.00  0.00    +0.000 N 
ATOM     29  C   UNL     1      13.289  -4.366  19.995  0.00  0.00    +0.000 C 
ATOM     30  O   UNL     1      14.205  -4.525  20.788  0.00  0.00    +0.000 OA
ATOM     31  H   UNL     1      12.275  -3.267  18.607  0.00  0.00    +0.000 HD
BRANCH  29  32
ATOM     32  C   UNL     1      12.312  -5.416  19.837  0.00  0.00    +0.000 C 
ATOM     33  C   UNL     1      11.501  -6.296  19.729  0.00  0.00    +0.000 C 
BRANCH  33  34
ATOM     34  C   UNL     1      10.517  -7.354  19.620  0.00  0.00    +0.000 C 
ATOM     35  O   UNL     1       9.787  -7.553  20.586  0.00  0.00    +0.000 OA
ATOM     36  N   UNL     1      10.498  -8.089  18.447  0.00  0.00    +0.000 N 
BRANCH  36  37
ATOM     37  C   UNL     1       9.625  -9.017  18.005  0.00  0.00    +0.000 C 
ATOM     38  C   UNL     1       8.851  -9.845  17.610  0.00  0.00    +0.000 C 
BRANCH  38  39
ATOM     39  C   UNL     1       7.866 -10.902  17.099  0.00  0.00    +0.000 C 
ATOM     40  C   UNL     1       7.092 -11.725  16.695  0.00  0.00    +0.000 C 
BRANCH  40  41
ATOM     41  C   UNL     1       6.105 -12.774  16.177  0.00  0.00    +0.000 C 
BRANCH  41  42
ATOM     42  N   UNL     1       5.168 -13.770  15.685  0.00  0.00    +0.000 NA
ATOM     43  H   UNL     1       4.238 -13.366  15.586  0.00  0.00    +0.000 HD
ATOM     44  H   UNL     1       5.438 -14.084  14.754  0.00  0.00    +0.000 HD
ENDBRANCH  41  42
ENDBRANCH  40  41
ENDBRANCH  38  39
ENDBRANCH  36  37
BRANCH  36  45
ATOM     45  O   UNL     1      11.256  -7.600  17.358  0.00  0.00    +0.000 OA
ATOM     46  H   UNL     1      10.560  -7.441  16.694  0.00  0.00    +0.000 HD
ENDBRANCH  36  45
ENDBRANCH  33  34
ENDBRANCH  29  32
ENDBRANCH  27  28
ENDBRANCH  26  27
ENDBRANCH   1  25
TORSDOF 19
ENDMDL
MODEL 6
REMARK VINA RESULT:      -4.6     33.609     36.809
REMARK  Name = Deferoxamine.pdbqt.pdb
REMARK  19 active torsions:
REMARK  status: ('A' for Active; 'I' for Inactive)
REMARK    1  A    between atoms: C_1  and  C_2
REMARK    2  A    between atoms: C_3  and  C_4
REMARK    3  A    between atoms: C_4  and  N_5
REMARK    4  A    between atoms: C_6  and  C_9
REMARK    5  A    between atoms: C_10  and  C_11
REMARK    6  A    between atoms: N_13  and  O_14
REMARK    7  A    between atoms: N_13  and  C_16
REMARK    8  A    between atoms: C_17  and  C_18
REMARK    9  A    between atoms: C_19  and  C_20
REMARK   10  A    between atoms: C_20  and  N_21
REMARK   11  A    between atoms: C_24  and  N_25
REMARK   12  A    between atoms: N_25  and  O_28
REMARK   13  A    between atoms: C_26  and  C_30
REMARK   14  A    between atoms: C_31  and  C_32
REMARK   15  A    between atoms: N_34  and  C_36
REMARK   16  A    between atoms: C_37  and  C_38
REMARK   17  A    between atoms: C_38  and  C_39
REMARK   18  A    between atoms: C_40  and  N_41
REMARK   19  A    between atoms: N_41  and  O_45
REMARK                            x       y       z     vdW  Elec       q    Type
REMARK                         _______ _______ _______ _____ _____    ______ ____
ROOT
ATOM      1  C   UNL     1      52.352   6.759  28.193  0.00  0.00    +0.000 C 
ATOM      2  C   UNL     1      52.540   7.279  29.260  0.00  0.00    +0.000 C 
ENDROOT
BRANCH   2   3
ATOM      3  N   UNL     1      52.749   7.863  30.458  0.00  0.00    +0.000 N 
ATOM      4  C   UNL     1      52.099   8.918  31.074  0.00  0.00    +0.000 C 
ATOM      5  O   UNL     1      51.279   9.650  30.529  0.00  0.00    +0.000 OA
BRANCH   4   6
ATOM      6  C   UNL     1      52.439   9.197  32.454  0.00  0.00    +0.000 C 
ATOM      7  C   UNL     1      52.724   9.416  33.600  0.00  0.00    +0.000 C 
BRANCH   7   8
ATOM      8  C   UNL     1      53.059   9.656  34.982  0.00  0.00    +0.000 C 
ATOM      9  O   UNL     1      53.422   8.718  35.676  0.00  0.00    +0.000 OA
ATOM     10  N   UNL     1      52.932  10.963  35.397  0.00  0.00    +0.000 N 
ATOM     11  H   UNL     1      52.623  11.626  34.697  0.00  0.00    +0.000 HD
BRANCH  10  12
ATOM     12  C   UNL     1      53.168  11.495  36.615  0.00  0.00    +0.000 C 
ATOM     13  C   UNL     1      53.382  11.965  37.699  0.00  0.00    +0.000 C 
BRANCH  13  14
ATOM     14  C   UNL     1      53.663  12.558  39.083  0.00  0.00    +0.000 C 
BRANCH  14  15
ATOM     15  C   UNL     1      53.952  13.148  40.466  0.00  0.00    +0.000 C 
ATOM     16  C   UNL     1      54.180  13.613  41.549  0.00  0.00    +0.000 C 
BRANCH  16  17
ATOM     17  N   UNL     1      54.435  14.141  42.762  0.00  0.00    +0.000 N 
ATOM     18  C   UNL     1      54.402  15.440  43.210  0.00  0.00    +0.000 C 
ATOM     19  O   UNL     1      54.124  16.467  42.617  0.00  0.00    +0.000 OA
ATOM     20  C   UNL     1      54.748  15.732  44.649  0.00  0.00    +0.000 C 
BRANCH  17  21
ATOM     21  O   UNL     1      54.794  13.102  43.659  0.00  0.00    +0.000 OA
ATOM     22  H   UNL     1      53.959  12.600  43.764  0.00  0.00    +0.000 HD
ENDBRANCH  17  21
ENDBRANCH  16  17
ENDBRANCH  14  15
ENDBRANCH  13  14
ENDBRANCH  10  12
ENDBRANCH   7   8
ENDBRANCH   4   6
BRANCH   3  23
ATOM     23  O   UNL     1      53.500   6.991  31.279  0.00  0.00    +0.000 OA
ATOM     24  H   UNL     1      52.930   6.200  31.294  0.00  0.00    +0.000 HD
ENDBRANCH   3  23
ENDBRANCH   2   3
BRANCH   1  25
ATOM     25  C   UNL     1      52.107   6.111  26.828  0.00  0.00    +0.000 C 
ATOM     26  C   UNL     1      51.921   5.613  25.753  0.00  0.00    +0.000 C 
BRANCH  26  27
ATOM     27  C   UNL     1      51.691   4.988  24.373  0.00  0.00    +0.000 C 
BRANCH  27  28
ATOM     28  N   UNL     1      51.474   4.429  23.163  0.00  0.00    +0.000 N 
ATOM     29  C   UNL     1      50.510   4.731  22.229  0.00  0.00    +0.000 C 
ATOM     30  O   UNL     1      49.651   5.593  22.342  0.00  0.00    +0.000 OA
ATOM     31  H   UNL     1      52.123   3.690  22.922  0.00  0.00    +0.000 HD
BRANCH  29  32
ATOM     32  C   UNL     1      50.552   3.940  21.023  0.00  0.00    +0.000 C 
ATOM     33  C   UNL     1      50.569   3.267  20.028  0.00  0.00    +0.000 C 
BRANCH  33  34
ATOM     34  C   UNL     1      50.567   2.452  18.831  0.00  0.00    +0.000 C 
ATOM     35  O   UNL     1      51.596   2.419  18.163  0.00  0.00    +0.000 OA
ATOM     36  N   UNL     1      49.390   1.799  18.506  0.00  0.00    +0.000 N 
BRANCH  36  37
ATOM     37  C   UNL     1      49.129   0.877  17.556  0.00  0.00    +0.000 C 
ATOM     38  C   UNL     1      48.901   0.057  16.710  0.00  0.00    +0.000 C 
BRANCH  38  39
ATOM     39  C   UNL     1      48.613  -0.987  15.626  0.00  0.00    +0.000 C 
ATOM     40  C   UNL     1      48.390  -1.808  14.780  0.00  0.00    +0.000 C 
BRANCH  40  41
ATOM     41  C   UNL     1      48.107  -2.859  13.703  0.00  0.00    +0.000 C 
BRANCH  41  42
ATOM     42  N   UNL     1      47.838  -3.856  12.680  0.00  0.00    +0.000 NA
ATOM     43  H   UNL     1      47.413  -3.422  11.863  0.00  0.00    +0.000 HD
ATOM     44  H   UNL     1      48.708  -4.276  12.355  0.00  0.00    +0.000 HD
ENDBRANCH  41  42
ENDBRANCH  40  41
ENDBRANCH  38  39
ENDBRANCH  36  37
BRANCH  36  45
ATOM     45  O   UNL     1      48.369   1.770  19.482  0.00  0.00    +0.000 OA
ATOM     46  H   UNL     1      47.818   2.527  19.209  0.00  0.00    +0.000 HD
ENDBRANCH  36  45
ENDBRANCH  33  34
ENDBRANCH  29  32
ENDBRANCH  27  28
ENDBRANCH  26  27
ENDBRANCH   1  25
TORSDOF 19
ENDMDL
MODEL 7
REMARK VINA RESULT:      -4.5     36.837     37.817
REMARK  Name = Deferoxamine.pdbqt.pdb
REMARK  19 active torsions:
REMARK  status: ('A' for Active; 'I' for Inactive)
REMARK    1  A    between atoms: C_1  and  C_2
REMARK    2  A    between atoms: C_3  and  C_4
REMARK    3  A    between atoms: C_4  and  N_5
REMARK    4  A    between atoms: C_6  and  C_9
REMARK    5  A    between atoms: C_10  and  C_11
REMARK    6  A    between atoms: N_13  and  O_14
REMARK    7  A    between atoms: N_13  and  C_16
REMARK    8  A    between atoms: C_17  and  C_18
REMARK    9  A    between atoms: C_19  and  C_20
REMARK   10  A    between atoms: C_20  and  N_21
REMARK   11  A    between atoms: C_24  and  N_25
REMARK   12  A    between atoms: N_25  and  O_28
REMARK   13  A    between atoms: C_26  and  C_30
REMARK   14  A    between atoms: C_31  and  C_32
REMARK   15  A    between atoms: N_34  and  C_36
REMARK   16  A    between atoms: C_37  and  C_38
REMARK   17  A    between atoms: C_38  and  C_39
REMARK   18  A    between atoms: C_40  and  N_41
REMARK   19  A    between atoms: N_41  and  O_45
REMARK                            x       y       z     vdW  Elec       q    Type
REMARK                         _______ _______ _______ _____ _____    ______ ____
ROOT
ATOM      1  C   UNL     1      39.745 -23.099  26.463  0.00  0.00    +0.000 C 
ATOM      2  C   UNL     1      40.062 -22.664  27.537  0.00  0.00    +0.000 C 
ENDROOT
BRANCH   2   3
ATOM      3  N   UNL     1      40.417 -22.175  28.744  0.00  0.00    +0.000 N 
ATOM      4  C   UNL     1      39.684 -21.469  29.682  0.00  0.00    +0.000 C 
ATOM      5  O   UNL     1      38.568 -20.999  29.491  0.00  0.00    +0.000 OA
BRANCH   4   6
ATOM      6  C   UNL     1      40.299 -21.241  30.974  0.00  0.00    +0.000 C 
ATOM      7  C   UNL     1      40.802 -21.063  32.050  0.00  0.00    +0.000 C 
BRANCH   7   8
ATOM      8  C   UNL     1      41.386 -20.858  33.353  0.00  0.00    +0.000 C 
ATOM      9  O   UNL     1      42.282 -21.602  33.725  0.00  0.00    +0.000 OA
ATOM     10  N   UNL     1      40.861 -19.808  34.072  0.00  0.00    +0.000 N 
ATOM     11  H   UNL     1      40.124 -19.282  33.621  0.00  0.00    +0.000 HD
BRANCH  10  12
ATOM     12  C   UNL     1      41.194 -19.371  35.306  0.00  0.00    +0.000 C 
ATOM     13  C   UNL     1      41.495 -18.986  36.402  0.00  0.00    +0.000 C 
BRANCH  13  14
ATOM     14  C   UNL     1      41.887 -18.499  37.800  0.00  0.00    +0.000 C 
BRANCH  14  15
ATOM     15  C   UNL     1      42.274 -18.005  39.197  0.00  0.00    +0.000 C 
ATOM     16  C   UNL     1      42.581 -17.618  40.291  0.00  0.00    +0.000 C 
BRANCH  16  17
ATOM     17  N   UNL     1      42.929 -17.179  41.516  0.00  0.00    +0.000 N 
ATOM     18  C   UNL     1      42.279 -16.353  42.402  0.00  0.00    +0.000 C 
ATOM     19  O   UNL     1      41.198 -15.799  42.308  0.00  0.00    +0.000 OA
ATOM     20  C   UNL     1      42.931 -16.030  43.723  0.00  0.00    +0.000 C 
BRANCH  17  21
ATOM     21  O   UNL     1      44.200 -17.709  41.860  0.00  0.00    +0.000 OA
ATOM     22  H   UNL     1      44.722 -16.910  42.079  0.00  0.00    +0.000 HD
ENDBRANCH  17  21
ENDBRANCH  16  17
ENDBRANCH  14  15
ENDBRANCH  13  14
ENDBRANCH  10  12
ENDBRANCH   7   8
ENDBRANCH   4   6
BRANCH   3  23
ATOM     23  O   UNL     1      41.589 -22.828  29.188  0.00  0.00    +0.000 OA
ATOM     24  H   UNL     1      41.465 -22.812  30.155  0.00  0.00    +0.000 HD
ENDBRANCH   3  23
ENDBRANCH   2   3
BRANCH   1  25
ATOM     25  C   UNL     1      39.335 -23.639  25.091  0.00  0.00    +0.000 C 
ATOM     26  C   UNL     1      39.005 -24.052  24.014  0.00  0.00    +0.000 C 
BRANCH  26  27
ATOM     27  C   UNL     1      38.575 -24.568  22.637  0.00  0.00    +0.000 C 
BRANCH  27  28
ATOM     28  N   UNL     1      38.179 -25.016  21.425  0.00  0.00    +0.000 N 
ATOM     29  C   UNL     1      38.751 -24.802  20.194  0.00  0.00    +0.000 C 
ATOM     30  O   UNL     1      39.757 -24.142  19.977  0.00  0.00    +0.000 OA
ATOM     31  H   UNL     1      37.348 -25.593  21.446  0.00  0.00    +0.000 HD
BRANCH  29  32
ATOM     32  C   UNL     1      38.076 -25.431  19.084  0.00  0.00    +0.000 C 
ATOM     33  C   UNL     1      37.496 -25.939  18.163  0.00  0.00    +0.000 C 
BRANCH  33  34
ATOM     34  C   UNL     1      36.787 -26.531  17.047  0.00  0.00    +0.000 C 
ATOM     35  O   UNL     1      37.443 -27.167  16.229  0.00  0.00    +0.000 OA
ATOM     36  N   UNL     1      35.423 -26.305  16.966  0.00  0.00    +0.000 N 
BRANCH  36  37
ATOM     37  C   UNL     1      34.492 -26.830  16.143  0.00  0.00    +0.000 C 
ATOM     38  C   UNL     1      33.662 -27.295  15.411  0.00  0.00    +0.000 C 
BRANCH  38  39
ATOM     39  C   UNL     1      32.599 -27.883  14.478  0.00  0.00    +0.000 C 
ATOM     40  C   UNL     1      31.766 -28.339  13.744  0.00  0.00    +0.000 C 
BRANCH  40  41
ATOM     41  C   UNL     1      30.705 -28.918  12.805  0.00  0.00    +0.000 C 
BRANCH  41  42
ATOM     42  N   UNL     1      29.696 -29.468  11.913  0.00  0.00    +0.000 NA
ATOM     43  H   UNL     1      30.038 -29.478  10.954  0.00  0.00    +0.000 HD
ATOM     44  H   UNL     1      29.502 -30.439  12.153  0.00  0.00    +0.000 HD
ENDBRANCH  41  42
ENDBRANCH  40  41
ENDBRANCH  38  39
ENDBRANCH  36  37
BRANCH  36  45
ATOM     45  O   UNL     1      34.788 -25.734  18.092  0.00  0.00    +0.000 OA
ATOM     46  H   UNL     1      34.557 -26.529  18.607  0.00  0.00    +0.000 HD
ENDBRANCH  36  45
ENDBRANCH  33  34
ENDBRANCH  29  32
ENDBRANCH  27  28
ENDBRANCH  26  27
ENDBRANCH   1  25
TORSDOF 19
ENDMDL
MODEL 8
REMARK VINA RESULT:      -4.5     39.801     43.186
REMARK  Name = Deferoxamine.pdbqt.pdb
REMARK  19 active torsions:
REMARK  status: ('A' for Active; 'I' for Inactive)
REMARK    1  A    between atoms: C_1  and  C_2
REMARK    2  A    between atoms: C_3  and  C_4
REMARK    3  A    between atoms: C_4  and  N_5
REMARK    4  A    between atoms: C_6  and  C_9
REMARK    5  A    between atoms: C_10  and  C_11
REMARK    6  A    between atoms: N_13  and  O_14
REMARK    7  A    between atoms: N_13  and  C_16
REMARK    8  A    between atoms: C_17  and  C_18
REMARK    9  A    between atoms: C_19  and  C_20
REMARK   10  A    between atoms: C_20  and  N_21
REMARK   11  A    between atoms: C_24  and  N_25
REMARK   12  A    between atoms: N_25  and  O_28
REMARK   13  A    between atoms: C_26  and  C_30
REMARK   14  A    between atoms: C_31  and  C_32
REMARK   15  A    between atoms: N_34  and  C_36
REMARK   16  A    between atoms: C_37  and  C_38
REMARK   17  A    between atoms: C_38  and  C_39
REMARK   18  A    between atoms: C_40  and  N_41
REMARK   19  A    between atoms: N_41  and  O_45
REMARK                            x       y       z     vdW  Elec       q    Type
REMARK                         _______ _______ _______ _____ _____    ______ ____
ROOT
ATOM      1  C   UNL     1      49.174 -20.152  20.332  0.00  0.00    +0.000 C 
ATOM      2  C   UNL     1      48.928 -20.554  21.437  0.00  0.00    +0.000 C 
ENDROOT
BRANCH   2   3
ATOM      3  N   UNL     1      48.651 -21.005  22.678  0.00  0.00    +0.000 N 
ATOM      4  C   UNL     1      49.404 -21.774  23.548  0.00  0.00    +0.000 C 
ATOM      5  O   UNL     1      50.447 -22.347  23.253  0.00  0.00    +0.000 OA
BRANCH   4   6
ATOM      6  C   UNL     1      48.903 -21.940  24.896  0.00  0.00    +0.000 C 
ATOM      7  C   UNL     1      48.479 -22.089  26.011  0.00  0.00    +0.000 C 
BRANCH   7   8
ATOM      8  C   UNL     1      47.951 -22.277  27.339  0.00  0.00    +0.000 C 
ATOM      9  O   UNL     1      48.674 -22.748  28.205  0.00  0.00    +0.000 OA
ATOM     10  N   UNL     1      46.639 -21.893  27.508  0.00  0.00    +0.000 N 
ATOM     11  H   UNL     1      46.176 -21.514  26.692  0.00  0.00    +0.000 HD
BRANCH  10  12
ATOM     12  C   UNL     1      45.874 -21.944  28.620  0.00  0.00    +0.000 C 
ATOM     13  C   UNL     1      45.197 -21.985  29.610  0.00  0.00    +0.000 C 
BRANCH  13  14
ATOM     14  C   UNL     1      44.338 -22.030  30.877  0.00  0.00    +0.000 C 
BRANCH  14  15
ATOM     15  C   UNL     1      43.485 -22.080  32.148  0.00  0.00    +0.000 C 
ATOM     16  C   UNL     1      42.817 -22.122  33.145  0.00  0.00    +0.000 C 
BRANCH  16  17
ATOM     17  N   UNL     1      42.074 -22.173  34.267  0.00  0.00    +0.000 N 
ATOM     18  C   UNL     1      41.345 -23.196  34.826  0.00  0.00    +0.000 C 
ATOM     19  O   UNL     1      41.184 -24.342  34.446  0.00  0.00    +0.000 OA
ATOM     20  C   UNL     1      40.596 -22.950  36.112  0.00  0.00    +0.000 C 
BRANCH  17  21
ATOM     21  O   UNL     1      42.107 -20.908  34.908  0.00  0.00    +0.000 OA
ATOM     22  H   UNL     1      42.783 -21.030  35.606  0.00  0.00    +0.000 HD
ENDBRANCH  17  21
ENDBRANCH  16  17
ENDBRANCH  14  15
ENDBRANCH  13  14
ENDBRANCH  10  12
ENDBRANCH   7   8
ENDBRANCH   4   6
BRANCH   3  23
ATOM     23  O   UNL     1      47.595 -20.243  23.228  0.00  0.00    +0.000 OA
ATOM     24  H   UNL     1      46.905 -20.923  23.343  0.00  0.00    +0.000 HD
ENDBRANCH   3  23
ENDBRANCH   2   3
BRANCH   1  25
ATOM     25  C   UNL     1      49.493 -19.625  18.930  0.00  0.00    +0.000 C 
ATOM     26  C   UNL     1      49.756 -19.213  17.835  0.00  0.00    +0.000 C 
BRANCH  26  27
ATOM     27  C   UNL     1      50.106 -18.686  16.439  0.00  0.00    +0.000 C 
BRANCH  27  28
ATOM     28  N   UNL     1      50.409 -18.205  15.214  0.00  0.00    +0.000 N 
ATOM     29  C   UNL     1      49.894 -17.109  14.562  0.00  0.00    +0.000 C 
ATOM     30  O   UNL     1      49.038 -16.354  14.999  0.00  0.00    +0.000 OA
ATOM     31  H   UNL     1      51.120 -18.731  14.723  0.00  0.00    +0.000 HD
BRANCH  29  32
ATOM     32  C   UNL     1      50.438 -16.862  13.249  0.00  0.00    +0.000 C 
ATOM     33  C   UNL     1      50.880 -16.635  12.155  0.00  0.00    +0.000 C 
BRANCH  33  34
ATOM     34  C   UNL     1      51.411 -16.340  10.840  0.00  0.00    +0.000 C 
ATOM     35  O   UNL     1      52.431 -15.660  10.778  0.00  0.00    +0.000 OA
ATOM     36  N   UNL     1      50.707 -16.814   9.746  0.00  0.00    +0.000 N 
BRANCH  36  37
ATOM     37  C   UNL     1      51.021 -16.823   8.434  0.00  0.00    +0.000 C 
ATOM     38  C   UNL     1      51.304 -16.832   7.268  0.00  0.00    +0.000 C 
BRANCH  38  39
ATOM     39  C   UNL     1      51.671 -16.842   5.780  0.00  0.00    +0.000 C 
ATOM     40  C   UNL     1      51.956 -16.844   4.615  0.00  0.00    +0.000 C 
BRANCH  40  41
ATOM     41  C   UNL     1      52.320 -16.843   3.128  0.00  0.00    +0.000 C 
BRANCH  41  42
ATOM     42  N   UNL     1      52.664 -16.842   1.716  0.00  0.00    +0.000 NA
ATOM     43  H   UNL     1      53.558 -16.376   1.568  0.00  0.00    +0.000 HD
ATOM     44  H   UNL     1      52.786 -17.796   1.379  0.00  0.00    +0.000 HD
ENDBRANCH  41  42
ENDBRANCH  40  41
ENDBRANCH  38  39
ENDBRANCH  36  37
BRANCH  36  45
ATOM     45  O   UNL     1      49.677 -17.751   9.990  0.00  0.00    +0.000 OA
ATOM     46  H   UNL     1      49.040 -17.212  10.493  0.00  0.00    +0.000 HD
ENDBRANCH  36  45
ENDBRANCH  33  34
ENDBRANCH  29  32
ENDBRANCH  27  28
ENDBRANCH  26  27
ENDBRANCH   1  25
TORSDOF 19
ENDMDL
MODEL 9
REMARK VINA RESULT:      -4.5     40.495     43.666
REMARK  Name = Deferoxamine.pdbqt.pdb
REMARK  19 active torsions:
REMARK  status: ('A' for Active; 'I' for Inactive)
REMARK    1  A    between atoms: C_1  and  C_2
REMARK    2  A    between atoms: C_3  and  C_4
REMARK    3  A    between atoms: C_4  and  N_5
REMARK    4  A    between atoms: C_6  and  C_9
REMARK    5  A    between atoms: C_10  and  C_11
REMARK    6  A    between atoms: N_13  and  O_14
REMARK    7  A    between atoms: N_13  and  C_16
REMARK    8  A    between atoms: C_17  and  C_18
REMARK    9  A    between atoms: C_19  and  C_20
REMARK   10  A    between atoms: C_20  and  N_21
REMARK   11  A    between atoms: C_24  and  N_25
REMARK   12  A    between atoms: N_25  and  O_28
REMARK   13  A    between atoms: C_26  and  C_30
REMARK   14  A    between atoms: C_31  and  C_32
REMARK   15  A    between atoms: N_34  and  C_36
REMARK   16  A    between atoms: C_37  and  C_38
REMARK   17  A    between atoms: C_38  and  C_39
REMARK   18  A    between atoms: C_40  and  N_41
REMARK   19  A    between atoms: N_41  and  O_45
REMARK                            x       y       z     vdW  Elec       q    Type
REMARK                         _______ _______ _______ _____ _____    ______ ____
ROOT
ATOM      1  C   UNL     1      48.752 -19.963  20.019  0.00  0.00    +0.000 C 
ATOM      2  C   UNL     1      48.413 -20.315  21.117  0.00  0.00    +0.000 C 
ENDROOT
BRANCH   2   3
ATOM      3  N   UNL     1      48.031 -20.709  22.349  0.00  0.00    +0.000 N 
ATOM      4  C   UNL     1      48.745 -21.332  23.359  0.00  0.00    +0.000 C 
ATOM      5  O   UNL     1      49.868 -21.807  23.233  0.00  0.00    +0.000 OA
BRANCH   4   6
ATOM      6  C   UNL     1      48.100 -21.461  24.650  0.00  0.00    +0.000 C 
ATOM      7  C   UNL     1      47.557 -21.579  25.715  0.00  0.00    +0.000 C 
BRANCH   7   8
ATOM      8  C   UNL     1      46.887 -21.728  26.983  0.00  0.00    +0.000 C 
ATOM      9  O   UNL     1      45.667 -21.664  27.020  0.00  0.00    +0.000 OA
ATOM     10  N   UNL     1      47.715 -21.936  28.063  0.00  0.00    +0.000 N 
ATOM     11  H   UNL     1      48.707 -21.969  27.865  0.00  0.00    +0.000 HD
BRANCH  10  12
ATOM     12  C   UNL     1      47.391 -22.109  29.363  0.00  0.00    +0.000 C 
ATOM     13  C   UNL     1      47.101 -22.269  30.516  0.00  0.00    +0.000 C 
BRANCH  13  14
ATOM     14  C   UNL     1      46.729 -22.482  31.987  0.00  0.00    +0.000 C 
BRANCH  14  15
ATOM     15  C   UNL     1      46.353 -22.702  33.455  0.00  0.00    +0.000 C 
ATOM     16  C   UNL     1      46.057 -22.873  34.606  0.00  0.00    +0.000 C 
BRANCH  16  17
ATOM     17  N   UNL     1      45.718 -23.061  35.896  0.00  0.00    +0.000 N 
ATOM     18  C   UNL     1      45.690 -22.193  36.961  0.00  0.00    +0.000 C 
ATOM     19  O   UNL     1      45.965 -21.007  37.014  0.00  0.00    +0.000 OA
ATOM     20  C   UNL     1      45.262 -22.702  38.315  0.00  0.00    +0.000 C 
BRANCH  17  21
ATOM     21  O   UNL     1      45.346 -24.417  36.090  0.00  0.00    +0.000 OA
ATOM     22  H   UNL     1      44.368 -24.385  36.059  0.00  0.00    +0.000 HD
ENDBRANCH  17  21
ENDBRANCH  16  17
ENDBRANCH  14  15
ENDBRANCH  13  14
ENDBRANCH  10  12
ENDBRANCH   7   8
ENDBRANCH   4   6
BRANCH   3  23
ATOM     23  O   UNL     1      46.845 -20.032  22.711  0.00  0.00    +0.000 OA
ATOM     24  H   UNL     1      47.179 -19.394  23.369  0.00  0.00    +0.000 HD
ENDBRANCH   3  23
ENDBRANCH   2   3
BRANCH   1  25
ATOM     25  C   UNL     1      49.186 -19.500  18.626  0.00  0.00    +0.000 C 
ATOM     26  C   UNL     1      49.539 -19.133  17.540  0.00  0.00    +0.000 C 
BRANCH  26  27
ATOM     27  C   UNL     1      50.002 -18.660  16.158  0.00  0.00    +0.000 C 
BRANCH  27  28
ATOM     28  N   UNL     1      50.397 -18.229  14.940  0.00  0.00    +0.000 N 
ATOM     29  C   UNL     1      50.028 -17.092  14.262  0.00  0.00    +0.000 C 
ATOM     30  O   UNL     1      49.246 -16.242  14.662  0.00  0.00    +0.000 OA
ATOM     31  H   UNL     1      51.063 -18.837  14.479  0.00  0.00    +0.000 HD
BRANCH  29  32
ATOM     32  C   UNL     1      50.642 -16.921  12.967  0.00  0.00    +0.000 C 
ATOM     33  C   UNL     1      51.142 -16.757  11.887  0.00  0.00    +0.000 C 
BRANCH  33  34
ATOM     34  C   UNL     1      51.747 -16.537  10.590  0.00  0.00    +0.000 C 
ATOM     35  O   UNL     1      52.884 -16.077  10.562  0.00  0.00    +0.000 OA
ATOM     36  N   UNL     1      50.983 -16.827   9.472  0.00  0.00    +0.000 N 
BRANCH  36  37
ATOM     37  C   UNL     1      51.313 -16.861   8.165  0.00  0.00    +0.000 C 
ATOM     38  C   UNL     1      51.610 -16.894   7.002  0.00  0.00    +0.000 C 
BRANCH  38  39
ATOM     39  C   UNL     1      51.996 -16.934   5.520  0.00  0.00    +0.000 C 
ATOM     40  C   UNL     1      52.297 -16.960   4.359  0.00  0.00    +0.000 C 
BRANCH  40  41
ATOM     41  C   UNL     1      52.681 -16.989   2.877  0.00  0.00    +0.000 C 
BRANCH  41  42
ATOM     42  N   UNL     1      53.045 -17.018   1.470  0.00  0.00    +0.000 NA
ATOM     43  H   UNL     1      54.015 -16.732   1.348  0.00  0.00    +0.000 HD
ATOM     44  H   UNL     1      52.983 -17.967   1.106  0.00  0.00    +0.000 HD
ENDBRANCH  41  42
ENDBRANCH  40  41
ENDBRANCH  38  39
ENDBRANCH  36  37
BRANCH  36  45
ATOM     45  O   UNL     1      49.781 -17.543   9.672  0.00  0.00    +0.000 OA
ATOM     46  H   UNL     1      49.256 -16.901  10.185  0.00  0.00    +0.000 HD
ENDBRANCH  36  45
ENDBRANCH  33  34
ENDBRANCH  29  32
ENDBRANCH  27  28
ENDBRANCH  26  27
ENDBRANCH   1  25
TORSDOF 19
ENDMDL
