MODEL 1
REMARK VINA RESULT:      -7.4      0.000      0.000
REMARK  Name = 
REMARK  25 active torsions:
REMARK  status: ('A' for Active; 'I' for Inactive)
REMARK    1  A    between atoms: O_2  and  C_17
REMARK    2  A    between atoms: O_2  and  C_36
REMARK    3  A    between atoms: O_3  and  C_20
REMARK    4  A    between atoms: O_3  and  C_37
REMARK    5  A    between atoms: O_4  and  C_21
REMARK    6  A    between atoms: O_5  and  C_22
REMARK    7  A    between atoms: O_7  and  C_30
REMARK    8  A    between atoms: O_8  and  C_31
REMARK    9  A    between atoms: O_8  and  C_39
REMARK   10  A    between atoms: O_12  and  C_41
REMARK   11  A    between atoms: O_13  and  C_51
REMARK   12  A    between atoms: O_13  and  C_55
REMARK   13  A    between atoms: N_15  and  C_44
REMARK   14  A    between atoms: C_18  and  C_29
REMARK   15  A    between atoms: C_24  and  C_33
REMARK   16  A    between atoms: C_24  and  C_34
REMARK   17  A    between atoms: C_32  and  C_35
REMARK   18  A    between atoms: C_36  and  C_38
REMARK   19  A    between atoms: C_37  and  C_40
REMARK   20  A    between atoms: C_39  and  C_41
REMARK   21  A    between atoms: C_41  and  C_44
REMARK   22  A    between atoms: C_44  and  C_48
REMARK   23  A    between atoms: C_55  and  C_56
REMARK   24  A    between atoms: C_55  and  C_57
REMARK   25  A    between atoms: C_55  and  C_58
REMARK                            x       y       z     vdW  Elec       q    Type
REMARK                         _______ _______ _______ _____ _____    ______ ____
ROOT
ATOM      1  O   UNL     1      41.881   6.963  12.926  0.00  0.00    +0.000 OA
ATOM      2  O   UNL     1      39.991   4.523   6.957  0.00  0.00    +0.000 OA
ATOM      3  C   UNL     1      40.666   4.187  11.291  0.00  0.00    +0.000 C 
ATOM      4  C   UNL     1      41.723   4.991  12.105  0.00  0.00    +0.000 C 
ATOM      5  C   UNL     1      40.983   4.554   9.457  0.00  0.00    +0.000 C 
ATOM      6  C   UNL     1      41.179   6.439  11.767  0.00  0.00    +0.000 C 
ATOM      7  C   UNL     1      40.458   2.450  11.934  0.00  0.00    +0.000 C 
ATOM      8  C   UNL     1      39.513   0.845  11.586  0.00  0.00    +0.000 C 
ATOM      9  C   UNL     1      40.763   6.119   9.342  0.00  0.00    +0.000 C 
ATOM     10  C   UNL     1      41.523   6.981  10.396  0.00  0.00    +0.000 C 
ATOM     11  C   UNL     1      38.580   0.400  10.143  0.00  0.00    +0.000 C 
ATOM     12  C   UNL     1      41.634   5.638  13.544  0.00  0.00    +0.000 C 
ATOM     13  C   UNL     1      40.138   3.788   7.959  0.00  0.00    +0.000 C 
ATOM     14  C   UNL     1      40.624  -0.303  11.567  0.00  0.00    +0.000 C 
ATOM     15  C   UNL     1      39.444   0.570   8.807  0.00  0.00    +0.000 C 
ATOM     16  C   UNL     1      42.508   4.372   9.060  0.00  0.00    +0.000 C 
ATOM     17  C   UNL     1      39.461   2.006   7.746  0.00  0.00    +0.000 C 
ATOM     18  C   UNL     1      41.203  -0.760  10.151  0.00  0.00    +0.000 C 
ATOM     19  C   UNL     1      40.556  -0.239   8.818  0.00  0.00    +0.000 C 
ATOM     20  C   UNL     1      38.227  -1.166  10.274  0.00  0.00    +0.000 C 
ATOM     21  C   UNL     1      37.093   0.863  10.022  0.00  0.00    +0.000 C 
ATOM     22  C   UNL     1      41.404  -0.466   7.590  0.00  0.00    +0.000 C 
ENDROOT
BRANCH  17  23
ATOM     23  O   UNL     1      38.207   1.971   7.065  0.00  0.00    +0.000 OA
ATOM     24  H   UNL     1      37.802   1.122   7.326  0.00  0.00    +0.000 HD
ENDBRANCH  17  23
BRANCH   9  25
ATOM     25  O   UNL     1      39.372   6.397   9.507  0.00  0.00    +0.000 OA
ATOM     26  H   UNL     1      38.883   5.642   9.133  0.00  0.00    +0.000 HD
ENDBRANCH   9  25
BRANCH   8  27
ATOM     27  O   UNL     1      38.717   0.630  12.768  0.00  0.00    +0.000 OA
ATOM     28  H   UNL     1      37.841   0.295  12.505  0.00  0.00    +0.000 HD
ENDBRANCH   8  27
BRANCH  18  29
ATOM     29  O   UNL     1      42.610  -0.384  10.109  0.00  0.00    +0.000 OA
BRANCH  29  31
ATOM     30  O   UNL     1      44.040  -1.709   8.967  0.00  0.00    +0.000 OA
ATOM     31  C   UNL     1      43.528  -1.381  10.032  0.00  0.00    +0.000 C 
BRANCH  31  32
ATOM     32  C   UNL     1      43.750  -2.164  11.331  0.00  0.00    +0.000 C 
BRANCH  32  33
ATOM     33  O   UNL     1      43.406  -1.470  12.535  0.00  0.00    +0.000 OA
ATOM     34  H   UNL     1      43.294  -2.156  13.220  0.00  0.00    +0.000 HD
ENDBRANCH  32  33
BRANCH  32  35
ATOM     35  C   UNL     1      45.220  -2.660  11.360  0.00  0.00    +0.000 C 
BRANCH  35  36
ATOM     36  C   UNL     1      45.332  -4.150  11.664  0.00  0.00    +0.000 A 
ATOM     37  C   UNL     1      46.223  -4.944  10.924  0.00  0.00    +0.000 A 
ATOM     38  C   UNL     1      44.594  -4.755  12.696  0.00  0.00    +0.000 A 
ATOM     39  C   UNL     1      46.353  -6.309  11.190  0.00  0.00    +0.000 A 
ATOM     40  C   UNL     1      44.725  -6.120  12.959  0.00  0.00    +0.000 A 
ATOM     41  C   UNL     1      45.602  -6.897  12.204  0.00  0.00    +0.000 A 
ENDBRANCH  35  36
BRANCH  35  43
ATOM     42  O   UNL     1      48.018  -2.017  11.241  0.00  0.00    +0.000 OA
ATOM     43  N   UNL     1      46.013  -1.922  12.334  0.00  0.00    +0.000 N 
ATOM     44  C   UNL     1      47.356  -1.762  12.233  0.00  0.00    +0.000 C 
ATOM     45  H   UNL     1      45.614  -1.783  13.253  0.00  0.00    +0.000 HD
BRANCH  44  46
ATOM     46  O   UNL     1      47.819  -1.255  13.396  0.00  0.00    +0.000 OA
BRANCH  46  47
ATOM     47  C   UNL     1      48.562  -2.086  14.324  0.00  0.00    +0.000 C 
ATOM     48  C   UNL     1      50.055  -2.110  13.981  0.00  0.00    +0.000 C 
ATOM     49  C   UNL     1      48.382  -1.404  15.688  0.00  0.00    +0.000 C 
ATOM     50  C   UNL     1      47.970  -3.498  14.400  0.00  0.00    +0.000 C 
ENDBRANCH  46  47
ENDBRANCH  44  46
ENDBRANCH  35  43
ENDBRANCH  32  35
ENDBRANCH  31  32
ENDBRANCH  29  31
ENDBRANCH  18  29
BRANCH   7  51
ATOM     51  O   UNL     1      41.342   2.101  11.023  0.00  0.00    +0.000 OA
BRANCH  51  53
ATOM     52  O   UNL     1      41.627   2.040  13.010  0.00  0.00    +0.000 OA
ATOM     53  C   UNL     1      42.299   1.913  11.991  0.00  0.00    +0.000 C 
BRANCH  53  54
ATOM     54  C   UNL     1      44.180   1.828  11.639  0.00  0.00    +0.000 A 
ATOM     55  C   UNL     1      44.809   2.050  10.337  0.00  0.00    +0.000 A 
ATOM     56  C   UNL     1      45.236   1.675  12.589  0.00  0.00    +0.000 A 
ATOM     57  C   UNL     1      46.197   2.104  10.051  0.00  0.00    +0.000 A 
ATOM     58  C   UNL     1      46.635   1.725  12.321  0.00  0.00    +0.000 A 
ATOM     59  C   UNL     1      47.118   1.940  11.053  0.00  0.00    +0.000 A 
ENDBRANCH  53  54
ENDBRANCH  51  53
ENDBRANCH   7  51
BRANCH   4  60
ATOM     60  O   UNL     1      43.074   4.742  11.651  0.00  0.00    +0.000 OA
BRANCH  60  62
ATOM     61  O   UNL     1      44.455   4.832  13.410  0.00  0.00    +0.000 OA
ATOM     62  C   UNL     1      44.183   5.209  12.272  0.00  0.00    +0.000 C 
ATOM     63  C   UNL     1      44.997   6.270  11.602  0.00  0.00    +0.000 C 
ENDBRANCH  60  62
ENDBRANCH   4  60
TORSDOF 17
ENDMDL
MODEL 2
REMARK VINA RESULT:      -7.3     24.720     29.254
REMARK  Name = 
REMARK  25 active torsions:
REMARK  status: ('A' for Active; 'I' for Inactive)
REMARK    1  A    between atoms: O_2  and  C_17
REMARK    2  A    between atoms: O_2  and  C_36
REMARK    3  A    between atoms: O_3  and  C_20
REMARK    4  A    between atoms: O_3  and  C_37
REMARK    5  A    between atoms: O_4  and  C_21
REMARK    6  A    between atoms: O_5  and  C_22
REMARK    7  A    between atoms: O_7  and  C_30
REMARK    8  A    between atoms: O_8  and  C_31
REMARK    9  A    between atoms: O_8  and  C_39
REMARK   10  A    between atoms: O_12  and  C_41
REMARK   11  A    between atoms: O_13  and  C_51
REMARK   12  A    between atoms: O_13  and  C_55
REMARK   13  A    between atoms: N_15  and  C_44
REMARK   14  A    between atoms: C_18  and  C_29
REMARK   15  A    between atoms: C_24  and  C_33
REMARK   16  A    between atoms: C_24  and  C_34
REMARK   17  A    between atoms: C_32  and  C_35
REMARK   18  A    between atoms: C_36  and  C_38
REMARK   19  A    between atoms: C_37  and  C_40
REMARK   20  A    between atoms: C_39  and  C_41
REMARK   21  A    between atoms: C_41  and  C_44
REMARK   22  A    between atoms: C_44  and  C_48
REMARK   23  A    between atoms: C_55  and  C_56
REMARK   24  A    between atoms: C_55  and  C_57
REMARK   25  A    between atoms: C_55  and  C_58
REMARK                            x       y       z     vdW  Elec       q    Type
REMARK                         _______ _______ _______ _____ _____    ______ ____
ROOT
ATOM      1  O   UNL     1      15.831  20.216  21.390  0.00  0.00    +0.000 OA
ATOM      2  O   UNL     1      22.329  18.980  20.207  0.00  0.00    +0.000 OA
ATOM      3  C   UNL     1      18.031  18.318  19.543  0.00  0.00    +0.000 C 
ATOM      4  C   UNL     1      16.910  18.542  20.600  0.00  0.00    +0.000 C 
ATOM      5  C   UNL     1      19.689  18.524  20.443  0.00  0.00    +0.000 C 
ATOM      6  C   UNL     1      17.173  20.083  20.849  0.00  0.00    +0.000 C 
ATOM      7  C   UNL     1      17.675  16.857  18.441  0.00  0.00    +0.000 C 
ATOM      8  C   UNL     1      18.422  15.862  17.013  0.00  0.00    +0.000 C 
ATOM      9  C   UNL     1      19.651  20.020  20.966  0.00  0.00    +0.000 C 
ATOM     10  C   UNL     1      18.354  20.428  21.731  0.00  0.00    +0.000 C 
ATOM     11  C   UNL     1      20.080  15.909  16.379  0.00  0.00    +0.000 C 
ATOM     12  C   UNL     1      15.455  19.141  20.441  0.00  0.00    +0.000 C 
ATOM     13  C   UNL     1      21.421  18.246  19.759  0.00  0.00    +0.000 C 
ATOM     14  C   UNL     1      18.342  14.335  17.475  0.00  0.00    +0.000 C 
ATOM     15  C   UNL     1      21.161  15.685  17.538  0.00  0.00    +0.000 C 
ATOM     16  C   UNL     1      19.760  17.673  21.780  0.00  0.00    +0.000 C 
ATOM     17  C   UNL     1      22.002  16.969  18.450  0.00  0.00    +0.000 C 
ATOM     18  C   UNL     1      19.642  13.683  18.134  0.00  0.00    +0.000 C 
ATOM     19  C   UNL     1      21.008  14.459  18.142  0.00  0.00    +0.000 C 
ATOM     20  C   UNL     1      20.229  14.674  15.357  0.00  0.00    +0.000 C 
ATOM     21  C   UNL     1      20.466  16.999  15.330  0.00  0.00    +0.000 C 
ATOM     22  C   UNL     1      22.037  13.887  19.085  0.00  0.00    +0.000 C 
ENDROOT
BRANCH  17  23
ATOM     23  O   UNL     1      22.941  17.518  17.524  0.00  0.00    +0.000 OA
ATOM     24  H   UNL     1      22.476  17.520  16.666  0.00  0.00    +0.000 HD
ENDBRANCH  17  23
BRANCH   9  25
ATOM     25  O   UNL     1      19.761  20.898  19.845  0.00  0.00    +0.000 OA
ATOM     26  H   UNL     1      18.900  21.343  19.745  0.00  0.00    +0.000 HD
ENDBRANCH   9  25
BRANCH   8  27
ATOM     27  O   UNL     1      17.482  16.017  15.932  0.00  0.00    +0.000 OA
ATOM     28  H   UNL     1      17.598  15.285  15.301  0.00  0.00    +0.000 HD
ENDBRANCH   8  27
BRANCH  18  29
ATOM     29  O   UNL     1      19.325  13.378  19.523  0.00  0.00    +0.000 OA
BRANCH  29  31
ATOM     30  O   UNL     1      19.851  11.750  20.997  0.00  0.00    +0.000 OA
ATOM     31  C   UNL     1      19.381  12.080  19.914  0.00  0.00    +0.000 C 
BRANCH  31  32
ATOM     32  C   UNL     1      18.973  11.060  18.845  0.00  0.00    +0.000 C 
BRANCH  32  33
ATOM     33  O   UNL     1      17.710  10.418  19.058  0.00  0.00    +0.000 OA
ATOM     34  H   UNL     1      17.703  10.140  19.993  0.00  0.00    +0.000 HD
ENDBRANCH  32  33
BRANCH  32  35
ATOM     35  C   UNL     1      20.119  10.025  18.691  0.00  0.00    +0.000 C 
BRANCH  35  36
ATOM     36  C   UNL     1      20.921  10.223  17.410  0.00  0.00    +0.000 A 
ATOM     37  C   UNL     1      20.372  10.972  16.357  0.00  0.00    +0.000 A 
ATOM     38  C   UNL     1      22.220   9.707  17.259  0.00  0.00    +0.000 A 
ATOM     39  C   UNL     1      21.089  11.178  15.176  0.00  0.00    +0.000 A 
ATOM     40  C   UNL     1      22.934   9.915  16.077  0.00  0.00    +0.000 A 
ATOM     41  C   UNL     1      22.368  10.647  15.036  0.00  0.00    +0.000 A 
ENDBRANCH  35  36
BRANCH  35  43
ATOM     42  O   UNL     1      19.969   8.241  20.939  0.00  0.00    +0.000 OA
ATOM     43  N   UNL     1      19.612   8.659  18.720  0.00  0.00    +0.000 N 
ATOM     44  C   UNL     1      19.683   7.862  19.816  0.00  0.00    +0.000 C 
ATOM     45  H   UNL     1      19.479   8.191  17.834  0.00  0.00    +0.000 HD
BRANCH  44  46
ATOM     46  O   UNL     1      19.360   6.602  19.454  0.00  0.00    +0.000 OA
BRANCH  46  47
ATOM     47  C   UNL     1      18.064   6.043  19.791  0.00  0.00    +0.000 C 
ATOM     48  C   UNL     1      16.969   7.115  19.767  0.00  0.00    +0.000 C 
ATOM     49  C   UNL     1      17.777   5.024  18.678  0.00  0.00    +0.000 C 
ATOM     50  C   UNL     1      18.111   5.303  21.133  0.00  0.00    +0.000 C 
ENDBRANCH  46  47
ENDBRANCH  44  46
ENDBRANCH  35  43
ENDBRANCH  32  35
ENDBRANCH  31  32
ENDBRANCH  29  31
ENDBRANCH  18  29
BRANCH   7  51
ATOM     51  O   UNL     1      18.405  16.156  19.283  0.00  0.00    +0.000 OA
BRANCH  51  53
ATOM     52  O   UNL     1      16.425  15.973  19.010  0.00  0.00    +0.000 OA
ATOM     53  C   UNL     1      17.289  15.498  19.739  0.00  0.00    +0.000 C 
BRANCH  53  54
ATOM     54  C   UNL     1      17.250  14.419  21.321  0.00  0.00    +0.000 A 
ATOM     55  C   UNL     1      16.372  13.270  21.542  0.00  0.00    +0.000 A 
ATOM     56  C   UNL     1      18.138  14.483  22.439  0.00  0.00    +0.000 A 
ATOM     57  C   UNL     1      16.381  12.380  22.647  0.00  0.00    +0.000 A 
ATOM     58  C   UNL     1      18.163  13.599  23.557  0.00  0.00    +0.000 A 
ATOM     59  C   UNL     1      17.286  12.548  23.663  0.00  0.00    +0.000 A 
ENDBRANCH  53  54
ENDBRANCH  51  53
ENDBRANCH   7  51
BRANCH   4  60
ATOM     60  O   UNL     1      17.082  17.712  21.773  0.00  0.00    +0.000 OA
BRANCH  60  62
ATOM     61  O   UNL     1      15.148  16.750  22.356  0.00  0.00    +0.000 OA
ATOM     62  C   UNL     1      16.104  17.454  22.672  0.00  0.00    +0.000 C 
ATOM     63  C   UNL     1      16.149  18.130  24.006  0.00  0.00    +0.000 C 
ENDBRANCH  60  62
ENDBRANCH   4  60
TORSDOF 17
ENDMDL
MODEL 3
REMARK VINA RESULT:      -7.2      1.791      3.118
REMARK  Name = 
REMARK  25 active torsions:
REMARK  status: ('A' for Active; 'I' for Inactive)
REMARK    1  A    between atoms: O_2  and  C_17
REMARK    2  A    between atoms: O_2  and  C_36
REMARK    3  A    between atoms: O_3  and  C_20
REMARK    4  A    between atoms: O_3  and  C_37
REMARK    5  A    between atoms: O_4  and  C_21
REMARK    6  A    between atoms: O_5  and  C_22
REMARK    7  A    between atoms: O_7  and  C_30
REMARK    8  A    between atoms: O_8  and  C_31
REMARK    9  A    between atoms: O_8  and  C_39
REMARK   10  A    between atoms: O_12  and  C_41
REMARK   11  A    between atoms: O_13  and  C_51
REMARK   12  A    between atoms: O_13  and  C_55
REMARK   13  A    between atoms: N_15  and  C_44
REMARK   14  A    between atoms: C_18  and  C_29
REMARK   15  A    between atoms: C_24  and  C_33
REMARK   16  A    between atoms: C_24  and  C_34
REMARK   17  A    between atoms: C_32  and  C_35
REMARK   18  A    between atoms: C_36  and  C_38
REMARK   19  A    between atoms: C_37  and  C_40
REMARK   20  A    between atoms: C_39  and  C_41
REMARK   21  A    between atoms: C_41  and  C_44
REMARK   22  A    between atoms: C_44  and  C_48
REMARK   23  A    between atoms: C_55  and  C_56
REMARK   24  A    between atoms: C_55  and  C_57
REMARK   25  A    between atoms: C_55  and  C_58
REMARK                            x       y       z     vdW  Elec       q    Type
REMARK                         _______ _______ _______ _____ _____    ______ ____
ROOT
ATOM      1  O   UNL     1      42.320   7.536  10.421  0.00  0.00    +0.000 OA
ATOM      2  O   UNL     1      39.344   3.271   6.165  0.00  0.00    +0.000 OA
ATOM      3  C   UNL     1      40.502   4.621  10.189  0.00  0.00    +0.000 C 
ATOM      4  C   UNL     1      41.763   5.470  10.527  0.00  0.00    +0.000 C 
ATOM      5  C   UNL     1      40.637   4.135   8.359  0.00  0.00    +0.000 C 
ATOM      6  C   UNL     1      41.406   6.726   9.632  0.00  0.00    +0.000 C 
ATOM      7  C   UNL     1      40.116   3.375  11.520  0.00  0.00    +0.000 C 
ATOM      8  C   UNL     1      38.903   1.981  11.938  0.00  0.00    +0.000 C 
ATOM      9  C   UNL     1      40.643   5.526   7.599  0.00  0.00    +0.000 C 
ATOM     10  C   UNL     1      41.652   6.583   8.146  0.00  0.00    +0.000 C 
ATOM     11  C   UNL     1      37.739   1.170  10.871  0.00  0.00    +0.000 C 
ATOM     12  C   UNL     1      41.955   6.655  11.556  0.00  0.00    +0.000 C 
ATOM     13  C   UNL     1      39.503   2.999   7.375  0.00  0.00    +0.000 C 
ATOM     14  C   UNL     1      39.817   0.737  12.353  0.00  0.00    +0.000 C 
ATOM     15  C   UNL     1      38.443   0.608   9.548  0.00  0.00    +0.000 C 
ATOM     16  C   UNL     1      42.054   3.519   8.001  0.00  0.00    +0.000 C 
ATOM     17  C   UNL     1      38.543   1.451   7.976  0.00  0.00    +0.000 C 
ATOM     18  C   UNL     1      40.136  -0.361  11.239  0.00  0.00    +0.000 C 
ATOM     19  C   UNL     1      39.412  -0.320   9.846  0.00  0.00    +0.000 C 
ATOM     20  C   UNL     1      37.172  -0.106  11.675  0.00  0.00    +0.000 C 
ATOM     21  C   UNL     1      36.336   1.816  10.639  0.00  0.00    +0.000 C 
ATOM     22  C   UNL     1      40.054  -1.187   8.791  0.00  0.00    +0.000 C 
ENDROOT
BRANCH  17  23
ATOM     23  O   UNL     1      37.222   1.380   7.440  0.00  0.00    +0.000 OA
ATOM     24  H   UNL     1      37.271   1.851   6.587  0.00  0.00    +0.000 HD
ENDBRANCH  17  23
BRANCH   9  25
ATOM     25  O   UNL     1      39.342   6.108   7.701  0.00  0.00    +0.000 OA
ATOM     26  H   UNL     1      39.406   6.837   8.343  0.00  0.00    +0.000 HD
ENDBRANCH   9  25
BRANCH   8  27
ATOM     27  O   UNL     1      38.239   2.425  13.137  0.00  0.00    +0.000 OA
ATOM     28  H   UNL     1      37.873   3.315  12.988  0.00  0.00    +0.000 HD
ENDBRANCH   8  27
BRANCH  18  29
ATOM     29  O   UNL     1      41.567  -0.312  10.970  0.00  0.00    +0.000 OA
BRANCH  29  31
ATOM     30  O   UNL     1      42.795  -1.685  12.277  0.00  0.00    +0.000 OA
ATOM     31  C   UNL     1      42.290  -1.439  11.187  0.00  0.00    +0.000 C 
BRANCH  31  32
ATOM     32  C   UNL     1      42.565  -2.287   9.940  0.00  0.00    +0.000 C 
BRANCH  32  33
ATOM     33  O   UNL     1      42.102  -3.641  10.002  0.00  0.00    +0.000 OA
ATOM     34  H   UNL     1      42.489  -4.094   9.230  0.00  0.00    +0.000 HD
ENDBRANCH  32  33
BRANCH  32  35
ATOM     35  C   UNL     1      44.083  -2.218   9.624  0.00  0.00    +0.000 C 
BRANCH  35  36
ATOM     36  C   UNL     1      44.366  -2.066   8.134  0.00  0.00    +0.000 A 
ATOM     37  C   UNL     1      43.823  -0.977   7.432  0.00  0.00    +0.000 A 
ATOM     38  C   UNL     1      45.191  -2.966   7.438  0.00  0.00    +0.000 A 
ATOM     39  C   UNL     1      44.075  -0.808   6.069  0.00  0.00    +0.000 A 
ATOM     40  C   UNL     1      45.442  -2.794   6.076  0.00  0.00    +0.000 A 
ATOM     41  C   UNL     1      44.882  -1.718   5.391  0.00  0.00    +0.000 A 
ENDBRANCH  35  36
BRANCH  35  43
ATOM     42  O   UNL     1      45.908  -2.395  11.837  0.00  0.00    +0.000 OA
ATOM     43  N   UNL     1      44.784  -3.396  10.117  0.00  0.00    +0.000 N 
ATOM     44  C   UNL     1      45.710  -3.352  11.108  0.00  0.00    +0.000 C 
ATOM     45  H   UNL     1      44.810  -4.210   9.516  0.00  0.00    +0.000 HD
BRANCH  44  46
ATOM     46  O   UNL     1      46.342  -4.544  11.161  0.00  0.00    +0.000 OA
BRANCH  46  47
ATOM     47  C   UNL     1      46.046  -5.494  12.217  0.00  0.00    +0.000 C 
ATOM     48  C   UNL     1      44.594  -5.369  12.690  0.00  0.00    +0.000 C 
ATOM     49  C   UNL     1      46.233  -6.872  11.564  0.00  0.00    +0.000 C 
ATOM     50  C   UNL     1      47.040  -5.361  13.376  0.00  0.00    +0.000 C 
ENDBRANCH  46  47
ENDBRANCH  44  46
ENDBRANCH  35  43
ENDBRANCH  32  35
ENDBRANCH  31  32
ENDBRANCH  29  31
ENDBRANCH  18  29
BRANCH   7  51
ATOM     51  O   UNL     1      40.816   2.522  10.801  0.00  0.00    +0.000 OA
BRANCH  51  53
ATOM     52  O   UNL     1      41.325   3.228  12.610  0.00  0.00    +0.000 OA
ATOM     53  C   UNL     1      41.817   2.515  11.742  0.00  0.00    +0.000 C 
BRANCH  53  54
ATOM     54  C   UNL     1      43.569   1.802  11.440  0.00  0.00    +0.000 A 
ATOM     55  C   UNL     1      44.189   1.606  10.129  0.00  0.00    +0.000 A 
ATOM     56  C   UNL     1      44.561   1.489  12.419  0.00  0.00    +0.000 A 
ATOM     57  C   UNL     1      45.516   1.184   9.860  0.00  0.00    +0.000 A 
ATOM     58  C   UNL     1      45.899   1.064  12.169  0.00  0.00    +0.000 A 
ATOM     59  C   UNL     1      46.378   0.911  10.891  0.00  0.00    +0.000 A 
ENDBRANCH  53  54
ENDBRANCH  51  53
ENDBRANCH   7  51
BRANCH   4  60
ATOM     60  O   UNL     1      42.993   4.805  10.155  0.00  0.00    +0.000 OA
BRANCH  60  62
ATOM     61  O   UNL     1      44.467   5.005  11.826  0.00  0.00    +0.000 OA
ATOM     62  C   UNL     1      44.214   5.142  10.632  0.00  0.00    +0.000 C 
ATOM     63  C   UNL     1      45.199   5.789   9.710  0.00  0.00    +0.000 C 
ENDBRANCH  60  62
ENDBRANCH   4  60
TORSDOF 17
ENDMDL
MODEL 4
REMARK VINA RESULT:      -7.2      1.806      4.331
REMARK  Name = 
REMARK  25 active torsions:
REMARK  status: ('A' for Active; 'I' for Inactive)
REMARK    1  A    between atoms: O_2  and  C_17
REMARK    2  A    between atoms: O_2  and  C_36
REMARK    3  A    between atoms: O_3  and  C_20
REMARK    4  A    between atoms: O_3  and  C_37
REMARK    5  A    between atoms: O_4  and  C_21
REMARK    6  A    between atoms: O_5  and  C_22
REMARK    7  A    between atoms: O_7  and  C_30
REMARK    8  A    between atoms: O_8  and  C_31
REMARK    9  A    between atoms: O_8  and  C_39
REMARK   10  A    between atoms: O_12  and  C_41
REMARK   11  A    between atoms: O_13  and  C_51
REMARK   12  A    between atoms: O_13  and  C_55
REMARK   13  A    between atoms: N_15  and  C_44
REMARK   14  A    between atoms: C_18  and  C_29
REMARK   15  A    between atoms: C_24  and  C_33
REMARK   16  A    between atoms: C_24  and  C_34
REMARK   17  A    between atoms: C_32  and  C_35
REMARK   18  A    between atoms: C_36  and  C_38
REMARK   19  A    between atoms: C_37  and  C_40
REMARK   20  A    between atoms: C_39  and  C_41
REMARK   21  A    between atoms: C_41  and  C_44
REMARK   22  A    between atoms: C_44  and  C_48
REMARK   23  A    between atoms: C_55  and  C_56
REMARK   24  A    between atoms: C_55  and  C_57
REMARK   25  A    between atoms: C_55  and  C_58
REMARK                            x       y       z     vdW  Elec       q    Type
REMARK                         _______ _______ _______ _____ _____    ______ ____
ROOT
ATOM      1  O   UNL     1      38.950   5.490  12.144  0.00  0.00    +0.000 OA
ATOM      2  O   UNL     1      45.021   5.115   9.287  0.00  0.00    +0.000 OA
ATOM      3  C   UNL     1      40.873   3.769   9.864  0.00  0.00    +0.000 C 
ATOM      4  C   UNL     1      40.047   3.925  11.175  0.00  0.00    +0.000 C 
ATOM      5  C   UNL     1      42.651   4.301  10.262  0.00  0.00    +0.000 C 
ATOM      6  C   UNL     1      40.106   5.505  11.263  0.00  0.00    +0.000 C 
ATOM      7  C   UNL     1      40.489   2.174   8.978  0.00  0.00    +0.000 C 
ATOM      8  C   UNL     1      40.990   1.170   7.453  0.00  0.00    +0.000 C 
ATOM      9  C   UNL     1      42.501   5.817  10.698  0.00  0.00    +0.000 C 
ATOM     10  C   UNL     1      41.403   6.101  11.768  0.00  0.00    +0.000 C 
ATOM     11  C   UNL     1      42.391   1.400   6.387  0.00  0.00    +0.000 C 
ATOM     12  C   UNL     1      38.523   4.286  11.391  0.00  0.00    +0.000 C 
ATOM     13  C   UNL     1      44.163   4.217   9.144  0.00  0.00    +0.000 C 
ATOM     14  C   UNL     1      41.290  -0.302   7.997  0.00  0.00    +0.000 C 
ATOM     15  C   UNL     1      43.760   1.447   7.214  0.00  0.00    +0.000 C 
ATOM     16  C   UNL     1      43.211   3.600  11.570  0.00  0.00    +0.000 C 
ATOM     17  C   UNL     1      44.584   2.921   7.793  0.00  0.00    +0.000 C 
ATOM     18  C   UNL     1      42.808  -0.691   8.306  0.00  0.00    +0.000 C 
ATOM     19  C   UNL     1      43.978   0.274   7.899  0.00  0.00    +0.000 C 
ATOM     20  C   UNL     1      42.471   0.108   5.427  0.00  0.00    +0.000 C 
ATOM     21  C   UNL     1      42.301   2.430   5.217  0.00  0.00    +0.000 C 
ATOM     22  C   UNL     1      45.300  -0.048   8.551  0.00  0.00    +0.000 C 
ENDROOT
BRANCH  17  23
ATOM     23  O   UNL     1      45.142   3.512   6.619  0.00  0.00    +0.000 OA
ATOM     24  H   UNL     1      46.101   3.342   6.682  0.00  0.00    +0.000 HD
ENDBRANCH  17  23
BRANCH   9  25
ATOM     25  O   UNL     1      42.165   6.592   9.546  0.00  0.00    +0.000 OA
ATOM     26  H   UNL     1      42.946   7.133   9.328  0.00  0.00    +0.000 HD
ENDBRANCH   9  25
BRANCH   8  27
ATOM     27  O   UNL     1      39.787   1.082   6.664  0.00  0.00    +0.000 OA
ATOM     28  H   UNL     1      39.262   0.321   6.969  0.00  0.00    +0.000 HD
ENDBRANCH   8  27
BRANCH  18  29
ATOM     29  O   UNL     1      42.923  -0.906   9.743  0.00  0.00    +0.000 OA
BRANCH  29  31
ATOM     30  O   UNL     1      42.108  -3.009   9.620  0.00  0.00    +0.000 OA
ATOM     31  C   UNL     1      42.793  -2.176  10.203  0.00  0.00    +0.000 C 
BRANCH  31  32
ATOM     32  C   UNL     1      43.422  -2.439  11.576  0.00  0.00    +0.000 C 
BRANCH  32  33
ATOM     33  O   UNL     1      43.018  -1.546  12.620  0.00  0.00    +0.000 OA
ATOM     34  H   UNL     1      42.304  -0.998  12.244  0.00  0.00    +0.000 HD
ENDBRANCH  32  33
BRANCH  32  35
ATOM     35  C   UNL     1      44.966  -2.461  11.412  0.00  0.00    +0.000 C 
BRANCH  35  36
ATOM     36  C   UNL     1      45.530  -3.877  11.356  0.00  0.00    +0.000 A 
ATOM     37  C   UNL     1      45.092  -4.835  12.285  0.00  0.00    +0.000 A 
ATOM     38  C   UNL     1      46.454  -4.271  10.373  0.00  0.00    +0.000 A 
ATOM     39  C   UNL     1      45.584  -6.142  12.249  0.00  0.00    +0.000 A 
ATOM     40  C   UNL     1      46.945  -5.577  10.341  0.00  0.00    +0.000 A 
ATOM     41  C   UNL     1      46.512  -6.511  11.280  0.00  0.00    +0.000 A 
ENDBRANCH  35  36
BRANCH  35  43
ATOM     42  O   UNL     1      47.387  -0.919  11.278  0.00  0.00    +0.000 OA
ATOM     43  N   UNL     1      45.627  -1.735  12.487  0.00  0.00    +0.000 N 
ATOM     44  C   UNL     1      46.829  -1.122  12.343  0.00  0.00    +0.000 C 
ATOM     45  H   UNL     1      45.341  -1.942  13.435  0.00  0.00    +0.000 HD
BRANCH  44  46
ATOM     46  O   UNL     1      47.277  -0.759  13.564  0.00  0.00    +0.000 OA
BRANCH  46  47
ATOM     47  C   UNL     1      48.361  -1.483  14.202  0.00  0.00    +0.000 C 
ATOM     48  C   UNL     1      49.727  -0.966  13.738  0.00  0.00    +0.000 C 
ATOM     49  C   UNL     1      48.204  -1.178  15.699  0.00  0.00    +0.000 C 
ATOM     50  C   UNL     1      48.218  -2.994  13.991  0.00  0.00    +0.000 C 
ENDBRANCH  46  47
ENDBRANCH  44  46
ENDBRANCH  35  43
ENDBRANCH  32  35
ENDBRANCH  31  32
ENDBRANCH  29  31
ENDBRANCH  18  29
BRANCH   7  51
ATOM     51  O   UNL     1      41.521   1.671   9.622  0.00  0.00    +0.000 OA
BRANCH  51  53
ATOM     52  O   UNL     1      41.435   0.790  11.424  0.00  0.00    +0.000 OA
ATOM     53  C   UNL     1      40.687   0.987  10.472  0.00  0.00    +0.000 C 
BRANCH  53  54
ATOM     54  C   UNL     1      38.960   0.323   9.977  0.00  0.00    +0.000 A 
ATOM     55  C   UNL     1      37.827   1.144   9.548  0.00  0.00    +0.000 A 
ATOM     56  C   UNL     1      38.564  -1.041   9.822  0.00  0.00    +0.000 A 
ATOM     57  C   UNL     1      36.570   0.693   9.071  0.00  0.00    +0.000 A 
ATOM     58  C   UNL     1      37.307  -1.514   9.346  0.00  0.00    +0.000 A 
ATOM     59  C   UNL     1      36.308  -0.649   8.969  0.00  0.00    +0.000 A 
ENDBRANCH  53  54
ENDBRANCH  51  53
ENDBRANCH   7  51
BRANCH   4  60
ATOM     60  O   UNL     1      40.658   3.244  12.296  0.00  0.00    +0.000 OA
BRANCH  60  62
ATOM     61  O   UNL     1      40.406   3.582  14.493  0.00  0.00    +0.000 OA
ATOM     62  C   UNL     1      40.034   3.006  13.473  0.00  0.00    +0.000 C 
ATOM     63  C   UNL     1      38.973   1.953  13.532  0.00  0.00    +0.000 C 
ENDBRANCH  60  62
ENDBRANCH   4  60
TORSDOF 17
ENDMDL
MODEL 5
REMARK VINA RESULT:      -7.2      3.048      6.666
REMARK  Name = 
REMARK  25 active torsions:
REMARK  status: ('A' for Active; 'I' for Inactive)
REMARK    1  A    between atoms: O_2  and  C_17
REMARK    2  A    between atoms: O_2  and  C_36
REMARK    3  A    between atoms: O_3  and  C_20
REMARK    4  A    between atoms: O_3  and  C_37
REMARK    5  A    between atoms: O_4  and  C_21
REMARK    6  A    between atoms: O_5  and  C_22
REMARK    7  A    between atoms: O_7  and  C_30
REMARK    8  A    between atoms: O_8  and  C_31
REMARK    9  A    between atoms: O_8  and  C_39
REMARK   10  A    between atoms: O_12  and  C_41
REMARK   11  A    between atoms: O_13  and  C_51
REMARK   12  A    between atoms: O_13  and  C_55
REMARK   13  A    between atoms: N_15  and  C_44
REMARK   14  A    between atoms: C_18  and  C_29
REMARK   15  A    between atoms: C_24  and  C_33
REMARK   16  A    between atoms: C_24  and  C_34
REMARK   17  A    between atoms: C_32  and  C_35
REMARK   18  A    between atoms: C_36  and  C_38
REMARK   19  A    between atoms: C_37  and  C_40
REMARK   20  A    between atoms: C_39  and  C_41
REMARK   21  A    between atoms: C_41  and  C_44
REMARK   22  A    between atoms: C_44  and  C_48
REMARK   23  A    between atoms: C_55  and  C_56
REMARK   24  A    between atoms: C_55  and  C_57
REMARK   25  A    between atoms: C_55  and  C_58
REMARK                            x       y       z     vdW  Elec       q    Type
REMARK                         _______ _______ _______ _____ _____    ______ ____
ROOT
ATOM      1  O   UNL     1      36.258   2.644  13.728  0.00  0.00    +0.000 OA
ATOM      2  O   UNL     1      42.396   5.304  14.363  0.00  0.00    +0.000 OA
ATOM      3  C   UNL     1      38.839   4.173  12.037  0.00  0.00    +0.000 C 
ATOM      4  C   UNL     1      37.880   2.992  12.371  0.00  0.00    +0.000 C 
ATOM      5  C   UNL     1      40.313   4.042  13.224  0.00  0.00    +0.000 C 
ATOM      6  C   UNL     1      37.434   3.496  13.805  0.00  0.00    +0.000 C 
ATOM      7  C   UNL     1      39.061   4.397  10.200  0.00  0.00    +0.000 C 
ATOM      8  C   UNL     1      40.000   5.456   8.940  0.00  0.00    +0.000 C 
ATOM      9  C   UNL     1      39.656   4.193  14.659  0.00  0.00    +0.000 C 
ATOM     10  C   UNL     1      38.423   3.278  14.930  0.00  0.00    +0.000 C 
ATOM     11  C   UNL     1      41.359   6.564   9.218  0.00  0.00    +0.000 C 
ATOM     12  C   UNL     1      36.305   2.889  12.266  0.00  0.00    +0.000 C 
ATOM     13  C   UNL     1      41.880   5.085  13.246  0.00  0.00    +0.000 C 
ATOM     14  C   UNL     1      40.688   4.413   7.943  0.00  0.00    +0.000 C 
ATOM     15  C   UNL     1      42.555   5.845  10.001  0.00  0.00    +0.000 C 
ATOM     16  C   UNL     1      40.931   2.581  13.260  0.00  0.00    +0.000 C 
ATOM     17  C   UNL     1      42.817   5.872  11.768  0.00  0.00    +0.000 C 
ATOM     18  C   UNL     1      42.212   4.019   8.209  0.00  0.00    +0.000 C 
ATOM     19  C   UNL     1      43.058   4.781   9.290  0.00  0.00    +0.000 C 
ATOM     20  C   UNL     1      41.932   6.980   7.772  0.00  0.00    +0.000 C 
ATOM     21  C   UNL     1      41.068   8.029   9.674  0.00  0.00    +0.000 C 
ATOM     22  C   UNL     1      44.343   4.087   9.672  0.00  0.00    +0.000 C 
ENDROOT
BRANCH  17  23
ATOM     23  O   UNL     1      43.276   7.194  12.048  0.00  0.00    +0.000 OA
ATOM     24  H   UNL     1      44.203   7.209  11.741  0.00  0.00    +0.000 HD
ENDBRANCH  17  23
BRANCH   9  25
ATOM     25  O   UNL     1      39.212   5.541  14.817  0.00  0.00    +0.000 OA
ATOM     26  H   UNL     1      38.450   5.662  14.223  0.00  0.00    +0.000 HD
ENDBRANCH   9  25
BRANCH   8  27
ATOM     27  O   UNL     1      38.969   6.127   8.189  0.00  0.00    +0.000 OA
ATOM     28  H   UNL     1      38.626   5.522   7.508  0.00  0.00    +0.000 HD
ENDBRANCH   8  27
BRANCH  18  29
ATOM     29  O   UNL     1      42.245   2.607   8.569  0.00  0.00    +0.000 OA
BRANCH  29  31
ATOM     30  O   UNL     1      41.778   1.333   6.764  0.00  0.00    +0.000 OA
ATOM     31  C   UNL     1      42.585   1.716   7.604  0.00  0.00    +0.000 C 
BRANCH  31  32
ATOM     32  C   UNL     1      43.985   1.108   7.742  0.00  0.00    +0.000 C 
BRANCH  32  33
ATOM     33  O   UNL     1      44.978   1.640   6.857  0.00  0.00    +0.000 OA
ATOM     34  H   UNL     1      44.491   1.995   6.089  0.00  0.00    +0.000 HD
ENDBRANCH  32  33
BRANCH  32  35
ATOM     35  C   UNL     1      43.866  -0.433   7.605  0.00  0.00    +0.000 C 
BRANCH  35  36
ATOM     36  C   UNL     1      44.239  -1.168   8.888  0.00  0.00    +0.000 A 
ATOM     37  C   UNL     1      44.219  -2.572   8.913  0.00  0.00    +0.000 A 
ATOM     38  C   UNL     1      44.641  -0.483  10.047  0.00  0.00    +0.000 A 
ATOM     39  C   UNL     1      44.567  -3.270  10.072  0.00  0.00    +0.000 A 
ATOM     40  C   UNL     1      44.987  -1.184  11.204  0.00  0.00    +0.000 A 
ATOM     41  C   UNL     1      44.947  -2.576  11.217  0.00  0.00    +0.000 A 
ENDBRANCH  35  36
BRANCH  35  43
ATOM     42  O   UNL     1      43.079  -1.020   4.904  0.00  0.00    +0.000 OA
ATOM     43  N   UNL     1      44.695  -0.937   6.518  0.00  0.00    +0.000 N 
ATOM     44  C   UNL     1      44.201  -1.283   5.303  0.00  0.00    +0.000 C 
ATOM     45  H   UNL     1      45.599  -1.323   6.760  0.00  0.00    +0.000 HD
BRANCH  44  46
ATOM     46  O   UNL     1      45.164  -1.933   4.615  0.00  0.00    +0.000 OA
BRANCH  46  47
ATOM     47  C   UNL     1      45.781  -1.326   3.451  0.00  0.00    +0.000 C 
ATOM     48  C   UNL     1      46.010   0.175   3.658  0.00  0.00    +0.000 C 
ATOM     49  C   UNL     1      47.147  -2.018   3.329  0.00  0.00    +0.000 C 
ATOM     50  C   UNL     1      44.972  -1.612   2.181  0.00  0.00    +0.000 C 
ENDBRANCH  46  47
ENDBRANCH  44  46
ENDBRANCH  35  43
ENDBRANCH  32  35
ENDBRANCH  31  32
ENDBRANCH  29  31
ENDBRANCH  18  29
BRANCH   7  51
ATOM     51  O   UNL     1      40.129   3.638  10.325  0.00  0.00    +0.000 OA
BRANCH  51  53
ATOM     52  O   UNL     1      38.462   3.152   9.318  0.00  0.00    +0.000 OA
ATOM     53  C   UNL     1      39.497   2.603   9.681  0.00  0.00    +0.000 C 
BRANCH  53  54
ATOM     54  C   UNL     1      40.088   0.781   9.740  0.00  0.00    +0.000 A 
ATOM     55  C   UNL     1      40.920   0.194  10.791  0.00  0.00    +0.000 A 
ATOM     56  C   UNL     1      39.706  -0.285   8.868  0.00  0.00    +0.000 A 
ATOM     57  C   UNL     1      41.291  -1.168  10.933  0.00  0.00    +0.000 A 
ATOM     58  C   UNL     1      40.069  -1.658   8.994  0.00  0.00    +0.000 A 
ATOM     59  C   UNL     1      40.860  -2.101  10.026  0.00  0.00    +0.000 A 
ENDBRANCH  53  54
ENDBRANCH  51  53
ENDBRANCH   7  51
BRANCH   4  60
ATOM     60  O   UNL     1      38.557   1.714  12.374  0.00  0.00    +0.000 OA
BRANCH  60  62
ATOM     61  O   UNL     1      37.343   0.102  11.409  0.00  0.00    +0.000 OA
ATOM     62  C   UNL     1      37.924   0.518  12.408  0.00  0.00    +0.000 C 
ATOM     63  C   UNL     1      37.846  -0.224  13.705  0.00  0.00    +0.000 C 
ENDBRANCH  60  62
ENDBRANCH   4  60
TORSDOF 17
ENDMDL
MODEL 6
REMARK VINA RESULT:      -7.1      3.010      5.570
REMARK  Name = 
REMARK  25 active torsions:
REMARK  status: ('A' for Active; 'I' for Inactive)
REMARK    1  A    between atoms: O_2  and  C_17
REMARK    2  A    between atoms: O_2  and  C_36
REMARK    3  A    between atoms: O_3  and  C_20
REMARK    4  A    between atoms: O_3  and  C_37
REMARK    5  A    between atoms: O_4  and  C_21
REMARK    6  A    between atoms: O_5  and  C_22
REMARK    7  A    between atoms: O_7  and  C_30
REMARK    8  A    between atoms: O_8  and  C_31
REMARK    9  A    between atoms: O_8  and  C_39
REMARK   10  A    between atoms: O_12  and  C_41
REMARK   11  A    between atoms: O_13  and  C_51
REMARK   12  A    between atoms: O_13  and  C_55
REMARK   13  A    between atoms: N_15  and  C_44
REMARK   14  A    between atoms: C_18  and  C_29
REMARK   15  A    between atoms: C_24  and  C_33
REMARK   16  A    between atoms: C_24  and  C_34
REMARK   17  A    between atoms: C_32  and  C_35
REMARK   18  A    between atoms: C_36  and  C_38
REMARK   19  A    between atoms: C_37  and  C_40
REMARK   20  A    between atoms: C_39  and  C_41
REMARK   21  A    between atoms: C_41  and  C_44
REMARK   22  A    between atoms: C_44  and  C_48
REMARK   23  A    between atoms: C_55  and  C_56
REMARK   24  A    between atoms: C_55  and  C_57
REMARK   25  A    between atoms: C_55  and  C_58
REMARK                            x       y       z     vdW  Elec       q    Type
REMARK                         _______ _______ _______ _____ _____    ______ ____
ROOT
ATOM      1  O   UNL     1      36.936   1.361  10.106  0.00  0.00    +0.000 OA
ATOM      2  O   UNL     1      42.092   5.620   9.455  0.00  0.00    +0.000 OA
ATOM      3  C   UNL     1      39.796   2.045   8.316  0.00  0.00    +0.000 C 
ATOM      4  C   UNL     1      38.904   1.202   9.274  0.00  0.00    +0.000 C 
ATOM      5  C   UNL     1      40.724   3.306   9.388  0.00  0.00    +0.000 C 
ATOM      6  C   UNL     1      37.906   2.360   9.689  0.00  0.00    +0.000 C 
ATOM      7  C   UNL     1      40.667   0.985   7.054  0.00  0.00    +0.000 C 
ATOM      8  C   UNL     1      41.900   1.099   5.620  0.00  0.00    +0.000 C 
ATOM      9  C   UNL     1      39.566   4.170  10.041  0.00  0.00    +0.000 C 
ATOM     10  C   UNL     1      38.418   3.353  10.710  0.00  0.00    +0.000 C 
ATOM     11  C   UNL     1      42.938   2.464   5.158  0.00  0.00    +0.000 C 
ATOM     12  C   UNL     1      37.502   0.513   9.030  0.00  0.00    +0.000 C 
ATOM     13  C   UNL     1      42.056   4.524   8.854  0.00  0.00    +0.000 C 
ATOM     14  C   UNL     1      43.011  -0.007   5.929  0.00  0.00    +0.000 C 
ATOM     15  C   UNL     1      43.819   2.978   6.392  0.00  0.00    +0.000 C 
ATOM     16  C   UNL     1      41.425   2.633  10.641  0.00  0.00    +0.000 C 
ATOM     17  C   UNL     1      43.395   4.316   7.496  0.00  0.00    +0.000 C 
ATOM     18  C   UNL     1      44.356   0.465   6.649  0.00  0.00    +0.000 C 
ATOM     19  C   UNL     1      44.655   1.992   6.862  0.00  0.00    +0.000 C 
ATOM     20  C   UNL     1      43.967   1.918   4.046  0.00  0.00    +0.000 C 
ATOM     21  C   UNL     1      42.354   3.597   4.257  0.00  0.00    +0.000 C 
ATOM     22  C   UNL     1      45.764   2.273   7.845  0.00  0.00    +0.000 C 
ENDROOT
BRANCH  17  23
ATOM     23  O   UNL     1      43.583   5.500   6.721  0.00  0.00    +0.000 OA
ATOM     24  H   UNL     1      42.747   5.615   6.231  0.00  0.00    +0.000 HD
ENDBRANCH  17  23
BRANCH   9  25
ATOM     25  O   UNL     1      38.963   4.969   9.022  0.00  0.00    +0.000 OA
ATOM     26  H   UNL     1      39.398   5.841   9.049  0.00  0.00    +0.000 HD
ENDBRANCH   9  25
BRANCH   8  27
ATOM     27  O   UNL     1      41.164   0.636   4.471  0.00  0.00    +0.000 OA
ATOM     28  H   UNL     1      40.785   1.402   4.004  0.00  0.00    +0.000 HD
ENDBRANCH   8  27
BRANCH  18  29
ATOM     29  O   UNL     1      44.391  -0.157   7.967  0.00  0.00    +0.000 OA
BRANCH  29  31
ATOM     30  O   UNL     1      46.182  -0.937   9.099  0.00  0.00    +0.000 OA
ATOM     31  C   UNL     1      45.356  -1.080   8.204  0.00  0.00    +0.000 C 
BRANCH  31  32
ATOM     32  C   UNL     1      45.438  -2.216   7.179  0.00  0.00    +0.000 C 
BRANCH  32  33
ATOM     33  O   UNL     1      44.220  -2.936   6.958  0.00  0.00    +0.000 OA
ATOM     34  H   UNL     1      43.789  -3.009   7.831  0.00  0.00    +0.000 HD
ENDBRANCH  32  33
BRANCH  32  35
ATOM     35  C   UNL     1      46.595  -3.166   7.590  0.00  0.00    +0.000 C 
BRANCH  35  36
ATOM     36  C   UNL     1      46.946  -4.170   6.498  0.00  0.00    +0.000 A 
ATOM     37  C   UNL     1      46.844  -5.546   6.763  0.00  0.00    +0.000 A 
ATOM     38  C   UNL     1      47.337  -3.763   5.212  0.00  0.00    +0.000 A 
ATOM     39  C   UNL     1      47.149  -6.487   5.777  0.00  0.00    +0.000 A 
ATOM     40  C   UNL     1      47.643  -4.707   4.229  0.00  0.00    +0.000 A 
ATOM     41  C   UNL     1      47.552  -6.068   4.512  0.00  0.00    +0.000 A 
ENDBRANCH  35  36
BRANCH  35  43
ATOM     42  O   UNL     1      48.356  -3.826   9.762  0.00  0.00    +0.000 OA
ATOM     43  N   UNL     1      46.278  -3.893   8.812  0.00  0.00    +0.000 N 
ATOM     44  C   UNL     1      47.212  -4.246   9.731  0.00  0.00    +0.000 C 
ATOM     45  H   UNL     1      45.408  -4.408   8.837  0.00  0.00    +0.000 HD
BRANCH  44  46
ATOM     46  O   UNL     1      46.651  -5.107  10.607  0.00  0.00    +0.000 OA
BRANCH  46  47
ATOM     47  C   UNL     1      46.864  -4.957  12.034  0.00  0.00    +0.000 C 
ATOM     48  C   UNL     1      45.723  -5.588  12.839  0.00  0.00    +0.000 C 
ATOM     49  C   UNL     1      48.156  -5.738  12.318  0.00  0.00    +0.000 C 
ATOM     50  C   UNL     1      47.086  -3.488  12.411  0.00  0.00    +0.000 C 
ENDBRANCH  46  47
ENDBRANCH  44  46
ENDBRANCH  35  43
ENDBRANCH  32  35
ENDBRANCH  31  32
ENDBRANCH  29  31
ENDBRANCH  18  29
BRANCH   7  51
ATOM     51  O   UNL     1      41.680   0.971   7.895  0.00  0.00    +0.000 OA
BRANCH  51  53
ATOM     52  O   UNL     1      40.507  -0.594   7.440  0.00  0.00    +0.000 OA
ATOM     53  C   UNL     1      41.446  -0.350   8.191  0.00  0.00    +0.000 C 
BRANCH  53  54
ATOM     54  C   UNL     1      42.254  -1.281   9.657  0.00  0.00    +0.000 A 
ATOM     55  C   UNL     1      42.552  -2.713   9.690  0.00  0.00    +0.000 A 
ATOM     56  C   UNL     1      42.798  -0.717  10.852  0.00  0.00    +0.000 A 
ATOM     57  C   UNL     1      43.244  -3.425  10.704  0.00  0.00    +0.000 A 
ATOM     58  C   UNL     1      43.496  -1.414  11.881  0.00  0.00    +0.000 A 
ATOM     59  C   UNL     1      43.720  -2.768  11.809  0.00  0.00    +0.000 A 
ENDBRANCH  53  54
ENDBRANCH  51  53
ENDBRANCH   7  51
BRANCH   4  60
ATOM     60  O   UNL     1      39.655   0.641  10.376  0.00  0.00    +0.000 OA
BRANCH  60  62
ATOM     61  O   UNL     1      39.211  -1.532  10.675  0.00  0.00    +0.000 OA
ATOM     62  C   UNL     1      39.228  -0.393  11.138  0.00  0.00    +0.000 C 
ATOM     63  C   UNL     1      38.672  -0.112  12.498  0.00  0.00    +0.000 C 
ENDBRANCH  60  62
ENDBRANCH   4  60
TORSDOF 17
ENDMDL
MODEL 7
REMARK VINA RESULT:      -7.1      2.154      3.410
REMARK  Name = 
REMARK  25 active torsions:
REMARK  status: ('A' for Active; 'I' for Inactive)
REMARK    1  A    between atoms: O_2  and  C_17
REMARK    2  A    between atoms: O_2  and  C_36
REMARK    3  A    between atoms: O_3  and  C_20
REMARK    4  A    between atoms: O_3  and  C_37
REMARK    5  A    between atoms: O_4  and  C_21
REMARK    6  A    between atoms: O_5  and  C_22
REMARK    7  A    between atoms: O_7  and  C_30
REMARK    8  A    between atoms: O_8  and  C_31
REMARK    9  A    between atoms: O_8  and  C_39
REMARK   10  A    between atoms: O_12  and  C_41
REMARK   11  A    between atoms: O_13  and  C_51
REMARK   12  A    between atoms: O_13  and  C_55
REMARK   13  A    between atoms: N_15  and  C_44
REMARK   14  A    between atoms: C_18  and  C_29
REMARK   15  A    between atoms: C_24  and  C_33
REMARK   16  A    between atoms: C_24  and  C_34
REMARK   17  A    between atoms: C_32  and  C_35
REMARK   18  A    between atoms: C_36  and  C_38
REMARK   19  A    between atoms: C_37  and  C_40
REMARK   20  A    between atoms: C_39  and  C_41
REMARK   21  A    between atoms: C_41  and  C_44
REMARK   22  A    between atoms: C_44  and  C_48
REMARK   23  A    between atoms: C_55  and  C_56
REMARK   24  A    between atoms: C_55  and  C_57
REMARK   25  A    between atoms: C_55  and  C_58
REMARK                            x       y       z     vdW  Elec       q    Type
REMARK                         _______ _______ _______ _____ _____    ______ ____
ROOT
ATOM      1  O   UNL     1      40.846   6.198  12.854  0.00  0.00    +0.000 OA
ATOM      2  O   UNL     1      39.783   3.499   6.792  0.00  0.00    +0.000 OA
ATOM      3  C   UNL     1      40.857   3.264  11.052  0.00  0.00    +0.000 C 
ATOM      4  C   UNL     1      41.511   4.408  11.882  0.00  0.00    +0.000 C 
ATOM      5  C   UNL     1      40.843   3.832   9.241  0.00  0.00    +0.000 C 
ATOM      6  C   UNL     1      40.361   5.480  11.687  0.00  0.00    +0.000 C 
ATOM      7  C   UNL     1      41.482   1.583  11.559  0.00  0.00    +0.000 C 
ATOM      8  C   UNL     1      41.316  -0.253  11.122  0.00  0.00    +0.000 C 
ATOM      9  C   UNL     1      39.949   5.141   9.264  0.00  0.00    +0.000 C 
ATOM     10  C   UNL     1      40.329   6.192  10.351  0.00  0.00    +0.000 C 
ATOM     11  C   UNL     1      40.569  -0.987   9.689  0.00  0.00    +0.000 C 
ATOM     12  C   UNL     1      41.253   4.869  13.372  0.00  0.00    +0.000 C 
ATOM     13  C   UNL     1      40.311   2.854   7.723  0.00  0.00    +0.000 C 
ATOM     14  C   UNL     1      42.814  -0.786  10.961  0.00  0.00    +0.000 C 
ATOM     15  C   UNL     1      41.168  -0.379   8.335  0.00  0.00    +0.000 C 
ATOM     16  C   UNL     1      42.258   4.368   8.766  0.00  0.00    +0.000 C 
ATOM     17  C   UNL     1      40.474   0.970   7.394  0.00  0.00    +0.000 C 
ATOM     18  C   UNL     1      43.428  -0.860   9.489  0.00  0.00    +0.000 C 
ATOM     19  C   UNL     1      42.520  -0.609   8.232  0.00  0.00    +0.000 C 
ATOM     20  C   UNL     1      40.951  -2.552   9.706  0.00  0.00    +0.000 C 
ATOM     21  C   UNL     1      39.026  -1.226   9.669  0.00  0.00    +0.000 C 
ATOM     22  C   UNL     1      43.287  -0.370   6.955  0.00  0.00    +0.000 C 
ENDROOT
BRANCH  17  23
ATOM     23  O   UNL     1      39.315   0.419   6.768  0.00  0.00    +0.000 OA
ATOM     24  H   UNL     1      39.118  -0.392   7.273  0.00  0.00    +0.000 HD
ENDBRANCH  17  23
BRANCH   9  25
ATOM     25  O   UNL     1      38.594   4.763   9.511  0.00  0.00    +0.000 OA
ATOM     26  H   UNL     1      38.452   4.825  10.473  0.00  0.00    +0.000 HD
ENDBRANCH   9  25
BRANCH   8  27
ATOM     27  O   UNL     1      40.786  -0.864  12.315  0.00  0.00    +0.000 OA
ATOM     28  H   UNL     1      40.833  -0.225  13.048  0.00  0.00    +0.000 HD
ENDBRANCH   8  27
BRANCH  18  29
ATOM     29  O   UNL     1      44.519   0.102   9.418  0.00  0.00    +0.000 OA
BRANCH  29  31
ATOM     30  O   UNL     1      46.483  -0.032   8.311  0.00  0.00    +0.000 OA
ATOM     31  C   UNL     1      45.776  -0.379   9.251  0.00  0.00    +0.000 C 
BRANCH  31  32
ATOM     32  C   UNL     1      46.179  -1.499  10.217  0.00  0.00    +0.000 C 
BRANCH  32  33
ATOM     33  O   UNL     1      47.527  -1.442  10.699  0.00  0.00    +0.000 OA
ATOM     34  H   UNL     1      47.616  -0.580  11.147  0.00  0.00    +0.000 HD
ENDBRANCH  32  33
BRANCH  32  35
ATOM     35  C   UNL     1      45.873  -2.863   9.543  0.00  0.00    +0.000 C 
BRANCH  35  36
ATOM     36  C   UNL     1      45.725  -3.997  10.552  0.00  0.00    +0.000 A 
ATOM     37  C   UNL     1      46.659  -5.045  10.558  0.00  0.00    +0.000 A 
ATOM     38  C   UNL     1      44.697  -4.010  11.510  0.00  0.00    +0.000 A 
ATOM     39  C   UNL     1      46.554  -6.090  11.479  0.00  0.00    +0.000 A 
ATOM     40  C   UNL     1      44.594  -5.056  12.428  0.00  0.00    +0.000 A 
ATOM     41  C   UNL     1      45.520  -6.097  12.411  0.00  0.00    +0.000 A 
ENDBRANCH  35  36
BRANCH  35  43
ATOM     42  O   UNL     1      45.596  -3.212   6.704  0.00  0.00    +0.000 OA
ATOM     43  N   UNL     1      46.904  -3.224   8.579  0.00  0.00    +0.000 N 
ATOM     44  C   UNL     1      46.646  -3.468   7.270  0.00  0.00    +0.000 C 
ATOM     45  H   UNL     1      47.772  -3.596   8.941  0.00  0.00    +0.000 HD
BRANCH  44  46
ATOM     46  O   UNL     1      47.747  -4.009   6.706  0.00  0.00    +0.000 OA
BRANCH  46  47
ATOM     47  C   UNL     1      47.758  -5.397   6.284  0.00  0.00    +0.000 C 
ATOM     48  C   UNL     1      46.844  -6.257   7.164  0.00  0.00    +0.000 C 
ATOM     49  C   UNL     1      47.187  -5.375   4.858  0.00  0.00    +0.000 C 
ATOM     50  C   UNL     1      49.187  -5.950   6.231  0.00  0.00    +0.000 C 
ENDBRANCH  46  47
ENDBRANCH  44  46
ENDBRANCH  35  43
ENDBRANCH  32  35
ENDBRANCH  31  32
ENDBRANCH  29  31
ENDBRANCH  18  29
BRANCH   7  51
ATOM     51  O   UNL     1      42.359   1.713  10.586  0.00  0.00    +0.000 OA
BRANCH  51  53
ATOM     52  O   UNL     1      42.775   1.701  12.550  0.00  0.00    +0.000 OA
ATOM     53  C   UNL     1      43.379   1.860  11.494  0.00  0.00    +0.000 C 
BRANCH  53  54
ATOM     54  C   UNL     1      45.135   2.482  11.045  0.00  0.00    +0.000 A 
ATOM     55  C   UNL     1      46.364   2.136  11.759  0.00  0.00    +0.000 A 
ATOM     56  C   UNL     1      45.521   3.243   9.899  0.00  0.00    +0.000 A 
ATOM     57  C   UNL     1      47.692   2.483  11.402  0.00  0.00    +0.000 A 
ATOM     58  C   UNL     1      46.849   3.601   9.524  0.00  0.00    +0.000 A 
ATOM     59  C   UNL     1      47.936   3.222  10.273  0.00  0.00    +0.000 A 
ENDBRANCH  53  54
ENDBRANCH  51  53
ENDBRANCH   7  51
BRANCH   4  60
ATOM     60  O   UNL     1      42.796   4.810  11.352  0.00  0.00    +0.000 OA
BRANCH  60  62
ATOM     61  O   UNL     1      43.806   6.792  11.581  0.00  0.00    +0.000 OA
ATOM     62  C   UNL     1      43.653   5.643  11.987  0.00  0.00    +0.000 C 
ATOM     63  C   UNL     1      44.489   5.108  13.107  0.00  0.00    +0.000 C 
ENDBRANCH  60  62
ENDBRANCH   4  60
TORSDOF 17
ENDMDL
MODEL 8
REMARK VINA RESULT:      -6.9     26.375     29.721
REMARK  Name = 
REMARK  25 active torsions:
REMARK  status: ('A' for Active; 'I' for Inactive)
REMARK    1  A    between atoms: O_2  and  C_17
REMARK    2  A    between atoms: O_2  and  C_36
REMARK    3  A    between atoms: O_3  and  C_20
REMARK    4  A    between atoms: O_3  and  C_37
REMARK    5  A    between atoms: O_4  and  C_21
REMARK    6  A    between atoms: O_5  and  C_22
REMARK    7  A    between atoms: O_7  and  C_30
REMARK    8  A    between atoms: O_8  and  C_31
REMARK    9  A    between atoms: O_8  and  C_39
REMARK   10  A    between atoms: O_12  and  C_41
REMARK   11  A    between atoms: O_13  and  C_51
REMARK   12  A    between atoms: O_13  and  C_55
REMARK   13  A    between atoms: N_15  and  C_44
REMARK   14  A    between atoms: C_18  and  C_29
REMARK   15  A    between atoms: C_24  and  C_33
REMARK   16  A    between atoms: C_24  and  C_34
REMARK   17  A    between atoms: C_32  and  C_35
REMARK   18  A    between atoms: C_36  and  C_38
REMARK   19  A    between atoms: C_37  and  C_40
REMARK   20  A    between atoms: C_39  and  C_41
REMARK   21  A    between atoms: C_41  and  C_44
REMARK   22  A    between atoms: C_44  and  C_48
REMARK   23  A    between atoms: C_55  and  C_56
REMARK   24  A    between atoms: C_55  and  C_57
REMARK   25  A    between atoms: C_55  and  C_58
REMARK                            x       y       z     vdW  Elec       q    Type
REMARK                         _______ _______ _______ _____ _____    ______ ____
ROOT
ATOM      1  O   UNL     1      22.469  16.225  18.780  0.00  0.00    +0.000 OA
ATOM      2  O   UNL     1      16.842  18.185  21.887  0.00  0.00    +0.000 OA
ATOM      3  C   UNL     1      19.931  15.220  20.878  0.00  0.00    +0.000 C 
ATOM      4  C   UNL     1      20.761  15.194  19.561  0.00  0.00    +0.000 C 
ATOM      5  C   UNL     1      18.599  16.554  20.667  0.00  0.00    +0.000 C 
ATOM      6  C   UNL     1      21.431  16.620  19.717  0.00  0.00    +0.000 C 
ATOM      7  C   UNL     1      19.529  13.504  21.488  0.00  0.00    +0.000 C 
ATOM      8  C   UNL     1      18.596  12.605  22.869  0.00  0.00    +0.000 C 
ATOM      9  C   UNL     1      19.431  17.887  20.458  0.00  0.00    +0.000 C 
ATOM     10  C   UNL     1      20.558  17.811  19.383  0.00  0.00    +0.000 C 
ATOM     11  C   UNL     1      17.434  13.268  24.035  0.00  0.00    +0.000 C 
ATOM     12  C   UNL     1      22.286  14.855  19.316  0.00  0.00    +0.000 C 
ATOM     13  C   UNL     1      17.194  16.985  21.843  0.00  0.00    +0.000 C 
ATOM     14  C   UNL     1      17.669  11.537  22.126  0.00  0.00    +0.000 C 
ATOM     15  C   UNL     1      16.253  14.063  23.304  0.00  0.00    +0.000 C 
ATOM     16  C   UNL     1      17.805  16.404  19.302  0.00  0.00    +0.000 C 
ATOM     17  C   UNL     1      16.203  15.822  23.003  0.00  0.00    +0.000 C 
ATOM     18  C   UNL     1      16.147  11.933  21.847  0.00  0.00    +0.000 C 
ATOM     19  C   UNL     1      15.537  13.243  22.463  0.00  0.00    +0.000 C 
ATOM     20  C   UNL     1      16.757  12.017  24.790  0.00  0.00    +0.000 C 
ATOM     21  C   UNL     1      17.963  13.943  25.341  0.00  0.00    +0.000 C 
ATOM     22  C   UNL     1      14.227  13.664  21.845  0.00  0.00    +0.000 C 
ENDROOT
BRANCH  17  23
ATOM     23  O   UNL     1      15.953  16.403  24.284  0.00  0.00    +0.000 OA
ATOM     24  H   UNL     1      15.061  16.792  24.214  0.00  0.00    +0.000 HD
ENDBRANCH  17  23
BRANCH   9  25
ATOM     25  O   UNL     1      20.061  18.230  21.693  0.00  0.00    +0.000 OA
ATOM     26  H   UNL     1      19.365  18.245  22.374  0.00  0.00    +0.000 HD
ENDBRANCH   9  25
BRANCH   8  27
ATOM     27  O   UNL     1      19.612  11.856  23.565  0.00  0.00    +0.000 OA
ATOM     28  H   UNL     1      19.226  11.026  23.895  0.00  0.00    +0.000 HD
ENDBRANCH   8  27
BRANCH  18  29
ATOM     29  O   UNL     1      15.974  12.027  20.404  0.00  0.00    +0.000 OA
BRANCH  29  31
ATOM     30  O   UNL     1      14.001  10.982  20.063  0.00  0.00    +0.000 OA
ATOM     31  C   UNL     1      15.193  11.097  19.800  0.00  0.00    +0.000 C 
BRANCH  31  32
ATOM     32  C   UNL     1      15.939  10.105  18.900  0.00  0.00    +0.000 C 
BRANCH  32  33
ATOM     33  O   UNL     1      15.346   9.871  17.617  0.00  0.00    +0.000 OA
ATOM     34  H   UNL     1      16.086   9.703  17.004  0.00  0.00    +0.000 HD
ENDBRANCH  32  33
BRANCH  32  35
ATOM     35  C   UNL     1      16.136   8.781  19.686  0.00  0.00    +0.000 C 
BRANCH  35  36
ATOM     36  C   UNL     1      17.578   8.575  20.136  0.00  0.00    +0.000 A 
ATOM     37  C   UNL     1      17.841   7.837  21.302  0.00  0.00    +0.000 A 
ATOM     38  C   UNL     1      18.665   9.071  19.398  0.00  0.00    +0.000 A 
ATOM     39  C   UNL     1      19.153   7.623  21.731  0.00  0.00    +0.000 A 
ATOM     40  C   UNL     1      19.976   8.856  19.830  0.00  0.00    +0.000 A 
ATOM     41  C   UNL     1      20.219   8.135  20.997  0.00  0.00    +0.000 A 
ENDBRANCH  35  36
BRANCH  35  43
ATOM     42  O   UNL     1      14.380   6.645  20.470  0.00  0.00    +0.000 OA
ATOM     43  N   UNL     1      15.720   7.627  18.900  0.00  0.00    +0.000 N 
ATOM     44  C   UNL     1      14.968   6.616  19.402  0.00  0.00    +0.000 C 
ATOM     45  H   UNL     1      16.245   7.420  18.060  0.00  0.00    +0.000 HD
BRANCH  44  46
ATOM     46  O   UNL     1      14.963   5.600  18.513  0.00  0.00    +0.000 OA
BRANCH  46  47
ATOM     47  C   UNL     1      15.597   4.334  18.831  0.00  0.00    +0.000 C 
ATOM     48  C   UNL     1      16.702   4.509  19.878  0.00  0.00    +0.000 C 
ATOM     49  C   UNL     1      14.475   3.479  19.440  0.00  0.00    +0.000 C 
ATOM     50  C   UNL     1      16.111   3.638  17.566  0.00  0.00    +0.000 C 
ENDBRANCH  46  47
ENDBRANCH  44  46
ENDBRANCH  35  43
ENDBRANCH  32  35
ENDBRANCH  31  32
ENDBRANCH  29  31
ENDBRANCH  18  29
BRANCH   7  51
ATOM     51  O   UNL     1      18.393  13.634  20.835  0.00  0.00    +0.000 OA
BRANCH  51  53
ATOM     52  O   UNL     1      19.848  12.327  20.382  0.00  0.00    +0.000 OA
ATOM     53  C   UNL     1      18.825  12.763  19.865  0.00  0.00    +0.000 C 
BRANCH  53  54
ATOM     54  C   UNL     1      18.073  12.655  18.106  0.00  0.00    +0.000 A 
ATOM     55  C   UNL     1      16.978  13.484  17.601  0.00  0.00    +0.000 A 
ATOM     56  C   UNL     1      18.540  11.870  17.007  0.00  0.00    +0.000 A 
ATOM     57  C   UNL     1      16.462  13.515  16.280  0.00  0.00    +0.000 A 
ATOM     58  C   UNL     1      18.036  11.887  15.674  0.00  0.00    +0.000 A 
ATOM     59  C   UNL     1      16.997  12.708  15.308  0.00  0.00    +0.000 A 
ENDBRANCH  53  54
ENDBRANCH  51  53
ENDBRANCH   7  51
BRANCH   4  60
ATOM     60  O   UNL     1      19.928  15.053  18.386  0.00  0.00    +0.000 OA
BRANCH  60  62
ATOM     61  O   UNL     1      21.114  13.952  16.841  0.00  0.00    +0.000 OA
ATOM     62  C   UNL     1      20.406  14.915  17.127  0.00  0.00    +0.000 C 
ATOM     63  C   UNL     1      20.158  16.005  16.133  0.00  0.00    +0.000 C 
ENDBRANCH  60  62
ENDBRANCH   4  60
TORSDOF 17
ENDMDL
MODEL 9
REMARK VINA RESULT:      -6.8     19.304     23.730
REMARK  Name = 
REMARK  25 active torsions:
REMARK  status: ('A' for Active; 'I' for Inactive)
REMARK    1  A    between atoms: O_2  and  C_17
REMARK    2  A    between atoms: O_2  and  C_36
REMARK    3  A    between atoms: O_3  and  C_20
REMARK    4  A    between atoms: O_3  and  C_37
REMARK    5  A    between atoms: O_4  and  C_21
REMARK    6  A    between atoms: O_5  and  C_22
REMARK    7  A    between atoms: O_7  and  C_30
REMARK    8  A    between atoms: O_8  and  C_31
REMARK    9  A    between atoms: O_8  and  C_39
REMARK   10  A    between atoms: O_12  and  C_41
REMARK   11  A    between atoms: O_13  and  C_51
REMARK   12  A    between atoms: O_13  and  C_55
REMARK   13  A    between atoms: N_15  and  C_44
REMARK   14  A    between atoms: C_18  and  C_29
REMARK   15  A    between atoms: C_24  and  C_33
REMARK   16  A    between atoms: C_24  and  C_34
REMARK   17  A    between atoms: C_32  and  C_35
REMARK   18  A    between atoms: C_36  and  C_38
REMARK   19  A    between atoms: C_37  and  C_40
REMARK   20  A    between atoms: C_39  and  C_41
REMARK   21  A    between atoms: C_41  and  C_44
REMARK   22  A    between atoms: C_44  and  C_48
REMARK   23  A    between atoms: C_55  and  C_56
REMARK   24  A    between atoms: C_55  and  C_57
REMARK   25  A    between atoms: C_55  and  C_58
REMARK                            x       y       z     vdW  Elec       q    Type
REMARK                         _______ _______ _______ _____ _____    ______ ____
ROOT
ATOM      1  O   UNL     1      40.389 -20.271  -7.463  0.00  0.00    +0.000 OA
ATOM      2  O   UNL     1      40.789 -18.346  -1.037  0.00  0.00    +0.000 OA
ATOM      3  C   UNL     1      40.072 -17.600  -5.313  0.00  0.00    +0.000 C 
ATOM      4  C   UNL     1      40.719 -18.391  -6.488  0.00  0.00    +0.000 C 
ATOM      5  C   UNL     1      40.918 -18.186  -3.719  0.00  0.00    +0.000 C 
ATOM      6  C   UNL     1      40.157 -19.821  -6.101  0.00  0.00    +0.000 C 
ATOM      7  C   UNL     1      39.859 -15.793  -5.717  0.00  0.00    +0.000 C 
ATOM      8  C   UNL     1      39.256 -14.166  -4.956  0.00  0.00    +0.000 C 
ATOM      9  C   UNL     1      40.577 -19.733  -3.657  0.00  0.00    +0.000 C 
ATOM     10  C   UNL     1      40.862 -20.533  -4.966  0.00  0.00    +0.000 C 
ATOM     11  C   UNL     1      38.889 -13.808  -3.257  0.00  0.00    +0.000 C 
ATOM     12  C   UNL     1      40.103 -18.872  -7.863  0.00  0.00    +0.000 C 
ATOM     13  C   UNL     1      40.686 -17.522  -1.973  0.00  0.00    +0.000 C 
ATOM     14  C   UNL     1      40.433 -13.117  -5.216  0.00  0.00    +0.000 C 
ATOM     15  C   UNL     1      40.112 -14.187  -2.297  0.00  0.00    +0.000 C 
ATOM     16  C   UNL     1      42.500 -18.167  -3.834  0.00  0.00    +0.000 C 
ATOM     17  C   UNL     1      40.312 -15.726  -1.413  0.00  0.00    +0.000 C 
ATOM     18  C   UNL     1      41.482 -12.862  -4.039  0.00  0.00    +0.000 C 
ATOM     19  C   UNL     1      41.243 -13.471  -2.611  0.00  0.00    +0.000 C 
ATOM     20  C   UNL     1      38.685 -12.214  -3.145  0.00  0.00    +0.000 C 
ATOM     21  C   UNL     1      37.479 -14.164  -2.688  0.00  0.00    +0.000 C 
ATOM     22  C   UNL     1      42.459 -13.444  -1.718  0.00  0.00    +0.000 C 
ENDROOT
BRANCH  17  23
ATOM     23  O   UNL     1      39.353 -15.666  -0.357  0.00  0.00    +0.000 OA
ATOM     24  H   UNL     1      38.845 -16.496  -0.431  0.00  0.00    +0.000 HD
ENDBRANCH  17  23
BRANCH   9  25
ATOM     25  O   UNL     1      39.185 -19.882  -3.376  0.00  0.00    +0.000 OA
ATOM     26  H   UNL     1      39.048 -19.600  -2.454  0.00  0.00    +0.000 HD
ENDBRANCH   9  25
BRANCH   8  27
ATOM     27  O   UNL     1      38.152 -13.763  -5.789  0.00  0.00    +0.000 OA
ATOM     28  H   UNL     1      38.498 -13.366  -6.608  0.00  0.00    +0.000 HD
ENDBRANCH   8  27
BRANCH  18  29
ATOM     29  O   UNL     1      42.778 -13.348  -4.492  0.00  0.00    +0.000 OA
BRANCH  29  31
ATOM     30  O   UNL     1      43.202 -11.866  -6.142  0.00  0.00    +0.000 OA
ATOM     31  C   UNL     1      43.584 -12.478  -5.151  0.00  0.00    +0.000 C 
BRANCH  31  32
ATOM     32  C   UNL     1      45.039 -12.446  -4.670  0.00  0.00    +0.000 C 
BRANCH  32  33
ATOM     33  O   UNL     1      45.224 -12.113  -3.290  0.00  0.00    +0.000 OA
ATOM     34  H   UNL     1      46.136 -11.774  -3.214  0.00  0.00    +0.000 HD
ENDBRANCH  32  33
BRANCH  32  35
ATOM     35  C   UNL     1      45.841 -11.494  -5.598  0.00  0.00    +0.000 C 
BRANCH  35  36
ATOM     36  C   UNL     1      46.914 -12.222  -6.400  0.00  0.00    +0.000 A 
ATOM     37  C   UNL     1      47.924 -12.927  -5.725  0.00  0.00    +0.000 A 
ATOM     38  C   UNL     1      46.907 -12.243  -7.804  0.00  0.00    +0.000 A 
ATOM     39  C   UNL     1      48.913 -13.612  -6.435  0.00  0.00    +0.000 A 
ATOM     40  C   UNL     1      47.897 -12.927  -8.512  0.00  0.00    +0.000 A 
ATOM     41  C   UNL     1      48.901 -13.609  -7.827  0.00  0.00    +0.000 A 
ENDBRANCH  35  36
BRANCH  35  43
ATOM     42  O   UNL     1      46.038  -8.716  -6.307  0.00  0.00    +0.000 OA
ATOM     43  N   UNL     1      46.469 -10.418  -4.843  0.00  0.00    +0.000 N 
ATOM     44  C   UNL     1      46.600  -9.154  -5.318  0.00  0.00    +0.000 C 
ATOM     45  H   UNL     1      47.085 -10.677  -4.084  0.00  0.00    +0.000 HD
BRANCH  44  46
ATOM     46  O   UNL     1      47.428  -8.469  -4.499  0.00  0.00    +0.000 OA
BRANCH  46  47
ATOM     47  C   UNL     1      47.013  -7.212  -3.907  0.00  0.00    +0.000 C 
ATOM     48  C   UNL     1      45.742  -7.382  -3.069  0.00  0.00    +0.000 C 
ATOM     49  C   UNL     1      48.168  -6.821  -2.973  0.00  0.00    +0.000 C 
ATOM     50  C   UNL     1      46.854  -6.122  -4.973  0.00  0.00    +0.000 C 
ENDBRANCH  46  47
ENDBRANCH  44  46
ENDBRANCH  35  43
ENDBRANCH  32  35
ENDBRANCH  31  32
ENDBRANCH  29  31
ENDBRANCH  18  29
BRANCH   7  51
ATOM     51  O   UNL     1      41.021 -15.614  -5.124  0.00  0.00    +0.000 OA
BRANCH  51  53
ATOM     52  O   UNL     1      40.653 -15.279  -7.069  0.00  0.00    +0.000 OA
ATOM     53  C   UNL     1      41.630 -15.389  -6.335  0.00  0.00    +0.000 C 
BRANCH  53  54
ATOM     54  C   UNL     1      43.512 -15.575  -6.642  0.00  0.00    +0.000 A 
ATOM     55  C   UNL     1      44.497 -15.984  -5.640  0.00  0.00    +0.000 A 
ATOM     56  C   UNL     1      44.203 -15.479  -7.888  0.00  0.00    +0.000 A 
ATOM     57  C   UNL     1      45.877 -16.237  -5.845  0.00  0.00    +0.000 A 
ATOM     58  C   UNL     1      45.588 -15.730  -8.115  0.00  0.00    +0.000 A 
ATOM     59  C   UNL     1      46.427 -16.109  -7.095  0.00  0.00    +0.000 A 
ENDBRANCH  53  54
ENDBRANCH  51  53
ENDBRANCH   7  51
BRANCH   4  60
ATOM     60  O   UNL     1      42.163 -18.299  -6.487  0.00  0.00    +0.000 OA
BRANCH  60  62
ATOM     61  O   UNL     1      42.869 -18.484  -8.602  0.00  0.00    +0.000 OA
ATOM     62  C   UNL     1      42.960 -18.850  -7.432  0.00  0.00    +0.000 C 
ATOM     63  C   UNL     1      43.861 -19.982  -7.051  0.00  0.00    +0.000 C 
ENDBRANCH  60  62
ENDBRANCH   4  60
TORSDOF 17
ENDMDL
