MODEL 1
REMARK VINA RESULT:      -8.6      0.000      0.000
REMARK  Name = 
REMARK  13 active torsions:
REMARK  status: ('A' for Active; 'I' for Inactive)
REMARK    1  A    between atoms: O_1  and  C_13
REMARK    2  A    between atoms: O_1  and  C_19
REMARK    3  A    between atoms: O_3  and  C_14
REMARK    4  A    between atoms: O_4  and  C_22
REMARK    5  A    between atoms: O_5  and  C_24
REMARK    6  A    between atoms: O_6  and  C_26
REMARK    7  A    between atoms: O_8  and  C_30
REMARK    8  A    between atoms: O_11  and  C_35
REMARK    9  A    between atoms: O_11  and  C_39
REMARK   10  A    between atoms: N_12  and  C_21
REMARK   11  A    between atoms: C_14  and  C_25
REMARK   12  A    between atoms: C_23  and  C_29
REMARK   13  A    between atoms: C_25  and  C_30
REMARK                            x       y       z     vdW  Elec       q    Type
REMARK                         _______ _______ _______ _____ _____    ______ ____
ROOT
ATOM      1  O   UNL     1      41.105   4.723  14.485  0.00  0.00    +0.000 OA
ATOM      2  O   UNL     1      40.932   6.081   9.347  0.00  0.00    +0.000 OA
ATOM      3  C   UNL     1      38.479   0.861  12.365  0.00  0.00    +0.000 C 
ATOM      4  C   UNL     1      37.562   0.458  10.037  0.00  0.00    +0.000 C 
ATOM      5  C   UNL     1      38.270  -0.164  11.249  0.00  0.00    +0.000 C 
ATOM      6  C   UNL     1      38.382   1.626   9.470  0.00  0.00    +0.000 C 
ATOM      7  C   UNL     1      39.162   2.116  11.859  0.00  0.00    +0.000 A 
ATOM      8  C   UNL     1      39.082   2.491  10.503  0.00  0.00    +0.000 A 
ATOM      9  C   UNL     1      39.843   2.958  12.758  0.00  0.00    +0.000 A 
ATOM     10  C   UNL     1      39.706   3.679  10.083  0.00  0.00    +0.000 A 
ATOM     11  C   UNL     1      40.455   4.152  12.331  0.00  0.00    +0.000 A 
ATOM     12  C   UNL     1      40.387   4.509  10.989  0.00  0.00    +0.000 A 
ATOM     13  C   UNL     1      41.154   5.029  13.297  0.00  0.00    +0.000 C 
ATOM     14  C   UNL     1      41.026   5.755  10.527  0.00  0.00    +0.000 C 
ATOM     15  C   UNL     1      41.860   6.244  12.826  0.00  0.00    +0.000 A 
ATOM     16  C   UNL     1      41.780   6.594  11.476  0.00  0.00    +0.000 A 
ATOM     17  C   UNL     1      42.600   7.066  13.690  0.00  0.00    +0.000 A 
ATOM     18  C   UNL     1      42.424   7.745  10.996  0.00  0.00    +0.000 A 
ATOM     19  C   UNL     1      43.263   8.199  13.204  0.00  0.00    +0.000 A 
ATOM     20  C   UNL     1      43.166   8.545  11.860  0.00  0.00    +0.000 A 
ENDROOT
BRANCH   4  21
ATOM     21  O   UNL     1      36.250   0.908  10.397  0.00  0.00    +0.000 OA
ATOM     22  H   UNL     1      35.621   0.203  10.133  0.00  0.00    +0.000 HD
ENDBRANCH   4  21
BRANCH   9  23
ATOM     23  O   UNL     1      39.884   2.560  14.073  0.00  0.00    +0.000 OA
ATOM     24  H   UNL     1      40.583   3.077  14.538  0.00  0.00    +0.000 HD
ENDBRANCH   9  23
BRANCH  10  25
ATOM     25  O   UNL     1      39.620   3.980   8.746  0.00  0.00    +0.000 OA
ATOM     26  H   UNL     1      38.852   3.500   8.360  0.00  0.00    +0.000 HD
ENDBRANCH  10  25
BRANCH   4  28
ATOM     27  O   UNL     1      37.855  -0.466   7.798  0.00  0.00    +0.000 OA
ATOM     28  C   UNL     1      37.389  -0.601   8.935  0.00  0.00    +0.000 C 
BRANCH  28  29
ATOM     29  C   UNL     1      36.586  -1.851   9.287  0.00  0.00    +0.000 C 
BRANCH  29  30
ATOM     30  O   UNL     1      35.227  -1.723   8.882  0.00  0.00    +0.000 OA
ATOM     31  H   UNL     1      35.246  -1.566   7.916  0.00  0.00    +0.000 HD
ENDBRANCH  29  30
ENDBRANCH  28  29
ENDBRANCH   4  28
BRANCH  17  32
ATOM     32  O   UNL     1      42.795   6.746  15.007  0.00  0.00    +0.000 OA
ATOM     33  C   UNL     1      42.312   7.790  15.856  0.00  0.00    +0.000 C 
ENDBRANCH  17  32
BRANCH   3  34
ATOM     34  O   UNL     1      37.194   1.273  12.860  0.00  0.00    +0.000 OA
BRANCH  34  36
ATOM     35  O   UNL     1      36.910   0.394  15.026  0.00  0.00    +0.000 OA
ATOM     36  C   UNL     1      37.218   1.557  14.262  0.00  0.00    +0.000 C 
ATOM     37  C   UNL     1      36.258   2.712  14.555  0.00  0.00    +0.000 C 
ATOM     38  C   UNL     1      34.801   2.272  14.387  0.00  0.00    +0.000 C 
ATOM     39  C   UNL     1      34.538   1.018  15.245  0.00  0.00    +0.000 C 
ATOM     40  C   UNL     1      35.563  -0.069  14.869  0.00  0.00    +0.000 C 
ATOM     41  C   UNL     1      35.422  -1.325  15.721  0.00  0.00    +0.000 C 
BRANCH  38  42
ATOM     42  N   UNL     1      33.881   3.360  14.764  0.00  0.00    +0.000 NA
ATOM     43  H   UNL     1      32.920   3.023  14.751  0.00  0.00    +0.000 HD
ATOM     44  H   UNL     1      33.942   4.070  14.027  0.00  0.00    +0.000 HD
ENDBRANCH  38  42
BRANCH  39  45
ATOM     45  O   UNL     1      34.643   1.390  16.632  0.00  0.00    +0.000 OA
ATOM     46  H   UNL     1      33.740   1.468  16.983  0.00  0.00    +0.000 HD
ENDBRANCH  39  45
ENDBRANCH  34  36
ENDBRANCH   3  34
TORSDOF 11
ENDMDL
MODEL 2
REMARK VINA RESULT:      -8.1      3.700      5.946
REMARK  Name = 
REMARK  13 active torsions:
REMARK  status: ('A' for Active; 'I' for Inactive)
REMARK    1  A    between atoms: O_1  and  C_13
REMARK    2  A    between atoms: O_1  and  C_19
REMARK    3  A    between atoms: O_3  and  C_14
REMARK    4  A    between atoms: O_4  and  C_22
REMARK    5  A    between atoms: O_5  and  C_24
REMARK    6  A    between atoms: O_6  and  C_26
REMARK    7  A    between atoms: O_8  and  C_30
REMARK    8  A    between atoms: O_11  and  C_35
REMARK    9  A    between atoms: O_11  and  C_39
REMARK   10  A    between atoms: N_12  and  C_21
REMARK   11  A    between atoms: C_14  and  C_25
REMARK   12  A    between atoms: C_23  and  C_29
REMARK   13  A    between atoms: C_25  and  C_30
REMARK                            x       y       z     vdW  Elec       q    Type
REMARK                         _______ _______ _______ _____ _____    ______ ____
ROOT
ATOM      1  O   UNL     1      41.663   5.929  14.975  0.00  0.00    +0.000 OA
ATOM      2  O   UNL     1      37.139   3.941  16.937  0.00  0.00    +0.000 OA
ATOM      3  C   UNL     1      40.396   2.344  11.532  0.00  0.00    +0.000 C 
ATOM      4  C   UNL     1      38.582   0.577  11.455  0.00  0.00    +0.000 C 
ATOM      5  C   UNL     1      39.362   1.631  10.658  0.00  0.00    +0.000 C 
ATOM      6  C   UNL     1      37.847   1.224  12.637  0.00  0.00    +0.000 C 
ATOM      7  C   UNL     1      39.778   2.897  12.801  0.00  0.00    +0.000 A 
ATOM      8  C   UNL     1      38.599   2.343  13.337  0.00  0.00    +0.000 A 
ATOM      9  C   UNL     1      40.413   3.945  13.494  0.00  0.00    +0.000 A 
ATOM     10  C   UNL     1      38.077   2.868  14.532  0.00  0.00    +0.000 A 
ATOM     11  C   UNL     1      39.889   4.458  14.697  0.00  0.00    +0.000 A 
ATOM     12  C   UNL     1      38.717   3.917  15.213  0.00  0.00    +0.000 A 
ATOM     13  C   UNL     1      40.582   5.551  15.415  0.00  0.00    +0.000 C 
ATOM     14  C   UNL     1      38.156   4.446  16.470  0.00  0.00    +0.000 C 
ATOM     15  C   UNL     1      39.983   6.134  16.640  0.00  0.00    +0.000 A 
ATOM     16  C   UNL     1      38.808   5.579  17.150  0.00  0.00    +0.000 A 
ATOM     17  C   UNL     1      40.561   7.221  17.314  0.00  0.00    +0.000 A 
ATOM     18  C   UNL     1      38.219   6.097  18.315  0.00  0.00    +0.000 A 
ATOM     19  C   UNL     1      39.959   7.752  18.460  0.00  0.00    +0.000 A 
ATOM     20  C   UNL     1      38.794   7.183  18.967  0.00  0.00    +0.000 A 
ENDROOT
BRANCH   4  21
ATOM     21  O   UNL     1      39.462  -0.451  11.927  0.00  0.00    +0.000 OA
ATOM     22  H   UNL     1      39.120  -1.304  11.582  0.00  0.00    +0.000 HD
ENDBRANCH   4  21
BRANCH   9  23
ATOM     23  O   UNL     1      41.568   4.446  12.942  0.00  0.00    +0.000 OA
ATOM     24  H   UNL     1      42.269   4.458  13.635  0.00  0.00    +0.000 HD
ENDBRANCH   9  23
BRANCH  10  25
ATOM     25  O   UNL     1      36.911   2.308  14.994  0.00  0.00    +0.000 OA
ATOM     26  H   UNL     1      36.556   2.866  15.723  0.00  0.00    +0.000 HD
ENDBRANCH  10  25
BRANCH   4  28
ATOM     27  O   UNL     1      36.344   0.195  10.561  0.00  0.00    +0.000 OA
ATOM     28  C   UNL     1      37.544  -0.102  10.544  0.00  0.00    +0.000 C 
BRANCH  28  29
ATOM     29  C   UNL     1      38.047  -1.197   9.607  0.00  0.00    +0.000 C 
BRANCH  29  30
ATOM     30  O   UNL     1      37.234  -2.362   9.690  0.00  0.00    +0.000 OA
ATOM     31  H   UNL     1      37.631  -2.920  10.390  0.00  0.00    +0.000 HD
ENDBRANCH  29  30
ENDBRANCH  28  29
ENDBRANCH   4  28
BRANCH  17  32
ATOM     32  O   UNL     1      41.665   7.872  16.831  0.00  0.00    +0.000 OA
ATOM     33  C   UNL     1      41.361   9.241  16.554  0.00  0.00    +0.000 C 
ENDBRANCH  17  32
BRANCH   3  34
ATOM     34  O   UNL     1      41.386   1.389  11.949  0.00  0.00    +0.000 OA
BRANCH  34  36
ATOM     35  O   UNL     1      42.168  -0.002  10.217  0.00  0.00    +0.000 OA
ATOM     36  C   UNL     1      42.401   1.192  10.961  0.00  0.00    +0.000 C 
ATOM     37  C   UNL     1      43.771   1.191  11.642  0.00  0.00    +0.000 C 
ATOM     38  C   UNL     1      43.961  -0.070  12.489  0.00  0.00    +0.000 C 
ATOM     39  C   UNL     1      43.703  -1.319  11.623  0.00  0.00    +0.000 C 
ATOM     40  C   UNL     1      42.305  -1.204  10.986  0.00  0.00    +0.000 C 
ATOM     41  C   UNL     1      41.990  -2.367  10.051  0.00  0.00    +0.000 C 
BRANCH  38  42
ATOM     42  N   UNL     1      45.318  -0.112  13.065  0.00  0.00    +0.000 NA
ATOM     43  H   UNL     1      46.007  -0.231  12.325  0.00  0.00    +0.000 HD
ATOM     44  H   UNL     1      45.370  -0.960  13.640  0.00  0.00    +0.000 HD
ENDBRANCH  38  42
BRANCH  39  45
ATOM     45  O   UNL     1      44.737  -1.397  10.624  0.00  0.00    +0.000 OA
ATOM     46  H   UNL     1      44.556  -2.179  10.076  0.00  0.00    +0.000 HD
ENDBRANCH  39  45
ENDBRANCH  34  36
ENDBRANCH   3  34
TORSDOF 11
ENDMDL
MODEL 3
REMARK VINA RESULT:      -8.0      4.767      6.865
REMARK  Name = 
REMARK  13 active torsions:
REMARK  status: ('A' for Active; 'I' for Inactive)
REMARK    1  A    between atoms: O_1  and  C_13
REMARK    2  A    between atoms: O_1  and  C_19
REMARK    3  A    between atoms: O_3  and  C_14
REMARK    4  A    between atoms: O_4  and  C_22
REMARK    5  A    between atoms: O_5  and  C_24
REMARK    6  A    between atoms: O_6  and  C_26
REMARK    7  A    between atoms: O_8  and  C_30
REMARK    8  A    between atoms: O_11  and  C_35
REMARK    9  A    between atoms: O_11  and  C_39
REMARK   10  A    between atoms: N_12  and  C_21
REMARK   11  A    between atoms: C_14  and  C_25
REMARK   12  A    between atoms: C_23  and  C_29
REMARK   13  A    between atoms: C_25  and  C_30
REMARK                            x       y       z     vdW  Elec       q    Type
REMARK                         _______ _______ _______ _____ _____    ______ ____
ROOT
ATOM      1  O   UNL     1      44.335   0.885  13.005  0.00  0.00    +0.000 OA
ATOM      2  O   UNL     1      43.935  -3.092   9.499  0.00  0.00    +0.000 OA
ATOM      3  C   UNL     1      39.560   1.415  11.209  0.00  0.00    +0.000 C 
ATOM      4  C   UNL     1      38.267   0.272   9.353  0.00  0.00    +0.000 C 
ATOM      5  C   UNL     1      38.215   0.824  10.784  0.00  0.00    +0.000 C 
ATOM      6  C   UNL     1      39.334  -0.826   9.234  0.00  0.00    +0.000 C 
ATOM      7  C   UNL     1      40.700   0.439  10.991  0.00  0.00    +0.000 A 
ATOM      8  C   UNL     1      40.603  -0.590  10.035  0.00  0.00    +0.000 A 
ATOM      9  C   UNL     1      41.901   0.588  11.710  0.00  0.00    +0.000 A 
ATOM     10  C   UNL     1      41.696  -1.454   9.845  0.00  0.00    +0.000 A 
ATOM     11  C   UNL     1      42.995  -0.274  11.506  0.00  0.00    +0.000 A 
ATOM     12  C   UNL     1      42.888  -1.298  10.572  0.00  0.00    +0.000 A 
ATOM     13  C   UNL     1      44.253  -0.090  12.264  0.00  0.00    +0.000 C 
ATOM     14  C   UNL     1      44.025  -2.211  10.350  0.00  0.00    +0.000 C 
ATOM     15  C   UNL     1      45.371  -1.048  12.097  0.00  0.00    +0.000 A 
ATOM     16  C   UNL     1      45.253  -2.070  11.152  0.00  0.00    +0.000 A 
ATOM     17  C   UNL     1      46.554  -0.961  12.847  0.00  0.00    +0.000 A 
ATOM     18  C   UNL     1      46.297  -2.988  10.957  0.00  0.00    +0.000 A 
ATOM     19  C   UNL     1      47.583  -1.893  12.669  0.00  0.00    +0.000 A 
ATOM     20  C   UNL     1      47.459  -2.900  11.716  0.00  0.00    +0.000 A 
ENDROOT
BRANCH   4  21
ATOM     21  O   UNL     1      38.539   1.323   8.418  0.00  0.00    +0.000 OA
ATOM     22  H   UNL     1      38.121   1.067   7.568  0.00  0.00    +0.000 HD
ENDBRANCH   4  21
BRANCH   9  23
ATOM     23  O   UNL     1      41.956   1.615  12.623  0.00  0.00    +0.000 OA
ATOM     24  H   UNL     1      41.967   2.472  12.134  0.00  0.00    +0.000 HD
ENDBRANCH   9  23
BRANCH  10  25
ATOM     25  O   UNL     1      41.535  -2.457   8.920  0.00  0.00    +0.000 OA
ATOM     26  H   UNL     1      42.020  -2.213   8.099  0.00  0.00    +0.000 HD
ENDBRANCH  10  25
BRANCH   4  28
ATOM     27  O   UNL     1      35.999   0.340   8.458  0.00  0.00    +0.000 OA
ATOM     28  C   UNL     1      36.902  -0.327   8.975  0.00  0.00    +0.000 C 
BRANCH  28  29
ATOM     29  C   UNL     1      36.678  -1.806   9.283  0.00  0.00    +0.000 C 
BRANCH  29  30
ATOM     30  O   UNL     1      35.378  -2.226   8.886  0.00  0.00    +0.000 OA
ATOM     31  H   UNL     1      35.510  -3.001   8.303  0.00  0.00    +0.000 HD
ENDBRANCH  29  30
ENDBRANCH  28  29
ENDBRANCH   4  28
BRANCH  17  32
ATOM     32  O   UNL     1      46.712  -0.041  13.849  0.00  0.00    +0.000 OA
ATOM     33  C   UNL     1      47.877  -0.335  14.624  0.00  0.00    +0.000 C 
ENDBRANCH  17  32
BRANCH   3  34
ATOM     34  O   UNL     1      39.844   2.557  10.384  0.00  0.00    +0.000 OA
BRANCH  34  36
ATOM     35  O   UNL     1      38.826   4.463   9.446  0.00  0.00    +0.000 OA
ATOM     36  C   UNL     1      38.917   3.625  10.596  0.00  0.00    +0.000 C 
ATOM     37  C   UNL     1      39.328   4.404  11.848  0.00  0.00    +0.000 C 
ATOM     38  C   UNL     1      40.613   5.198  11.602  0.00  0.00    +0.000 C 
ATOM     39  C   UNL     1      40.442   6.086  10.352  0.00  0.00    +0.000 C 
ATOM     40  C   UNL     1      40.023   5.199   9.164  0.00  0.00    +0.000 C 
ATOM     41  C   UNL     1      39.761   6.005   7.897  0.00  0.00    +0.000 C 
BRANCH  38  42
ATOM     42  N   UNL     1      40.950   6.021  12.778  0.00  0.00    +0.000 NA
ATOM     43  H   UNL     1      40.669   5.542  13.631  0.00  0.00    +0.000 HD
ATOM     44  H   UNL     1      40.372   6.867  12.724  0.00  0.00    +0.000 HD
ENDBRANCH  38  42
BRANCH  39  45
ATOM     45  O   UNL     1      39.449   7.088  10.643  0.00  0.00    +0.000 OA
ATOM     46  H   UNL     1      39.909   7.850  11.033  0.00  0.00    +0.000 HD
ENDBRANCH  39  45
ENDBRANCH  34  36
ENDBRANCH   3  34
TORSDOF 11
ENDMDL
MODEL 4
REMARK VINA RESULT:      -8.0      4.571     10.473
REMARK  Name = 
REMARK  13 active torsions:
REMARK  status: ('A' for Active; 'I' for Inactive)
REMARK    1  A    between atoms: O_1  and  C_13
REMARK    2  A    between atoms: O_1  and  C_19
REMARK    3  A    between atoms: O_3  and  C_14
REMARK    4  A    between atoms: O_4  and  C_22
REMARK    5  A    between atoms: O_5  and  C_24
REMARK    6  A    between atoms: O_6  and  C_26
REMARK    7  A    between atoms: O_8  and  C_30
REMARK    8  A    between atoms: O_11  and  C_35
REMARK    9  A    between atoms: O_11  and  C_39
REMARK   10  A    between atoms: N_12  and  C_21
REMARK   11  A    between atoms: C_14  and  C_25
REMARK   12  A    between atoms: C_23  and  C_29
REMARK   13  A    between atoms: C_25  and  C_30
REMARK                            x       y       z     vdW  Elec       q    Type
REMARK                         _______ _______ _______ _____ _____    ______ ____
ROOT
ATOM      1  O   UNL     1      38.133   5.033  18.537  0.00  0.00    +0.000 OA
ATOM      2  O   UNL     1      39.625   4.519  13.460  0.00  0.00    +0.000 OA
ATOM      3  C   UNL     1      41.892   8.494  18.090  0.00  0.00    +0.000 C 
ATOM      4  C   UNL     1      43.527   9.050  16.235  0.00  0.00    +0.000 C 
ATOM      5  C   UNL     1      42.601   9.611  17.322  0.00  0.00    +0.000 C 
ATOM      6  C   UNL     1      42.733   8.205  15.229  0.00  0.00    +0.000 C 
ATOM      7  C   UNL     1      41.194   7.524  17.158  0.00  0.00    +0.000 A 
ATOM      8  C   UNL     1      41.617   7.365  15.824  0.00  0.00    +0.000 A 
ATOM      9  C   UNL     1      40.140   6.723  17.637  0.00  0.00    +0.000 A 
ATOM     10  C   UNL     1      40.958   6.432  15.003  0.00  0.00    +0.000 A 
ATOM     11  C   UNL     1      39.493   5.783  16.811  0.00  0.00    +0.000 A 
ATOM     12  C   UNL     1      39.904   5.641  15.491  0.00  0.00    +0.000 A 
ATOM     13  C   UNL     1      38.396   4.942  17.342  0.00  0.00    +0.000 C 
ATOM     14  C   UNL     1      39.234   4.663  14.614  0.00  0.00    +0.000 C 
ATOM     15  C   UNL     1      37.672   4.009  16.445  0.00  0.00    +0.000 A 
ATOM     16  C   UNL     1      38.098   3.873  15.122  0.00  0.00    +0.000 A 
ATOM     17  C   UNL     1      36.577   3.247  16.880  0.00  0.00    +0.000 A 
ATOM     18  C   UNL     1      37.445   2.990  14.247  0.00  0.00    +0.000 A 
ATOM     19  C   UNL     1      35.911   2.386  15.999  0.00  0.00    +0.000 A 
ATOM     20  C   UNL     1      36.352   2.250  14.686  0.00  0.00    +0.000 A 
ENDROOT
BRANCH   4  21
ATOM     21  O   UNL     1      44.572   8.264  16.821  0.00  0.00    +0.000 OA
ATOM     22  H   UNL     1      44.898   8.755  17.605  0.00  0.00    +0.000 HD
ENDBRANCH   4  21
BRANCH   9  23
ATOM     23  O   UNL     1      39.769   6.902  18.949  0.00  0.00    +0.000 OA
ATOM     24  H   UNL     1      39.398   7.810  19.051  0.00  0.00    +0.000 HD
ENDBRANCH   9  23
BRANCH  10  25
ATOM     25  O   UNL     1      41.394   6.338  13.704  0.00  0.00    +0.000 OA
ATOM     26  H   UNL     1      42.207   5.784  13.680  0.00  0.00    +0.000 HD
ENDBRANCH  10  25
BRANCH   4  28
ATOM     27  O   UNL     1      45.355  10.134  15.036  0.00  0.00    +0.000 OA
ATOM     28  C   UNL     1      44.203  10.207  15.479  0.00  0.00    +0.000 C 
BRANCH  28  29
ATOM     29  C   UNL     1      43.397  11.492  15.303  0.00  0.00    +0.000 C 
BRANCH  29  30
ATOM     30  O   UNL     1      42.995  11.668  13.949  0.00  0.00    +0.000 OA
ATOM     31  H   UNL     1      42.555  10.834  13.686  0.00  0.00    +0.000 HD
ENDBRANCH  29  30
ENDBRANCH  28  29
ENDBRANCH   4  28
BRANCH  17  32
ATOM     32  O   UNL     1      36.048   3.386  18.136  0.00  0.00    +0.000 OA
ATOM     33  C   UNL     1      36.048   2.133  18.824  0.00  0.00    +0.000 C 
ENDBRANCH  17  32
BRANCH   3  34
ATOM     34  O   UNL     1      42.877   7.728  18.804  0.00  0.00    +0.000 OA
BRANCH  34  36
ATOM     35  O   UNL     1      43.732   9.349  20.283  0.00  0.00    +0.000 OA
ATOM     36  C   UNL     1      42.995   8.134  20.170  0.00  0.00    +0.000 C 
ATOM     37  C   UNL     1      43.626   6.997  20.978  0.00  0.00    +0.000 C 
ATOM     38  C   UNL     1      45.103   6.820  20.614  0.00  0.00    +0.000 C 
ATOM     39  C   UNL     1      45.838   8.167  20.766  0.00  0.00    +0.000 C 
ATOM     40  C   UNL     1      45.113   9.230  19.919  0.00  0.00    +0.000 C 
ATOM     41  C   UNL     1      45.731  10.616  20.065  0.00  0.00    +0.000 C 
BRANCH  38  42
ATOM     42  N   UNL     1      45.729   5.791  21.463  0.00  0.00    +0.000 NA
ATOM     43  H   UNL     1      45.598   4.870  21.048  0.00  0.00    +0.000 HD
ATOM     44  H   UNL     1      45.210   5.780  22.348  0.00  0.00    +0.000 HD
ENDBRANCH  38  42
BRANCH  39  45
ATOM     45  O   UNL     1      45.851   8.519  22.162  0.00  0.00    +0.000 OA
ATOM     46  H   UNL     1      46.033   9.472  22.222  0.00  0.00    +0.000 HD
ENDBRANCH  39  45
ENDBRANCH  34  36
ENDBRANCH   3  34
TORSDOF 11
ENDMDL
MODEL 5
REMARK VINA RESULT:      -7.8     12.124     15.798
REMARK  Name = 
REMARK  13 active torsions:
REMARK  status: ('A' for Active; 'I' for Inactive)
REMARK    1  A    between atoms: O_1  and  C_13
REMARK    2  A    between atoms: O_1  and  C_19
REMARK    3  A    between atoms: O_3  and  C_14
REMARK    4  A    between atoms: O_4  and  C_22
REMARK    5  A    between atoms: O_5  and  C_24
REMARK    6  A    between atoms: O_6  and  C_26
REMARK    7  A    between atoms: O_8  and  C_30
REMARK    8  A    between atoms: O_11  and  C_35
REMARK    9  A    between atoms: O_11  and  C_39
REMARK   10  A    between atoms: N_12  and  C_21
REMARK   11  A    between atoms: C_14  and  C_25
REMARK   12  A    between atoms: C_23  and  C_29
REMARK   13  A    between atoms: C_25  and  C_30
REMARK                            x       y       z     vdW  Elec       q    Type
REMARK                         _______ _______ _______ _____ _____    ______ ____
ROOT
ATOM      1  O   UNL     1      29.544   2.971   4.058  0.00  0.00    +0.000 OA
ATOM      2  O   UNL     1      28.770  -2.267   4.535  0.00  0.00    +0.000 OA
ATOM      3  C   UNL     1      24.648   2.666   5.557  0.00  0.00    +0.000 C 
ATOM      4  C   UNL     1      23.057   0.725   5.904  0.00  0.00    +0.000 C 
ATOM      5  C   UNL     1      23.552   2.073   6.444  0.00  0.00    +0.000 C 
ATOM      6  C   UNL     1      24.212  -0.285   5.826  0.00  0.00    +0.000 C 
ATOM      7  C   UNL     1      25.771   1.679   5.308  0.00  0.00    +0.000 A 
ATOM      8  C   UNL     1      25.551   0.290   5.400  0.00  0.00    +0.000 A 
ATOM      9  C   UNL     1      27.043   2.142   4.925  0.00  0.00    +0.000 A 
ATOM     10  C   UNL     1      26.614  -0.591   5.133  0.00  0.00    +0.000 A 
ATOM     11  C   UNL     1      28.100   1.252   4.648  0.00  0.00    +0.000 A 
ATOM     12  C   UNL     1      27.882  -0.116   4.756  0.00  0.00    +0.000 A 
ATOM     13  C   UNL     1      29.426   1.762   4.234  0.00  0.00    +0.000 C 
ATOM     14  C   UNL     1      28.980  -1.059   4.472  0.00  0.00    +0.000 C 
ATOM     15  C   UNL     1      30.551   0.822   4.018  0.00  0.00    +0.000 A 
ATOM     16  C   UNL     1      30.318  -0.551   4.125  0.00  0.00    +0.000 A 
ATOM     17  C   UNL     1      31.846   1.260   3.698  0.00  0.00    +0.000 A 
ATOM     18  C   UNL     1      31.357  -1.472   3.914  0.00  0.00    +0.000 A 
ATOM     19  C   UNL     1      32.886   0.342   3.514  0.00  0.00    +0.000 A 
ATOM     20  C   UNL     1      32.639  -1.024   3.611  0.00  0.00    +0.000 A 
ENDROOT
BRANCH   4  21
ATOM     21  O   UNL     1      22.459   0.888   4.612  0.00  0.00    +0.000 OA
ATOM     22  H   UNL     1      21.798   1.609   4.690  0.00  0.00    +0.000 HD
ENDBRANCH   4  21
BRANCH   9  23
ATOM     23  O   UNL     1      27.209   3.504   4.835  0.00  0.00    +0.000 OA
ATOM     24  H   UNL     1      27.790   3.800   5.574  0.00  0.00    +0.000 HD
ENDBRANCH   9  23
BRANCH  10  25
ATOM     25  O   UNL     1      26.350  -1.932   5.265  0.00  0.00    +0.000 OA
ATOM     26  H   UNL     1      26.729  -2.409   4.491  0.00  0.00    +0.000 HD
ENDBRANCH  10  25
BRANCH   4  28
ATOM     27  O   UNL     1      20.764   0.253   6.590  0.00  0.00    +0.000 OA
ATOM     28  C   UNL     1      21.972   0.158   6.835  0.00  0.00    +0.000 C 
BRANCH  28  29
ATOM     29  C   UNL     1      22.439  -0.527   8.118  0.00  0.00    +0.000 C 
BRANCH  29  30
ATOM     30  O   UNL     1      22.432   0.375   9.218  0.00  0.00    +0.000 OA
ATOM     31  H   UNL     1      23.067   1.085   8.991  0.00  0.00    +0.000 HD
ENDBRANCH  29  30
ENDBRANCH  28  29
ENDBRANCH   4  28
BRANCH  17  32
ATOM     32  O   UNL     1      32.173   2.590   3.658  0.00  0.00    +0.000 OA
ATOM     33  C   UNL     1      32.984   2.874   2.516  0.00  0.00    +0.000 C 
ENDBRANCH  17  32
BRANCH   3  34
ATOM     34  O   UNL     1      24.085   2.969   4.269  0.00  0.00    +0.000 OA
BRANCH  34  36
ATOM     35  O   UNL     1      22.877   4.534   2.990  0.00  0.00    +0.000 OA
ATOM     36  C   UNL     1      23.225   4.111   4.306  0.00  0.00    +0.000 C 
ATOM     37  C   UNL     1      23.902   5.223   5.110  0.00  0.00    +0.000 C 
ATOM     38  C   UNL     1      25.097   5.801   4.349  0.00  0.00    +0.000 C 
ATOM     39  C   UNL     1      24.648   6.245   2.942  0.00  0.00    +0.000 C 
ATOM     40  C   UNL     1      23.978   5.052   2.233  0.00  0.00    +0.000 C 
ATOM     41  C   UNL     1      23.437   5.420   0.855  0.00  0.00    +0.000 C 
BRANCH  38  42
ATOM     42  N   UNL     1      25.685   6.935   5.085  0.00  0.00    +0.000 NA
ATOM     43  H   UNL     1      25.912   7.690   4.440  0.00  0.00    +0.000 HD
ATOM     44  H   UNL     1      26.581   6.610   5.465  0.00  0.00    +0.000 HD
ENDBRANCH  38  42
BRANCH  39  45
ATOM     45  O   UNL     1      23.742   7.354   3.086  0.00  0.00    +0.000 OA
ATOM     46  H   UNL     1      24.118   8.105   2.596  0.00  0.00    +0.000 HD
ENDBRANCH  39  45
ENDBRANCH  34  36
ENDBRANCH   3  34
TORSDOF 11
ENDMDL
MODEL 6
REMARK VINA RESULT:      -7.7      2.324      5.217
REMARK  Name = 
REMARK  13 active torsions:
REMARK  status: ('A' for Active; 'I' for Inactive)
REMARK    1  A    between atoms: O_1  and  C_13
REMARK    2  A    between atoms: O_1  and  C_19
REMARK    3  A    between atoms: O_3  and  C_14
REMARK    4  A    between atoms: O_4  and  C_22
REMARK    5  A    between atoms: O_5  and  C_24
REMARK    6  A    between atoms: O_6  and  C_26
REMARK    7  A    between atoms: O_8  and  C_30
REMARK    8  A    between atoms: O_11  and  C_35
REMARK    9  A    between atoms: O_11  and  C_39
REMARK   10  A    between atoms: N_12  and  C_21
REMARK   11  A    between atoms: C_14  and  C_25
REMARK   12  A    between atoms: C_23  and  C_29
REMARK   13  A    between atoms: C_25  and  C_30
REMARK                            x       y       z     vdW  Elec       q    Type
REMARK                         _______ _______ _______ _____ _____    ______ ____
ROOT
ATOM      1  O   UNL     1      41.587   5.424  11.784  0.00  0.00    +0.000 OA
ATOM      2  O   UNL     1      40.428   5.849  16.955  0.00  0.00    +0.000 OA
ATOM      3  C   UNL     1      37.358   2.559  12.252  0.00  0.00    +0.000 C 
ATOM      4  C   UNL     1      35.985   1.804  14.244  0.00  0.00    +0.000 C 
ATOM      5  C   UNL     1      35.949   2.329  12.802  0.00  0.00    +0.000 C 
ATOM      6  C   UNL     1      36.705   2.799  15.166  0.00  0.00    +0.000 C 
ATOM      7  C   UNL     1      38.191   3.423  13.177  0.00  0.00    +0.000 A 
ATOM      8  C   UNL     1      37.902   3.503  14.553  0.00  0.00    +0.000 A 
ATOM      9  C   UNL     1      39.308   4.118  12.675  0.00  0.00    +0.000 A 
ATOM     10  C   UNL     1      38.720   4.295  15.380  0.00  0.00    +0.000 A 
ATOM     11  C   UNL     1      40.129   4.899  13.512  0.00  0.00    +0.000 A 
ATOM     12  C   UNL     1      39.830   4.987  14.867  0.00  0.00    +0.000 A 
ATOM     13  C   UNL     1      41.306   5.609  12.964  0.00  0.00    +0.000 C 
ATOM     14  C   UNL     1      40.678   5.804  15.754  0.00  0.00    +0.000 C 
ATOM     15  C   UNL     1      42.119   6.488  13.838  0.00  0.00    +0.000 A 
ATOM     16  C   UNL     1      41.811   6.565  15.198  0.00  0.00    +0.000 A 
ATOM     17  C   UNL     1      43.198   7.242  13.350  0.00  0.00    +0.000 A 
ATOM     18  C   UNL     1      42.567   7.377  16.058  0.00  0.00    +0.000 A 
ATOM     19  C   UNL     1      43.934   8.071  14.205  0.00  0.00    +0.000 A 
ATOM     20  C   UNL     1      43.626   8.130  15.560  0.00  0.00    +0.000 A 
ENDROOT
BRANCH   4  21
ATOM     21  O   UNL     1      36.633   0.527  14.299  0.00  0.00    +0.000 OA
ATOM     22  H   UNL     1      37.486   0.616  13.822  0.00  0.00    +0.000 HD
ENDBRANCH   4  21
BRANCH   9  23
ATOM     23  O   UNL     1      39.560   4.000  11.329  0.00  0.00    +0.000 OA
ATOM     24  H   UNL     1      38.854   3.444  10.923  0.00  0.00    +0.000 HD
ENDBRANCH   9  23
BRANCH  10  25
ATOM     25  O   UNL     1      38.375   4.358  16.708  0.00  0.00    +0.000 OA
ATOM     26  H   UNL     1      37.598   4.954  16.808  0.00  0.00    +0.000 HD
ENDBRANCH  10  25
BRANCH   4  28
ATOM     27  O   UNL     1      33.773   2.545  14.957  0.00  0.00    +0.000 OA
ATOM     28  C   UNL     1      34.551   1.604  14.761  0.00  0.00    +0.000 C 
BRANCH  28  29
ATOM     29  C   UNL     1      34.107   0.173  15.056  0.00  0.00    +0.000 C 
BRANCH  29  30
ATOM     30  O   UNL     1      32.689   0.074  15.122  0.00  0.00    +0.000 OA
ATOM     31  H   UNL     1      32.474  -0.124  16.056  0.00  0.00    +0.000 HD
ENDBRANCH  29  30
ENDBRANCH  28  29
ENDBRANCH   4  28
BRANCH  17  32
ATOM     32  O   UNL     1      43.510   7.286  12.017  0.00  0.00    +0.000 OA
ATOM     33  C   UNL     1      44.914   7.105  11.823  0.00  0.00    +0.000 C 
ENDBRANCH  17  32
BRANCH   3  34
ATOM     34  O   UNL     1      38.033   1.293  12.167  0.00  0.00    +0.000 OA
BRANCH  34  36
ATOM     35  O   UNL     1      38.335  -0.688  10.929  0.00  0.00    +0.000 OA
ATOM     36  C   UNL     1      37.546   0.489  11.088  0.00  0.00    +0.000 C 
ATOM     37  C   UNL     1      37.505   1.334   9.812  0.00  0.00    +0.000 C 
ATOM     38  C   UNL     1      38.918   1.642   9.312  0.00  0.00    +0.000 C 
ATOM     39  C   UNL     1      39.709   0.327   9.155  0.00  0.00    +0.000 C 
ATOM     40  C   UNL     1      39.677  -0.437  10.493  0.00  0.00    +0.000 C 
ATOM     41  C   UNL     1      40.377  -1.789  10.411  0.00  0.00    +0.000 C 
BRANCH  38  42
ATOM     42  N   UNL     1      38.871   2.372   8.033  0.00  0.00    +0.000 NA
ATOM     43  H   UNL     1      38.218   3.150   8.100  0.00  0.00    +0.000 HD
ATOM     44  H   UNL     1      38.475   1.729   7.338  0.00  0.00    +0.000 HD
ENDBRANCH  38  42
BRANCH  39  45
ATOM     45  O   UNL     1      39.110  -0.437   8.092  0.00  0.00    +0.000 OA
ATOM     46  H   UNL     1      39.231   0.064   7.268  0.00  0.00    +0.000 HD
ENDBRANCH  39  45
ENDBRANCH  34  36
ENDBRANCH   3  34
TORSDOF 11
ENDMDL
MODEL 7
REMARK VINA RESULT:      -7.7     21.363     26.137
REMARK  Name = 
REMARK  13 active torsions:
REMARK  status: ('A' for Active; 'I' for Inactive)
REMARK    1  A    between atoms: O_1  and  C_13
REMARK    2  A    between atoms: O_1  and  C_19
REMARK    3  A    between atoms: O_3  and  C_14
REMARK    4  A    between atoms: O_4  and  C_22
REMARK    5  A    between atoms: O_5  and  C_24
REMARK    6  A    between atoms: O_6  and  C_26
REMARK    7  A    between atoms: O_8  and  C_30
REMARK    8  A    between atoms: O_11  and  C_35
REMARK    9  A    between atoms: O_11  and  C_39
REMARK   10  A    between atoms: N_12  and  C_21
REMARK   11  A    between atoms: C_14  and  C_25
REMARK   12  A    between atoms: C_23  and  C_29
REMARK   13  A    between atoms: C_25  and  C_30
REMARK                            x       y       z     vdW  Elec       q    Type
REMARK                         _______ _______ _______ _____ _____    ______ ____
ROOT
ATOM      1  O   UNL     1      15.908   7.198  21.675  0.00  0.00    +0.000 OA
ATOM      2  O   UNL     1      20.513   9.073  19.793  0.00  0.00    +0.000 OA
ATOM      3  C   UNL     1      16.052  11.973  23.542  0.00  0.00    +0.000 C 
ATOM      4  C   UNL     1      17.820  13.789  23.529  0.00  0.00    +0.000 C 
ATOM      5  C   UNL     1      16.327  13.469  23.377  0.00  0.00    +0.000 C 
ATOM      6  C   UNL     1      18.647  13.030  22.481  0.00  0.00    +0.000 C 
ATOM      7  C   UNL     1      16.934  11.134  22.638  0.00  0.00    +0.000 A 
ATOM      8  C   UNL     1      18.170  11.622  22.172  0.00  0.00    +0.000 A 
ATOM      9  C   UNL     1      16.547   9.824  22.298  0.00  0.00    +0.000 A 
ATOM     10  C   UNL     1      18.969  10.798  21.359  0.00  0.00    +0.000 A 
ATOM     11  C   UNL     1      17.359   9.001  21.492  0.00  0.00    +0.000 A 
ATOM     12  C   UNL     1      18.571   9.493  21.022  0.00  0.00    +0.000 A 
ATOM     13  C   UNL     1      16.938   7.622  21.159  0.00  0.00    +0.000 C 
ATOM     14  C   UNL     1      19.429   8.644  20.176  0.00  0.00    +0.000 C 
ATOM     15  C   UNL     1      17.762   6.791  20.250  0.00  0.00    +0.000 A 
ATOM     16  C   UNL     1      18.980   7.295  19.787  0.00  0.00    +0.000 A 
ATOM     17  C   UNL     1      17.369   5.506  19.842  0.00  0.00    +0.000 A 
ATOM     18  C   UNL     1      19.794   6.532  18.936  0.00  0.00    +0.000 A 
ATOM     19  C   UNL     1      18.170   4.757  18.972  0.00  0.00    +0.000 A 
ATOM     20  C   UNL     1      19.387   5.265  18.528  0.00  0.00    +0.000 A 
ENDROOT
BRANCH   4  21
ATOM     21  O   UNL     1      18.274  13.458  24.847  0.00  0.00    +0.000 OA
ATOM     22  H   UNL     1      18.913  14.152  25.114  0.00  0.00    +0.000 HD
ENDBRANCH   4  21
BRANCH   9  23
ATOM     23  O   UNL     1      15.339   9.385  22.786  0.00  0.00    +0.000 OA
ATOM     24  H   UNL     1      15.214   9.751  23.693  0.00  0.00    +0.000 HD
ENDBRANCH   9  23
BRANCH  10  25
ATOM     25  O   UNL     1      20.151  11.335  20.911  0.00  0.00    +0.000 OA
ATOM     26  H   UNL     1      19.952  12.030  20.243  0.00  0.00    +0.000 HD
ENDBRANCH  10  25
BRANCH   4  28
ATOM     27  O   UNL     1      18.652  15.764  22.364  0.00  0.00    +0.000 OA
ATOM     28  C   UNL     1      18.051  15.298  23.338  0.00  0.00    +0.000 C 
BRANCH  28  29
ATOM     29  C   UNL     1      17.522  16.229  24.426  0.00  0.00    +0.000 C 
BRANCH  29  30
ATOM     30  O   UNL     1      18.417  16.296  25.530  0.00  0.00    +0.000 OA
ATOM     31  H   UNL     1      18.648  15.369  25.748  0.00  0.00    +0.000 HD
ENDBRANCH  29  30
ENDBRANCH  28  29
ENDBRANCH   4  28
BRANCH  17  32
ATOM     32  O   UNL     1      16.154   4.976  20.184  0.00  0.00    +0.000 OA
ATOM     33  C   UNL     1      15.892   3.790  19.432  0.00  0.00    +0.000 C 
ENDBRANCH  17  32
BRANCH   3  34
ATOM     34  O   UNL     1      16.376  11.590  24.889  0.00  0.00    +0.000 OA
BRANCH  34  36
ATOM     35  O   UNL     1      16.040  12.534  27.021  0.00  0.00    +0.000 OA
ATOM     36  C   UNL     1      15.409  12.057  25.834  0.00  0.00    +0.000 C 
ATOM     37  C   UNL     1      14.409  10.935  26.123  0.00  0.00    +0.000 C 
ATOM     38  C   UNL     1      15.063   9.810  26.929  0.00  0.00    +0.000 C 
ATOM     39  C   UNL     1      15.716  10.395  28.198  0.00  0.00    +0.000 C 
ATOM     40  C   UNL     1      16.693  11.513  27.786  0.00  0.00    +0.000 C 
ATOM     41  C   UNL     1      17.335  12.200  28.987  0.00  0.00    +0.000 C 
BRANCH  38  42
ATOM     42  N   UNL     1      14.071   8.780  27.287  0.00  0.00    +0.000 NA
ATOM     43  H   UNL     1      13.136   9.182  27.287  0.00  0.00    +0.000 HD
ATOM     44  H   UNL     1      14.263   8.507  28.257  0.00  0.00    +0.000 HD
ENDBRANCH  38  42
BRANCH  39  45
ATOM     45  O   UNL     1      14.671  10.892  29.055  0.00  0.00    +0.000 OA
ATOM     46  H   UNL     1      14.550  11.834  28.853  0.00  0.00    +0.000 HD
ENDBRANCH  39  45
ENDBRANCH  34  36
ENDBRANCH   3  34
TORSDOF 11
ENDMDL
MODEL 8
REMARK VINA RESULT:      -7.7     12.589     15.952
REMARK  Name = 
REMARK  13 active torsions:
REMARK  status: ('A' for Active; 'I' for Inactive)
REMARK    1  A    between atoms: O_1  and  C_13
REMARK    2  A    between atoms: O_1  and  C_19
REMARK    3  A    between atoms: O_3  and  C_14
REMARK    4  A    between atoms: O_4  and  C_22
REMARK    5  A    between atoms: O_5  and  C_24
REMARK    6  A    between atoms: O_6  and  C_26
REMARK    7  A    between atoms: O_8  and  C_30
REMARK    8  A    between atoms: O_11  and  C_35
REMARK    9  A    between atoms: O_11  and  C_39
REMARK   10  A    between atoms: N_12  and  C_21
REMARK   11  A    between atoms: C_14  and  C_25
REMARK   12  A    between atoms: C_23  and  C_29
REMARK   13  A    between atoms: C_25  and  C_30
REMARK                            x       y       z     vdW  Elec       q    Type
REMARK                         _______ _______ _______ _____ _____    ______ ____
ROOT
ATOM      1  O   UNL     1      28.921   3.800   3.782  0.00  0.00    +0.000 OA
ATOM      2  O   UNL     1      29.657  -1.441   4.290  0.00  0.00    +0.000 OA
ATOM      3  C   UNL     1      24.427   2.187   5.656  0.00  0.00    +0.000 C 
ATOM      4  C   UNL     1      23.464  -0.111   6.117  0.00  0.00    +0.000 C 
ATOM      5  C   UNL     1      23.608   1.330   6.623  0.00  0.00    +0.000 C 
ATOM      6  C   UNL     1      24.842  -0.766   5.943  0.00  0.00    +0.000 C 
ATOM      7  C   UNL     1      25.756   1.541   5.316  0.00  0.00    +0.000 A 
ATOM      8  C   UNL     1      25.934   0.148   5.417  0.00  0.00    +0.000 A 
ATOM      9  C   UNL     1      26.819   2.330   4.837  0.00  0.00    +0.000 A 
ATOM     10  C   UNL     1      27.175  -0.411   5.063  0.00  0.00    +0.000 A 
ATOM     11  C   UNL     1      28.055   1.760   4.474  0.00  0.00    +0.000 A 
ATOM     12  C   UNL     1      28.231   0.386   4.590  0.00  0.00    +0.000 A 
ATOM     13  C   UNL     1      29.154   2.608   3.959  0.00  0.00    +0.000 C 
ATOM     14  C   UNL     1      29.520  -0.223   4.217  0.00  0.00    +0.000 C 
ATOM     15  C   UNL     1      30.475   2.010   3.651  0.00  0.00    +0.000 A 
ATOM     16  C   UNL     1      30.637   0.628   3.769  0.00  0.00    +0.000 A 
ATOM     17  C   UNL     1      31.570   2.782   3.234  0.00  0.00    +0.000 A 
ATOM     18  C   UNL     1      31.869   0.024   3.473  0.00  0.00    +0.000 A 
ATOM     19  C   UNL     1      32.806   2.181   2.965  0.00  0.00    +0.000 A 
ATOM     20  C   UNL     1      32.952   0.801   3.073  0.00  0.00    +0.000 A 
ENDROOT
BRANCH   4  21
ATOM     21  O   UNL     1      22.747  -0.140   4.876  0.00  0.00    +0.000 OA
ATOM     22  H   UNL     1      23.415  -0.160   4.158  0.00  0.00    +0.000 HD
ENDBRANCH   4  21
BRANCH   9  23
ATOM     23  O   UNL     1      26.596   3.683   4.741  0.00  0.00    +0.000 OA
ATOM     24  H   UNL     1      27.301   4.155   5.242  0.00  0.00    +0.000 HD
ENDBRANCH   9  23
BRANCH  10  25
ATOM     25  O   UNL     1      27.302  -1.772   5.208  0.00  0.00    +0.000 OA
ATOM     26  H   UNL     1      28.219  -2.034   4.967  0.00  0.00    +0.000 HD
ENDBRANCH  10  25
BRANCH   4  28
ATOM     27  O   UNL     1      22.360  -2.126   6.939  0.00  0.00    +0.000 OA
ATOM     28  C   UNL     1      22.651  -0.939   7.127  0.00  0.00    +0.000 C 
BRANCH  28  29
ATOM     29  C   UNL     1      22.180  -0.230   8.394  0.00  0.00    +0.000 C 
BRANCH  29  30
ATOM     30  O   UNL     1      23.021  -0.535   9.500  0.00  0.00    +0.000 OA
ATOM     31  H   UNL     1      23.432   0.311   9.771  0.00  0.00    +0.000 HD
ENDBRANCH  29  30
ENDBRANCH  28  29
ENDBRANCH   4  28
BRANCH  17  32
ATOM     32  O   UNL     1      31.515   4.149   3.175  0.00  0.00    +0.000 OA
ATOM     33  C   UNL     1      32.061   4.622   1.942  0.00  0.00    +0.000 C 
ENDBRANCH  17  32
BRANCH   3  34
ATOM     34  O   UNL     1      23.706   2.301   4.417  0.00  0.00    +0.000 OA
BRANCH  34  36
ATOM     35  O   UNL     1      22.160   3.966   5.038  0.00  0.00    +0.000 OA
ATOM     36  C   UNL     1      23.247   3.635   4.178  0.00  0.00    +0.000 C 
ATOM     37  C   UNL     1      22.880   3.780   2.699  0.00  0.00    +0.000 C 
ATOM     38  C   UNL     1      21.613   2.988   2.368  0.00  0.00    +0.000 C 
ATOM     39  C   UNL     1      20.479   3.401   3.329  0.00  0.00    +0.000 C 
ATOM     40  C   UNL     1      20.963   3.220   4.780  0.00  0.00    +0.000 C 
ATOM     41  C   UNL     1      19.928   3.673   5.803  0.00  0.00    +0.000 C 
BRANCH  38  42
ATOM     42  N   UNL     1      21.210   3.209   0.968  0.00  0.00    +0.000 NA
ATOM     43  H   UNL     1      21.394   4.174   0.701  0.00  0.00    +0.000 HD
ATOM     44  H   UNL     1      20.191   3.095   0.930  0.00  0.00    +0.000 HD
ENDBRANCH  38  42
BRANCH  39  45
ATOM     45  O   UNL     1      20.129   4.770   3.052  0.00  0.00    +0.000 OA
ATOM     46  H   UNL     1      19.496   4.767   2.316  0.00  0.00    +0.000 HD
ENDBRANCH  39  45
ENDBRANCH  34  36
ENDBRANCH   3  34
TORSDOF 11
ENDMDL
MODEL 9
REMARK VINA RESULT:      -7.7     23.722     25.515
REMARK  Name = 
REMARK  13 active torsions:
REMARK  status: ('A' for Active; 'I' for Inactive)
REMARK    1  A    between atoms: O_1  and  C_13
REMARK    2  A    between atoms: O_1  and  C_19
REMARK    3  A    between atoms: O_3  and  C_14
REMARK    4  A    between atoms: O_4  and  C_22
REMARK    5  A    between atoms: O_5  and  C_24
REMARK    6  A    between atoms: O_6  and  C_26
REMARK    7  A    between atoms: O_8  and  C_30
REMARK    8  A    between atoms: O_11  and  C_35
REMARK    9  A    between atoms: O_11  and  C_39
REMARK   10  A    between atoms: N_12  and  C_21
REMARK   11  A    between atoms: C_14  and  C_25
REMARK   12  A    between atoms: C_23  and  C_29
REMARK   13  A    between atoms: C_25  and  C_30
REMARK                            x       y       z     vdW  Elec       q    Type
REMARK                         _______ _______ _______ _____ _____    ______ ____
ROOT
ATOM      1  O   UNL     1      51.658 -16.111  16.124  0.00  0.00    +0.000 OA
ATOM      2  O   UNL     1      50.886 -19.777  19.896  0.00  0.00    +0.000 OA
ATOM      3  C   UNL     1      48.210 -19.249  13.986  0.00  0.00    +0.000 C 
ATOM      4  C   UNL     1      47.212 -21.469  14.691  0.00  0.00    +0.000 C 
ATOM      5  C   UNL     1      46.938 -20.095  14.064  0.00  0.00    +0.000 C 
ATOM      6  C   UNL     1      47.775 -21.314  16.111  0.00  0.00    +0.000 C 
ATOM      7  C   UNL     1      48.912 -19.160  15.326  0.00  0.00    +0.000 A 
ATOM      8  C   UNL     1      48.733 -20.153  16.308  0.00  0.00    +0.000 A 
ATOM      9  C   UNL     1      49.804 -18.102  15.584  0.00  0.00    +0.000 A 
ATOM     10  C   UNL     1      49.427 -20.045  17.527  0.00  0.00    +0.000 A 
ATOM     11  C   UNL     1      50.504 -18.007  16.803  0.00  0.00    +0.000 A 
ATOM     12  C   UNL     1      50.311 -18.982  17.775  0.00  0.00    +0.000 A 
ATOM     13  C   UNL     1      51.447 -16.892  17.046  0.00  0.00    +0.000 C 
ATOM     14  C   UNL     1      51.035 -18.894  19.057  0.00  0.00    +0.000 C 
ATOM     15  C   UNL     1      52.121 -16.760  18.360  0.00  0.00    +0.000 A 
ATOM     16  C   UNL     1      51.922 -17.748  19.326  0.00  0.00    +0.000 A 
ATOM     17  C   UNL     1      52.964 -15.681  18.666  0.00  0.00    +0.000 A 
ATOM     18  C   UNL     1      52.555 -17.664  20.577  0.00  0.00    +0.000 A 
ATOM     19  C   UNL     1      53.574 -15.585  19.923  0.00  0.00    +0.000 A 
ATOM     20  C   UNL     1      53.378 -16.582  20.874  0.00  0.00    +0.000 A 
ENDROOT
BRANCH   4  21
ATOM     21  O   UNL     1      48.124 -22.220  13.881  0.00  0.00    +0.000 OA
ATOM     22  H   UNL     1      47.949 -21.975  12.947  0.00  0.00    +0.000 HD
ENDBRANCH   4  21
BRANCH   9  23
ATOM     23  O   UNL     1      49.959 -17.162  14.592  0.00  0.00    +0.000 OA
ATOM     24  H   UNL     1      50.377 -17.594  13.811  0.00  0.00    +0.000 HD
ENDBRANCH   9  23
BRANCH  10  25
ATOM     25  O   UNL     1      49.193 -21.027  18.458  0.00  0.00    +0.000 OA
ATOM     26  H   UNL     1      49.708 -20.823  19.272  0.00  0.00    +0.000 HD
ENDBRANCH  10  25
BRANCH   4  28
ATOM     27  O   UNL     1      45.347 -22.741  13.765  0.00  0.00    +0.000 OA
ATOM     28  C   UNL     1      45.905 -22.277  14.766  0.00  0.00    +0.000 C 
BRANCH  28  29
ATOM     29  C   UNL     1      45.286 -22.478  16.147  0.00  0.00    +0.000 C 
BRANCH  29  30
ATOM     30  O   UNL     1      44.245 -21.538  16.389  0.00  0.00    +0.000 OA
ATOM     31  H   UNL     1      44.001 -21.172  15.514  0.00  0.00    +0.000 HD
ENDBRANCH  29  30
ENDBRANCH  28  29
ENDBRANCH   4  28
BRANCH  17  32
ATOM     32  O   UNL     1      53.143 -14.631  17.805  0.00  0.00    +0.000 OA
ATOM     33  C   UNL     1      54.531 -14.310  17.684  0.00  0.00    +0.000 C 
ENDBRANCH  17  32
BRANCH   3  34
ATOM     34  O   UNL     1      49.134 -19.886  13.088  0.00  0.00    +0.000 OA
BRANCH  34  36
ATOM     35  O   UNL     1      49.394 -20.543  10.842  0.00  0.00    +0.000 OA
ATOM     36  C   UNL     1      48.891 -19.541  11.722  0.00  0.00    +0.000 C 
ATOM     37  C   UNL     1      49.497 -18.165  11.437  0.00  0.00    +0.000 C 
ATOM     38  C   UNL     1      51.026 -18.228  11.438  0.00  0.00    +0.000 C 
ATOM     39  C   UNL     1      51.500 -19.324  10.462  0.00  0.00    +0.000 C 
ATOM     40  C   UNL     1      50.823 -20.655  10.840  0.00  0.00    +0.000 C 
ATOM     41  C   UNL     1      51.179 -21.785   9.880  0.00  0.00    +0.000 C 
BRANCH  38  42
ATOM     42  N   UNL     1      51.602 -16.922  11.068  0.00  0.00    +0.000 NA
ATOM     43  H   UNL     1      52.618 -16.986  11.035  0.00  0.00    +0.000 HD
ATOM     44  H   UNL     1      51.385 -16.274  11.833  0.00  0.00    +0.000 HD
ENDBRANCH  38  42
BRANCH  39  45
ATOM     45  O   UNL     1      51.157 -18.915   9.124  0.00  0.00    +0.000 OA
ATOM     46  H   UNL     1      50.675 -18.074   9.190  0.00  0.00    +0.000 HD
ENDBRANCH  39  45
ENDBRANCH  34  36
ENDBRANCH   3  34
TORSDOF 11
ENDMDL
