MODEL 1
REMARK VINA RESULT:      -6.8      0.000      0.000
REMARK  Name = Dronabinol.pdbqt.pdb
REMARK  3 active torsions:
REMARK  status: ('A' for Active; 'I' for Inactive)
REMARK    1  A    between atoms: C_13  and  O_18
REMARK    2  A    between atoms: C_16  and  C_20
REMARK    3  A    between atoms: C_21  and  C_22
REMARK                            x       y       z     vdW  Elec       q    Type
REMARK                         _______ _______ _______ _____ _____    ______ ____
ROOT
ATOM      1  O   UNL     1      26.080   2.863   5.087  0.00  0.00    +0.000 OA
ATOM      2  C   UNL     1      28.356   2.857   4.140  0.00  0.00    +0.000 A 
ATOM      3  C   UNL     1      28.455   1.429   4.530  0.00  0.00    +0.000 A 
ATOM      4  C   UNL     1      26.989   3.486   4.148  0.00  0.00    +0.000 C 
ATOM      5  C   UNL     1      29.584   3.368   3.589  0.00  0.00    +0.000 A 
ATOM      6  C   UNL     1      27.277   0.721   5.024  0.00  0.00    +0.000 A 
ATOM      7  C   UNL     1      30.884   2.554   3.449  0.00  0.00    +0.000 A 
ATOM      8  C   UNL     1      29.776   0.879   4.316  0.00  0.00    +0.000 A 
ATOM      9  C   UNL     1      30.971   1.184   3.868  0.00  0.00    +0.000 A 
ATOM     10  C   UNL     1      26.140   1.504   5.273  0.00  0.00    +0.000 A 
ATOM     11  C   UNL     1      27.109   4.970   4.590  0.00  0.00    +0.000 C 
ATOM     12  C   UNL     1      26.367   3.395   2.724  0.00  0.00    +0.000 C 
ATOM     13  C   UNL     1      27.208  -0.654   5.281  0.00  0.00    +0.000 A 
ATOM     14  C   UNL     1      24.981   0.928   5.797  0.00  0.00    +0.000 A 
ATOM     15  C   UNL     1      32.196   0.685   4.565  0.00  0.00    +0.000 C 
ATOM     16  C   UNL     1      24.932  -0.439   6.046  0.00  0.00    +0.000 A 
ATOM     17  C   UNL     1      26.042  -1.234   5.787  0.00  0.00    +0.000 A 
ENDROOT
BRANCH  13  18
ATOM     18  O   UNL     1      28.282  -1.462   5.032  0.00  0.00    +0.000 OA
ATOM     19  H   UNL     1      28.492  -1.973   5.835  0.00  0.00    +0.000 HD
ENDBRANCH  13  18
BRANCH  16  20
ATOM     20  C   UNL     1      23.739  -1.027   6.556  0.00  0.00    +0.000 C 
ATOM     21  C   UNL     1      22.457  -1.653   7.118  0.00  0.00    +0.000 C 
BRANCH  21  22
ATOM     22  C   UNL     1      21.177  -2.270   7.686  0.00  0.00    +0.000 C 
ATOM     23  C   UNL     1      19.893  -2.884   8.254  0.00  0.00    +0.000 C 
ATOM     24  C   UNL     1      18.607  -3.497   8.819  0.00  0.00    +0.000 C 
ENDBRANCH  21  22
ENDBRANCH  16  20
TORSDOF 3
ENDMDL
MODEL 2
REMARK VINA RESULT:      -6.3     37.276     40.077
REMARK  Name = Dronabinol.pdbqt.pdb
REMARK  3 active torsions:
REMARK  status: ('A' for Active; 'I' for Inactive)
REMARK    1  A    between atoms: C_13  and  O_18
REMARK    2  A    between atoms: C_16  and  C_20
REMARK    3  A    between atoms: C_21  and  C_22
REMARK                            x       y       z     vdW  Elec       q    Type
REMARK                         _______ _______ _______ _____ _____    ______ ____
ROOT
ATOM      1  O   UNL     1      50.355  -2.554  36.413  0.00  0.00    +0.000 OA
ATOM      2  C   UNL     1      50.098  -3.050  38.814  0.00  0.00    +0.000 A 
ATOM      3  C   UNL     1      49.864  -1.601  39.032  0.00  0.00    +0.000 A 
ATOM      4  C   UNL     1      50.025  -3.560  37.400  0.00  0.00    +0.000 C 
ATOM      5  C   UNL     1      50.140  -3.795  40.045  0.00  0.00    +0.000 A 
ATOM      6  C   UNL     1      49.702  -0.704  37.890  0.00  0.00    +0.000 A 
ATOM      7  C   UNL     1      50.003  -3.175  41.448  0.00  0.00    +0.000 A 
ATOM      8  C   UNL     1      49.779  -1.251  40.434  0.00  0.00    +0.000 A 
ATOM      9  C   UNL     1      49.816  -1.765  41.639  0.00  0.00    +0.000 A 
ATOM     10  C   UNL     1      49.962  -1.255  36.626  0.00  0.00    +0.000 A 
ATOM     11  C   UNL     1      51.062  -4.700  37.212  0.00  0.00    +0.000 C 
ATOM     12  C   UNL     1      48.587  -4.084  37.111  0.00  0.00    +0.000 C 
ATOM     13  C   UNL     1      49.333   0.644  37.966  0.00  0.00    +0.000 A 
ATOM     14  C   UNL     1      49.887  -0.465  35.478  0.00  0.00    +0.000 A 
ATOM     15  C   UNL     1      50.523  -1.055  42.750  0.00  0.00    +0.000 C 
ATOM     16  C   UNL     1      49.519   0.873  35.572  0.00  0.00    +0.000 A 
ATOM     17  C   UNL     1      49.239   1.429  36.814  0.00  0.00    +0.000 A 
ENDROOT
BRANCH  13  18
ATOM     18  O   UNL     1      49.048   1.219  39.172  0.00  0.00    +0.000 OA
ATOM     19  H   UNL     1      48.107   1.077  39.381  0.00  0.00    +0.000 HD
ENDBRANCH  13  18
BRANCH  16  20
ATOM     20  C   UNL     1      49.419   1.668  34.396  0.00  0.00    +0.000 C 
ATOM     21  C   UNL     1      49.324   2.521  33.126  0.00  0.00    +0.000 C 
BRANCH  21  22
ATOM     22  C   UNL     1      49.237   3.369  31.854  0.00  0.00    +0.000 C 
ATOM     23  C   UNL     1      49.156   4.218  30.581  0.00  0.00    +0.000 C 
ATOM     24  C   UNL     1      49.077   5.067  29.308  0.00  0.00    +0.000 C 
ENDBRANCH  21  22
ENDBRANCH  16  20
TORSDOF 3
ENDMDL
MODEL 3
REMARK VINA RESULT:      -6.3     16.788     19.605
REMARK  Name = Dronabinol.pdbqt.pdb
REMARK  3 active torsions:
REMARK  status: ('A' for Active; 'I' for Inactive)
REMARK    1  A    between atoms: C_13  and  O_18
REMARK    2  A    between atoms: C_16  and  C_20
REMARK    3  A    between atoms: C_21  and  C_22
REMARK                            x       y       z     vdW  Elec       q    Type
REMARK                         _______ _______ _______ _____ _____    ______ ____
ROOT
ATOM      1  O   UNL     1      18.857  12.070  20.048  0.00  0.00    +0.000 OA
ATOM      2  C   UNL     1      19.155   9.686  20.599  0.00  0.00    +0.000 A 
ATOM      3  C   UNL     1      19.731   9.501  19.244  0.00  0.00    +0.000 A 
ATOM      4  C   UNL     1      19.013  11.096  21.106  0.00  0.00    +0.000 C 
ATOM      5  C   UNL     1      19.027   8.447  21.321  0.00  0.00    +0.000 A 
ATOM      6  C   UNL     1      20.017  10.662  18.405  0.00  0.00    +0.000 A 
ATOM      7  C   UNL     1      19.398   7.064  20.755  0.00  0.00    +0.000 A 
ATOM      8  C   UNL     1      19.990   8.113  18.929  0.00  0.00    +0.000 A 
ATOM      9  C   UNL     1      19.917   6.902  19.427  0.00  0.00    +0.000 A 
ATOM     10  C   UNL     1      19.552  11.899  18.875  0.00  0.00    +0.000 A 
ATOM     11  C   UNL     1      17.730  11.201  21.976  0.00  0.00    +0.000 C 
ATOM     12  C   UNL     1      20.268  11.475  21.947  0.00  0.00    +0.000 C 
ATOM     13  C   UNL     1      20.692  10.627  17.178  0.00  0.00    +0.000 A 
ATOM     14  C   UNL     1      19.729  13.059  18.119  0.00  0.00    +0.000 A 
ATOM     15  C   UNL     1      19.469   5.754  18.577  0.00  0.00    +0.000 C 
ATOM     16  C   UNL     1      20.401  13.005  16.902  0.00  0.00    +0.000 A 
ATOM     17  C   UNL     1      20.886  11.791  16.431  0.00  0.00    +0.000 A 
ENDROOT
BRANCH  13  18
ATOM     18  O   UNL     1      21.183   9.449  16.689  0.00  0.00    +0.000 OA
ATOM     19  H   UNL     1      22.095   9.324  17.008  0.00  0.00    +0.000 HD
ENDBRANCH  13  18
BRANCH  16  20
ATOM     20  C   UNL     1      20.602  14.194  16.147  0.00  0.00    +0.000 C 
ATOM     21  C   UNL     1      20.827  15.480  15.342  0.00  0.00    +0.000 C 
BRANCH  21  22
ATOM     22  C   UNL     1      21.062  16.765  14.544  0.00  0.00    +0.000 C 
ATOM     23  C   UNL     1      21.292  18.054  13.748  0.00  0.00    +0.000 C 
ATOM     24  C   UNL     1      21.523  19.343  12.953  0.00  0.00    +0.000 C 
ENDBRANCH  21  22
ENDBRANCH  16  20
TORSDOF 3
ENDMDL
MODEL 4
REMARK VINA RESULT:      -6.2     18.958     20.967
REMARK  Name = Dronabinol.pdbqt.pdb
REMARK  3 active torsions:
REMARK  status: ('A' for Active; 'I' for Inactive)
REMARK    1  A    between atoms: C_13  and  O_18
REMARK    2  A    between atoms: C_16  and  C_20
REMARK    3  A    between atoms: C_21  and  C_22
REMARK                            x       y       z     vdW  Elec       q    Type
REMARK                         _______ _______ _______ _____ _____    ______ ____
ROOT
ATOM      1  O   UNL     1      18.641  11.350  20.254  0.00  0.00    +0.000 OA
ATOM      2  C   UNL     1      20.206  10.002  18.909  0.00  0.00    +0.000 A 
ATOM      3  C   UNL     1      20.866  11.269  18.508  0.00  0.00    +0.000 A 
ATOM      4  C   UNL     1      19.258  10.053  20.076  0.00  0.00    +0.000 C 
ATOM      5  C   UNL     1      20.761   8.853  18.242  0.00  0.00    +0.000 A 
ATOM      6  C   UNL     1      20.493  12.526  19.152  0.00  0.00    +0.000 A 
ATOM      7  C   UNL     1      21.886   8.910  17.192  0.00  0.00    +0.000 A 
ATOM      8  C   UNL     1      21.887  11.075  17.500  0.00  0.00    +0.000 A 
ATOM      9  C   UNL     1      22.485  10.150  16.789  0.00  0.00    +0.000 A 
ATOM     10  C   UNL     1      19.380  12.480  20.005  0.00  0.00    +0.000 A 
ATOM     11  C   UNL     1      18.092   9.055  19.834  0.00  0.00    +0.000 C 
ATOM     12  C   UNL     1      20.021   9.685  21.382  0.00  0.00    +0.000 C 
ATOM     13  C   UNL     1      21.141  13.753  18.967  0.00  0.00    +0.000 A 
ATOM     14  C   UNL     1      18.912  13.641  20.624  0.00  0.00    +0.000 A 
ATOM     15  C   UNL     1      22.821  10.393  15.351  0.00  0.00    +0.000 C 
ATOM     16  C   UNL     1      19.569  14.851  20.429  0.00  0.00    +0.000 A 
ATOM     17  C   UNL     1      20.685  14.910  19.603  0.00  0.00    +0.000 A 
ENDROOT
BRANCH  13  18
ATOM     18  O   UNL     1      22.243  13.843  18.164  0.00  0.00    +0.000 OA
ATOM     19  H   UNL     1      22.076  14.496  17.461  0.00  0.00    +0.000 HD
ENDBRANCH  13  18
BRANCH  16  20
ATOM     20  C   UNL     1      19.104  16.026  21.084  0.00  0.00    +0.000 C 
ATOM     21  C   UNL     1      18.603  17.299  21.777  0.00  0.00    +0.000 C 
BRANCH  21  22
ATOM     22  C   UNL     1      18.099  18.573  22.460  0.00  0.00    +0.000 C 
ATOM     23  C   UNL     1      17.591  19.847  23.143  0.00  0.00    +0.000 C 
ATOM     24  C   UNL     1      17.081  21.119  23.829  0.00  0.00    +0.000 C 
ENDBRANCH  21  22
ENDBRANCH  16  20
TORSDOF 3
ENDMDL
MODEL 5
REMARK VINA RESULT:      -6.1     15.360     18.502
REMARK  Name = Dronabinol.pdbqt.pdb
REMARK  3 active torsions:
REMARK  status: ('A' for Active; 'I' for Inactive)
REMARK    1  A    between atoms: C_13  and  O_18
REMARK    2  A    between atoms: C_16  and  C_20
REMARK    3  A    between atoms: C_21  and  C_22
REMARK                            x       y       z     vdW  Elec       q    Type
REMARK                         _______ _______ _______ _____ _____    ______ ____
ROOT
ATOM      1  O   UNL     1      15.754  -0.107  16.104  0.00  0.00    +0.000 OA
ATOM      2  C   UNL     1      14.221  -1.787  17.054  0.00  0.00    +0.000 A 
ATOM      3  C   UNL     1      14.518  -1.221  18.393  0.00  0.00    +0.000 A 
ATOM      4  C   UNL     1      14.625  -0.976  15.852  0.00  0.00    +0.000 C 
ATOM      5  C   UNL     1      13.373  -2.949  17.120  0.00  0.00    +0.000 A 
ATOM      6  C   UNL     1      15.290   0.014  18.512  0.00  0.00    +0.000 A 
ATOM      7  C   UNL     1      12.854  -3.579  18.426  0.00  0.00    +0.000 A 
ATOM      8  C   UNL     1      13.931  -1.988  19.470  0.00  0.00    +0.000 A 
ATOM      9  C   UNL     1      13.185  -3.039  19.713  0.00  0.00    +0.000 A 
ATOM     10  C   UNL     1      15.868   0.502  17.330  0.00  0.00    +0.000 A 
ATOM     11  C   UNL     1      15.068  -1.935  14.713  0.00  0.00    +0.000 C 
ATOM     12  C   UNL     1      13.422  -0.104  15.387  0.00  0.00    +0.000 C 
ATOM     13  C   UNL     1      15.507   0.722  19.701  0.00  0.00    +0.000 A 
ATOM     14  C   UNL     1      16.669   1.645  17.350  0.00  0.00    +0.000 A 
ATOM     15  C   UNL     1      13.503  -3.952  20.855  0.00  0.00    +0.000 C 
ATOM     16  C   UNL     1      16.874   2.334  18.540  0.00  0.00    +0.000 A 
ATOM     17  C   UNL     1      16.292   1.877  19.716  0.00  0.00    +0.000 A 
ENDROOT
BRANCH  13  18
ATOM     18  O   UNL     1      14.947   0.299  20.873  0.00  0.00    +0.000 OA
ATOM     19  H   UNL     1      15.555  -0.320  21.315  0.00  0.00    +0.000 HD
ENDBRANCH  13  18
BRANCH  16  20
ATOM     20  C   UNL     1      17.670   3.515  18.551  0.00  0.00    +0.000 C 
ATOM     21  C   UNL     1      18.516   4.793  18.556  0.00  0.00    +0.000 C 
BRANCH  21  22
ATOM     22  C   UNL     1      19.353   6.075  18.560  0.00  0.00    +0.000 C 
ATOM     23  C   UNL     1      20.188   7.360  18.559  0.00  0.00    +0.000 C 
ATOM     24  C   UNL     1      21.020   8.646  18.559  0.00  0.00    +0.000 C 
ENDBRANCH  21  22
ENDBRANCH  16  20
TORSDOF 3
ENDMDL
MODEL 6
REMARK VINA RESULT:      -5.9     34.794     37.336
REMARK  Name = Dronabinol.pdbqt.pdb
REMARK  3 active torsions:
REMARK  status: ('A' for Active; 'I' for Inactive)
REMARK    1  A    between atoms: C_13  and  O_18
REMARK    2  A    between atoms: C_16  and  C_20
REMARK    3  A    between atoms: C_21  and  C_22
REMARK                            x       y       z     vdW  Elec       q    Type
REMARK                         _______ _______ _______ _____ _____    ______ ____
ROOT
ATOM      1  O   UNL     1      49.864   3.533  33.319  0.00  0.00    +0.000 OA
ATOM      2  C   UNL     1      49.910   2.462  31.099  0.00  0.00    +0.000 A 
ATOM      3  C   UNL     1      50.044   1.157  31.792  0.00  0.00    +0.000 A 
ATOM      4  C   UNL     1      49.489   3.648  31.926  0.00  0.00    +0.000 C 
ATOM      5  C   UNL     1      49.990   2.340  29.667  0.00  0.00    +0.000 A 
ATOM      6  C   UNL     1      49.895   1.079  33.243  0.00  0.00    +0.000 A 
ATOM      7  C   UNL     1      50.232   1.018  28.915  0.00  0.00    +0.000 A 
ATOM      8  C   UNL     1      50.274   0.058  30.879  0.00  0.00    +0.000 A 
ATOM      9  C   UNL     1      50.398  -0.229  29.606  0.00  0.00    +0.000 A 
ATOM     10  C   UNL     1      49.810   2.302  33.926  0.00  0.00    +0.000 A 
ATOM     11  C   UNL     1      50.200   4.922  31.394  0.00  0.00    +0.000 C 
ATOM     12  C   UNL     1      47.943   3.817  31.841  0.00  0.00    +0.000 C 
ATOM     13  C   UNL     1      49.853  -0.105  33.990  0.00  0.00    +0.000 A 
ATOM     14  C   UNL     1      49.721   2.334  35.318  0.00  0.00    +0.000 A 
ATOM     15  C   UNL     1      51.422  -1.217  29.143  0.00  0.00    +0.000 C 
ATOM     16  C   UNL     1      49.681   1.148  36.043  0.00  0.00    +0.000 A 
ATOM     17  C   UNL     1      49.743  -0.073  35.382  0.00  0.00    +0.000 A 
ENDROOT
BRANCH  13  18
ATOM     18  O   UNL     1      49.909  -1.320  33.368  0.00  0.00    +0.000 OA
ATOM     19  H   UNL     1      49.034  -1.747  33.418  0.00  0.00    +0.000 HD
ENDBRANCH  13  18
BRANCH  16  20
ATOM     20  C   UNL     1      49.563   1.184  37.462  0.00  0.00    +0.000 C 
ATOM     21  C   UNL     1      49.450   1.227  38.990  0.00  0.00    +0.000 C 
BRANCH  21  22
ATOM     22  C   UNL     1      49.347   1.275  40.517  0.00  0.00    +0.000 C 
ATOM     23  C   UNL     1      49.243   1.318  42.045  0.00  0.00    +0.000 C 
ATOM     24  C   UNL     1      49.141   1.360  43.573  0.00  0.00    +0.000 C 
ENDBRANCH  21  22
ENDBRANCH  16  20
TORSDOF 3
ENDMDL
MODEL 7
REMARK VINA RESULT:      -5.6     38.864     42.773
REMARK  Name = Dronabinol.pdbqt.pdb
REMARK  3 active torsions:
REMARK  status: ('A' for Active; 'I' for Inactive)
REMARK    1  A    between atoms: C_13  and  O_18
REMARK    2  A    between atoms: C_16  and  C_20
REMARK    3  A    between atoms: C_21  and  C_22
REMARK                            x       y       z     vdW  Elec       q    Type
REMARK                         _______ _______ _______ _____ _____    ______ ____
ROOT
ATOM      1  O   UNL     1      16.881   3.367  46.891  0.00  0.00    +0.000 OA
ATOM      2  C   UNL     1      16.961   3.356  44.428  0.00  0.00    +0.000 A 
ATOM      3  C   UNL     1      16.575   1.925  44.476  0.00  0.00    +0.000 A 
ATOM      4  C   UNL     1      16.793   4.163  45.687  0.00  0.00    +0.000 C 
ATOM      5  C   UNL     1      17.234   3.812  43.090  0.00  0.00    +0.000 A 
ATOM      6  C   UNL     1      16.175   1.315  45.742  0.00  0.00    +0.000 A 
ATOM      7  C   UNL     1      17.181   2.920  41.835  0.00  0.00    +0.000 A 
ATOM      8  C   UNL     1      16.606   1.291  43.175  0.00  0.00    +0.000 A 
ATOM      9  C   UNL     1      16.843   1.528  41.907  0.00  0.00    +0.000 A 
ATOM     10  C   UNL     1      16.356   2.097  46.893  0.00  0.00    +0.000 A 
ATOM     11  C   UNL     1      17.936   5.211  45.782  0.00  0.00    +0.000 C 
ATOM     12  C   UNL     1      15.408   4.876  45.665  0.00  0.00    +0.000 C 
ATOM     13  C   UNL     1      15.651   0.025  45.889  0.00  0.00    +0.000 A 
ATOM     14  C   UNL     1      16.055   1.584  48.155  0.00  0.00    +0.000 A 
ATOM     15  C   UNL     1      17.577   0.529  41.070  0.00  0.00    +0.000 C 
ATOM     16  C   UNL     1      15.536   0.300  48.282  0.00  0.00    +0.000 A 
ATOM     17  C   UNL     1      15.331  -0.481  47.151  0.00  0.00    +0.000 A 
ENDROOT
BRANCH  13  18
ATOM     18  O   UNL     1      15.435  -0.766  44.796  0.00  0.00    +0.000 OA
ATOM     19  H   UNL     1      14.591  -1.240  44.904  0.00  0.00    +0.000 HD
ENDBRANCH  13  18
BRANCH  16  20
ATOM     20  C   UNL     1      15.205  -0.210  49.570  0.00  0.00    +0.000 C 
ATOM     21  C   UNL     1      14.838  -0.749  50.957  0.00  0.00    +0.000 C 
BRANCH  21  22
ATOM     22  C   UNL     1      14.463  -1.282  52.342  0.00  0.00    +0.000 C 
ATOM     23  C   UNL     1      14.090  -1.820  53.728  0.00  0.00    +0.000 C 
ATOM     24  C   UNL     1      13.721  -2.357  55.115  0.00  0.00    +0.000 C 
ENDBRANCH  21  22
ENDBRANCH  16  20
TORSDOF 3
ENDMDL
MODEL 8
REMARK VINA RESULT:      -5.6     17.841     19.916
REMARK  Name = Dronabinol.pdbqt.pdb
REMARK  3 active torsions:
REMARK  status: ('A' for Active; 'I' for Inactive)
REMARK    1  A    between atoms: C_13  and  O_18
REMARK    2  A    between atoms: C_16  and  C_20
REMARK    3  A    between atoms: C_21  and  C_22
REMARK                            x       y       z     vdW  Elec       q    Type
REMARK                         _______ _______ _______ _____ _____    ______ ____
ROOT
ATOM      1  O   UNL     1      19.649  15.611  16.099  0.00  0.00    +0.000 OA
ATOM      2  C   UNL     1      20.879  17.713  16.477  0.00  0.00    +0.000 A 
ATOM      3  C   UNL     1      21.569  17.042  17.607  0.00  0.00    +0.000 A 
ATOM      4  C   UNL     1      20.127  16.842  15.508  0.00  0.00    +0.000 C 
ATOM      5  C   UNL     1      21.233  19.103  16.360  0.00  0.00    +0.000 A 
ATOM      6  C   UNL     1      21.399  15.607  17.821  0.00  0.00    +0.000 A 
ATOM      7  C   UNL     1      22.186  19.847  17.314  0.00  0.00    +0.000 A 
ATOM      8  C   UNL     1      22.405  17.944  18.369  0.00  0.00    +0.000 A 
ATOM      9  C   UNL     1      22.813  19.189  18.425  0.00  0.00    +0.000 A 
ATOM     10  C   UNL     1      20.428  14.971  17.031  0.00  0.00    +0.000 A 
ATOM     11  C   UNL     1      18.863  17.598  15.014  0.00  0.00    +0.000 C 
ATOM     12  C   UNL     1      21.049  16.488  14.304  0.00  0.00    +0.000 C 
ATOM     13  C   UNL     1      22.107  14.838  18.754  0.00  0.00    +0.000 A 
ATOM     14  C   UNL     1      20.154  13.613  17.200  0.00  0.00    +0.000 A 
ATOM     15  C   UNL     1      22.944  19.889  19.740  0.00  0.00    +0.000 C 
ATOM     16  C   UNL     1      20.867  12.866  18.131  0.00  0.00    +0.000 A 
ATOM     17  C   UNL     1      21.845  13.475  18.908  0.00  0.00    +0.000 A 
ENDROOT
BRANCH  13  18
ATOM     18  O   UNL     1      23.077  15.407  19.529  0.00  0.00    +0.000 OA
ATOM     19  H   UNL     1      23.579  16.050  18.995  0.00  0.00    +0.000 HD
ENDBRANCH  13  18
BRANCH  16  20
ATOM     20  C   UNL     1      20.602  11.475  18.281  0.00  0.00    +0.000 C 
ATOM     21  C   UNL     1      20.321   9.978  18.455  0.00  0.00    +0.000 C 
BRANCH  21  22
ATOM     22  C   UNL     1      20.043   8.484  18.639  0.00  0.00    +0.000 C 
ATOM     23  C   UNL     1      19.760   6.989  18.821  0.00  0.00    +0.000 C 
ATOM     24  C   UNL     1      19.477   5.493  18.999  0.00  0.00    +0.000 C 
ENDBRANCH  21  22
ENDBRANCH  16  20
TORSDOF 3
ENDMDL
MODEL 9
REMARK VINA RESULT:      -5.6     49.748     50.211
REMARK  Name = Dronabinol.pdbqt.pdb
REMARK  3 active torsions:
REMARK  status: ('A' for Active; 'I' for Inactive)
REMARK    1  A    between atoms: C_13  and  O_18
REMARK    2  A    between atoms: C_16  and  C_20
REMARK    3  A    between atoms: C_21  and  C_22
REMARK                            x       y       z     vdW  Elec       q    Type
REMARK                         _______ _______ _______ _____ _____    ______ ____
ROOT
ATOM      1  O   UNL     1      38.209  10.563  54.077  0.00  0.00    +0.000 OA
ATOM      2  C   UNL     1      37.972  11.717  51.912  0.00  0.00    +0.000 A 
ATOM      3  C   UNL     1      36.755  10.904  51.673  0.00  0.00    +0.000 A 
ATOM      4  C   UNL     1      38.521  11.752  53.313  0.00  0.00    +0.000 C 
ATOM      5  C   UNL     1      38.316  12.544  50.784  0.00  0.00    +0.000 A 
ATOM      6  C   UNL     1      36.206  10.074  52.743  0.00  0.00    +0.000 A 
ATOM      7  C   UNL     1      37.547  12.566  49.450  0.00  0.00    +0.000 A 
ATOM      8  C   UNL     1      36.211  11.083  50.344  0.00  0.00    +0.000 A 
ATOM      9  C   UNL     1      36.394  11.742  49.225  0.00  0.00    +0.000 A 
ATOM     10  C   UNL     1      36.988   9.958  53.902  0.00  0.00    +0.000 A 
ATOM     11  C   UNL     1      40.071  11.828  53.255  0.00  0.00    +0.000 C 
ATOM     12  C   UNL     1      37.946  12.988  54.065  0.00  0.00    +0.000 C 
ATOM     13  C   UNL     1      34.990   9.382  52.688  0.00  0.00    +0.000 A 
ATOM     14  C   UNL     1      36.575   9.144  54.959  0.00  0.00    +0.000 A 
ATOM     15  C   UNL     1      36.194  11.070  47.903  0.00  0.00    +0.000 C 
ATOM     16  C   UNL     1      35.364   8.465  54.886  0.00  0.00    +0.000 A 
ATOM     17  C   UNL     1      34.568   8.584  53.753  0.00  0.00    +0.000 A 
ENDROOT
BRANCH  13  18
ATOM     18  O   UNL     1      34.184   9.482  51.589  0.00  0.00    +0.000 OA
ATOM     19  H   UNL     1      34.735   9.615  50.797  0.00  0.00    +0.000 HD
ENDBRANCH  13  18
BRANCH  16  20
ATOM     20  C   UNL     1      34.935   7.657  55.977  0.00  0.00    +0.000 C 
ATOM     21  C   UNL     1      34.474   6.776  57.143  0.00  0.00    +0.000 C 
BRANCH  21  22
ATOM     22  C   UNL     1      34.016   5.887  58.303  0.00  0.00    +0.000 C 
ATOM     23  C   UNL     1      33.559   5.001  59.467  0.00  0.00    +0.000 C 
ATOM     24  C   UNL     1      33.100   4.117  60.631  0.00  0.00    +0.000 C 
ENDBRANCH  21  22
ENDBRANCH  16  20
TORSDOF 3
ENDMDL
