MODEL 1
REMARK VINA RESULT:      -7.9      0.000      0.000
REMARK  Name = Ellipticine.pdbqt.pdb
REMARK  0 active torsions:
REMARK  status: ('A' for Active; 'I' for Inactive)
REMARK                            x       y       z     vdW  Elec       q    Type
REMARK                         _______ _______ _______ _____ _____    ______ ____
ROOT
ATOM      1  N   UNL     1      18.038   7.256  21.154  0.00  0.00    +0.000 N 
ATOM      2  N   UNL     1      21.273  11.571  17.668  0.00  0.00    +0.000 NA
ATOM      3  C   UNL     1      19.472   7.388  19.439  0.00  0.00    +0.000 A 
ATOM      4  C   UNL     1      18.755   8.140  20.374  0.00  0.00    +0.000 A 
ATOM      5  C   UNL     1      20.296   8.076  18.511  0.00  0.00    +0.000 A 
ATOM      6  C   UNL     1      19.155   6.007  19.690  0.00  0.00    +0.000 A 
ATOM      7  C   UNL     1      18.815   9.541  20.436  0.00  0.00    +0.000 A 
ATOM      8  C   UNL     1      19.633  10.221  19.515  0.00  0.00    +0.000 A 
ATOM      9  C   UNL     1      20.369   9.488  18.559  0.00  0.00    +0.000 A 
ATOM     10  C   UNL     1      18.263   5.963  20.760  0.00  0.00    +0.000 A 
ATOM     11  C   UNL     1      21.087   7.294  17.484  0.00  0.00    +0.000 C 
ATOM     12  C   UNL     1      19.548   4.789  19.100  0.00  0.00    +0.000 A 
ATOM     13  C   UNL     1      17.998  10.252  21.489  0.00  0.00    +0.000 C 
ATOM     14  C   UNL     1      17.743   4.770  21.273  0.00  0.00    +0.000 A 
ATOM     15  C   UNL     1      19.742  11.620  19.517  0.00  0.00    +0.000 A 
ATOM     16  C   UNL     1      21.159  10.225  17.677  0.00  0.00    +0.000 A 
ATOM     17  C   UNL     1      19.040   3.586  19.597  0.00  0.00    +0.000 A 
ATOM     18  C   UNL     1      18.153   3.581  20.666  0.00  0.00    +0.000 A 
ATOM     19  C   UNL     1      20.560  12.241  18.591  0.00  0.00    +0.000 A 
ATOM     20  H   UNL     1      17.429   7.537  21.915  0.00  0.00    +0.000 HD
ENDROOT
TORSDOF 0
ENDMDL
MODEL 2
REMARK VINA RESULT:      -7.9     18.514     20.616
REMARK  Name = Ellipticine.pdbqt.pdb
REMARK  0 active torsions:
REMARK  status: ('A' for Active; 'I' for Inactive)
REMARK                            x       y       z     vdW  Elec       q    Type
REMARK                         _______ _______ _______ _____ _____    ______ ____
ROOT
ATOM      1  N   UNL     1      38.052  -1.385  14.137  0.00  0.00    +0.000 N 
ATOM      2  N   UNL     1      37.828   3.559  10.046  0.00  0.00    +0.000 NA
ATOM      3  C   UNL     1      36.861   0.461  13.697  0.00  0.00    +0.000 A 
ATOM      4  C   UNL     1      37.957  -0.303  13.286  0.00  0.00    +0.000 A 
ATOM      5  C   UNL     1      36.551   1.640  12.972  0.00  0.00    +0.000 A 
ATOM      6  C   UNL     1      36.296  -0.212  14.838  0.00  0.00    +0.000 A 
ATOM      7  C   UNL     1      38.763   0.046  12.191  0.00  0.00    +0.000 A 
ATOM      8  C   UNL     1      38.454   1.217  11.473  0.00  0.00    +0.000 A 
ATOM      9  C   UNL     1      37.353   2.007  11.866  0.00  0.00    +0.000 A 
ATOM     10  C   UNL     1      37.059  -1.351  15.082  0.00  0.00    +0.000 A 
ATOM     11  C   UNL     1      35.371   2.491  13.390  0.00  0.00    +0.000 C 
ATOM     12  C   UNL     1      35.201   0.050  15.685  0.00  0.00    +0.000 A 
ATOM     13  C   UNL     1      39.924  -0.853  11.835  0.00  0.00    +0.000 C 
ATOM     14  C   UNL     1      36.789  -2.244  16.125  0.00  0.00    +0.000 A 
ATOM     15  C   UNL     1      39.215   1.627  10.368  0.00  0.00    +0.000 A 
ATOM     16  C   UNL     1      37.103   3.153  11.111  0.00  0.00    +0.000 A 
ATOM     17  C   UNL     1      34.913  -0.828  16.733  0.00  0.00    +0.000 A 
ATOM     18  C   UNL     1      35.697  -1.955  16.946  0.00  0.00    +0.000 A 
ATOM     19  C   UNL     1      38.870   2.786   9.696  0.00  0.00    +0.000 A 
ATOM     20  H   UNL     1      38.764  -2.103  14.064  0.00  0.00    +0.000 HD
ENDROOT
TORSDOF 0
ENDMDL
MODEL 3
REMARK VINA RESULT:      -7.4      1.319      5.612
REMARK  Name = Ellipticine.pdbqt.pdb
REMARK  0 active torsions:
REMARK  status: ('A' for Active; 'I' for Inactive)
REMARK                            x       y       z     vdW  Elec       q    Type
REMARK                         _______ _______ _______ _____ _____    ______ ____
ROOT
ATOM      1  N   UNL     1      19.198  10.880  19.985  0.00  0.00    +0.000 N 
ATOM      2  N   UNL     1      18.671   4.483  19.795  0.00  0.00    +0.000 NA
ATOM      3  C   UNL     1      20.017   9.096  18.907  0.00  0.00    +0.000 A 
ATOM      4  C   UNL     1      19.124   9.505  19.902  0.00  0.00    +0.000 A 
ATOM      5  C   UNL     1      20.126   7.709  18.629  0.00  0.00    +0.000 A 
ATOM      6  C   UNL     1      20.634  10.289  18.392  0.00  0.00    +0.000 A 
ATOM      7  C   UNL     1      18.334   8.607  20.636  0.00  0.00    +0.000 A 
ATOM      8  C   UNL     1      18.444   7.231  20.358  0.00  0.00    +0.000 A 
ATOM      9  C   UNL     1      19.337   6.789  19.359  0.00  0.00    +0.000 A 
ATOM     10  C   UNL     1      20.103  11.376  19.083  0.00  0.00    +0.000 A 
ATOM     11  C   UNL     1      21.082   7.230  17.558  0.00  0.00    +0.000 C 
ATOM     12  C   UNL     1      21.600  10.541  17.397  0.00  0.00    +0.000 A 
ATOM     13  C   UNL     1      17.402   9.159  21.689  0.00  0.00    +0.000 C 
ATOM     14  C   UNL     1      20.482  12.700  18.835  0.00  0.00    +0.000 A 
ATOM     15  C   UNL     1      17.685   6.275  21.051  0.00  0.00    +0.000 A 
ATOM     16  C   UNL     1      19.396   5.413  19.135  0.00  0.00    +0.000 A 
ATOM     17  C   UNL     1      21.993  11.855  17.133  0.00  0.00    +0.000 A 
ATOM     18  C   UNL     1      21.441  12.914  17.843  0.00  0.00    +0.000 A 
ATOM     19  C   UNL     1      17.830   4.936  20.741  0.00  0.00    +0.000 A 
ATOM     20  H   UNL     1      18.651  11.439  20.631  0.00  0.00    +0.000 HD
ENDROOT
TORSDOF 0
ENDMDL
MODEL 4
REMARK VINA RESULT:      -6.5      2.927      6.824
REMARK  Name = Ellipticine.pdbqt.pdb
REMARK  0 active torsions:
REMARK  status: ('A' for Active; 'I' for Inactive)
REMARK                            x       y       z     vdW  Elec       q    Type
REMARK                         _______ _______ _______ _____ _____    ______ ____
ROOT
ATOM      1  N   UNL     1      16.154   7.075  19.501  0.00  0.00    +0.000 N 
ATOM      2  N   UNL     1      15.942   0.657  19.478  0.00  0.00    +0.000 NA
ATOM      3  C   UNL     1      17.502   5.287  19.552  0.00  0.00    +0.000 A 
ATOM      4  C   UNL     1      16.166   5.695  19.498  0.00  0.00    +0.000 A 
ATOM      5  C   UNL     1      17.781   3.896  19.560  0.00  0.00    +0.000 A 
ATOM      6  C   UNL     1      18.298   6.486  19.587  0.00  0.00    +0.000 A 
ATOM      7  C   UNL     1      15.092   4.792  19.452  0.00  0.00    +0.000 A 
ATOM      8  C   UNL     1      15.372   3.413  19.461  0.00  0.00    +0.000 A 
ATOM      9  C   UNL     1      16.711   2.971  19.514  0.00  0.00    +0.000 A 
ATOM     10  C   UNL     1      17.429   7.574  19.554  0.00  0.00    +0.000 A 
ATOM     11  C   UNL     1      19.216   3.418  19.617  0.00  0.00    +0.000 C 
ATOM     12  C   UNL     1      19.683   6.740  19.644  0.00  0.00    +0.000 A 
ATOM     13  C   UNL     1      13.687   5.345  19.396  0.00  0.00    +0.000 C 
ATOM     14  C   UNL     1      17.867   8.903  19.575  0.00  0.00    +0.000 A 
ATOM     15  C   UNL     1      14.350   2.452  19.417  0.00  0.00    +0.000 A 
ATOM     16  C   UNL     1      16.917   1.592  19.519  0.00  0.00    +0.000 A 
ATOM     17  C   UNL     1      20.141   8.059  19.665  0.00  0.00    +0.000 A 
ATOM     18  C   UNL     1      19.245   9.120  19.631  0.00  0.00    +0.000 A 
ATOM     19  C   UNL     1      14.677   1.109  19.427  0.00  0.00    +0.000 A 
ATOM     20  H   UNL     1      15.309   7.634  19.467  0.00  0.00    +0.000 HD
ENDROOT
TORSDOF 0
ENDMDL
MODEL 5
REMARK VINA RESULT:      -6.4     20.031     22.306
REMARK  Name = Ellipticine.pdbqt.pdb
REMARK  0 active torsions:
REMARK  status: ('A' for Active; 'I' for Inactive)
REMARK                            x       y       z     vdW  Elec       q    Type
REMARK                         _______ _______ _______ _____ _____    ______ ____
ROOT
ATOM      1  N   UNL     1      38.596  -0.844  12.898  0.00  0.00    +0.000 N 
ATOM      2  N   UNL     1      40.471   2.621   7.827  0.00  0.00    +0.000 NA
ATOM      3  C   UNL     1      38.152   1.082  11.843  0.00  0.00    +0.000 A 
ATOM      4  C   UNL     1      38.959  -0.060  11.822  0.00  0.00    +0.000 A 
ATOM      5  C   UNL     1      38.336   2.055  10.827  0.00  0.00    +0.000 A 
ATOM      6  C   UNL     1      37.283   0.951  12.983  0.00  0.00    +0.000 A 
ATOM      7  C   UNL     1      39.940  -0.284  10.843  0.00  0.00    +0.000 A 
ATOM      8  C   UNL     1      40.120   0.682   9.836  0.00  0.00    +0.000 A 
ATOM      9  C   UNL     1      39.319   1.845   9.832  0.00  0.00    +0.000 A 
ATOM     10  C   UNL     1      37.585  -0.254  13.613  0.00  0.00    +0.000 A 
ATOM     11  C   UNL     1      37.479   3.303  10.818  0.00  0.00    +0.000 C 
ATOM     12  C   UNL     1      36.264   1.753  13.534  0.00  0.00    +0.000 A 
ATOM     13  C   UNL     1      40.755  -1.554  10.918  0.00  0.00    +0.000 C 
ATOM     14  C   UNL     1      36.927  -0.703  14.763  0.00  0.00    +0.000 A 
ATOM     15  C   UNL     1      41.080   0.525   8.825  0.00  0.00    +0.000 A 
ATOM     16  C   UNL     1      39.550   2.761   8.806  0.00  0.00    +0.000 A 
ATOM     17  C   UNL     1      35.593   1.324  14.682  0.00  0.00    +0.000 A 
ATOM     18  C   UNL     1      35.922   0.116  15.283  0.00  0.00    +0.000 A 
ATOM     19  C   UNL     1      41.218   1.504   7.858  0.00  0.00    +0.000 A 
ATOM     20  H   UNL     1      39.025  -1.735  13.120  0.00  0.00    +0.000 HD
ENDROOT
TORSDOF 0
ENDMDL
MODEL 6
REMARK VINA RESULT:      -6.3     18.116     20.252
REMARK  Name = Ellipticine.pdbqt.pdb
REMARK  0 active torsions:
REMARK  status: ('A' for Active; 'I' for Inactive)
REMARK                            x       y       z     vdW  Elec       q    Type
REMARK                         _______ _______ _______ _____ _____    ______ ____
ROOT
ATOM      1  N   UNL     1      37.173   3.290  14.620  0.00  0.00    +0.000 N 
ATOM      2  N   UNL     1      39.337   2.805   8.594  0.00  0.00    +0.000 NA
ATOM      3  C   UNL     1      36.960   2.018  12.789  0.00  0.00    +0.000 A 
ATOM      4  C   UNL     1      37.605   3.139  13.319  0.00  0.00    +0.000 A 
ATOM      5  C   UNL     1      37.240   1.650  11.448  0.00  0.00    +0.000 A 
ATOM      6  C   UNL     1      36.117   1.497  13.833  0.00  0.00    +0.000 A 
ATOM      7  C   UNL     1      38.515   3.915  12.584  0.00  0.00    +0.000 A 
ATOM      8  C   UNL     1      38.792   3.548  11.253  0.00  0.00    +0.000 A 
ATOM      9  C   UNL     1      38.155   2.420  10.692  0.00  0.00    +0.000 A 
ATOM     10  C   UNL     1      36.274   2.310  14.953  0.00  0.00    +0.000 A 
ATOM     11  C   UNL     1      36.560   0.441  10.843  0.00  0.00    +0.000 C 
ATOM     12  C   UNL     1      35.232   0.403  13.923  0.00  0.00    +0.000 A 
ATOM     13  C   UNL     1      39.154   5.107  13.256  0.00  0.00    +0.000 C 
ATOM     14  C   UNL     1      35.598   2.092  16.158  0.00  0.00    +0.000 A 
ATOM     15  C   UNL     1      39.690   4.276  10.458  0.00  0.00    +0.000 A 
ATOM     16  C   UNL     1      38.474   2.113   9.370  0.00  0.00    +0.000 A 
ATOM     17  C   UNL     1      34.547   0.167  15.117  0.00  0.00    +0.000 A 
ATOM     18  C   UNL     1      34.729   1.000  16.214  0.00  0.00    +0.000 A 
ATOM     19  C   UNL     1      39.927   3.874   9.157  0.00  0.00    +0.000 A 
ATOM     20  H   UNL     1      37.485   4.030  15.239  0.00  0.00    +0.000 HD
ENDROOT
TORSDOF 0
ENDMDL
MODEL 7
REMARK VINA RESULT:      -6.1     17.604     19.716
REMARK  Name = Ellipticine.pdbqt.pdb
REMARK  0 active torsions:
REMARK  status: ('A' for Active; 'I' for Inactive)
REMARK                            x       y       z     vdW  Elec       q    Type
REMARK                         _______ _______ _______ _____ _____    ______ ____
ROOT
ATOM      1  N   UNL     1      37.341   4.661  18.364  0.00  0.00    +0.000 N 
ATOM      2  N   UNL     1      36.795   1.196  12.986  0.00  0.00    +0.000 NA
ATOM      3  C   UNL     1      38.123   4.563  16.268  0.00  0.00    +0.000 A 
ATOM      4  C   UNL     1      37.262   3.952  17.184  0.00  0.00    +0.000 A 
ATOM      5  C   UNL     1      38.220   4.013  14.964  0.00  0.00    +0.000 A 
ATOM      6  C   UNL     1      38.726   5.677  16.951  0.00  0.00    +0.000 A 
ATOM      7  C   UNL     1      36.492   2.820  16.871  0.00  0.00    +0.000 A 
ATOM      8  C   UNL     1      36.591   2.276  15.576  0.00  0.00    +0.000 A 
ATOM      9  C   UNL     1      37.452   2.873  14.631  0.00  0.00    +0.000 A 
ATOM     10  C   UNL     1      38.219   5.707  18.248  0.00  0.00    +0.000 A 
ATOM     11  C   UNL     1      39.142   4.650  13.947  0.00  0.00    +0.000 C 
ATOM     12  C   UNL     1      39.662   6.664  16.579  0.00  0.00    +0.000 A 
ATOM     13  C   UNL     1      35.595   2.241  17.939  0.00  0.00    +0.000 C 
ATOM     14  C   UNL     1      38.593   6.668  19.194  0.00  0.00    +0.000 A 
ATOM     15  C   UNL     1      35.852   1.146  15.193  0.00  0.00    +0.000 A 
ATOM     16  C   UNL     1      37.501   2.282  13.368  0.00  0.00    +0.000 A 
ATOM     17  C   UNL     1      40.049   7.632  17.508  0.00  0.00    +0.000 A 
ATOM     18  C   UNL     1      39.521   7.630  18.793  0.00  0.00    +0.000 A 
ATOM     19  C   UNL     1      35.984   0.650  13.909  0.00  0.00    +0.000 A 
ATOM     20  H   UNL     1      36.815   4.430  19.200  0.00  0.00    +0.000 HD
ENDROOT
TORSDOF 0
ENDMDL
MODEL 8
REMARK VINA RESULT:      -6.1     39.860     42.028
REMARK  Name = Ellipticine.pdbqt.pdb
REMARK  0 active torsions:
REMARK  status: ('A' for Active; 'I' for Inactive)
REMARK                            x       y       z     vdW  Elec       q    Type
REMARK                         _______ _______ _______ _____ _____    ______ ____
ROOT
ATOM      1  N   UNL     1      44.411 -16.074  -5.584  0.00  0.00    +0.000 N 
ATOM      2  N   UNL     1      40.998 -19.889  -1.708  0.00  0.00    +0.000 NA
ATOM      3  C   UNL     1      43.703 -16.219  -3.464  0.00  0.00    +0.000 A 
ATOM      4  C   UNL     1      43.687 -16.856  -4.709  0.00  0.00    +0.000 A 
ATOM      5  C   UNL     1      43.020 -16.834  -2.384  0.00  0.00    +0.000 A 
ATOM      6  C   UNL     1      44.472 -15.013  -3.629  0.00  0.00    +0.000 A 
ATOM      7  C   UNL     1      43.027 -18.074  -4.935  0.00  0.00    +0.000 A 
ATOM      8  C   UNL     1      42.349 -18.682  -3.861  0.00  0.00    +0.000 A 
ATOM      9  C   UNL     1      42.348 -18.062  -2.594  0.00  0.00    +0.000 A 
ATOM     10  C   UNL     1      44.894 -14.956  -4.955  0.00  0.00    +0.000 A 
ATOM     11  C   UNL     1      43.017 -16.172  -1.023  0.00  0.00    +0.000 C 
ATOM     12  C   UNL     1      44.845 -13.964  -2.765  0.00  0.00    +0.000 A 
ATOM     13  C   UNL     1      43.074 -18.673  -6.321  0.00  0.00    +0.000 C 
ATOM     14  C   UNL     1      45.669 -13.909  -5.467  0.00  0.00    +0.000 A 
ATOM     15  C   UNL     1      41.667 -19.899  -4.013  0.00  0.00    +0.000 A 
ATOM     16  C   UNL     1      41.658 -18.718  -1.575  0.00  0.00    +0.000 A 
ATOM     17  C   UNL     1      45.618 -12.909  -3.255  0.00  0.00    +0.000 A 
ATOM     18  C   UNL     1      46.022 -12.886  -4.584  0.00  0.00    +0.000 A 
ATOM     19  C   UNL     1      41.017 -20.455  -2.927  0.00  0.00    +0.000 A 
ATOM     20  H   UNL     1      44.559 -16.304  -6.561  0.00  0.00    +0.000 HD
ENDROOT
TORSDOF 0
ENDMDL
MODEL 9
REMARK VINA RESULT:      -6.0     39.099     41.315
REMARK  Name = Ellipticine.pdbqt.pdb
REMARK  0 active torsions:
REMARK  status: ('A' for Active; 'I' for Inactive)
REMARK                            x       y       z     vdW  Elec       q    Type
REMARK                         _______ _______ _______ _____ _____    ______ ____
ROOT
ATOM      1  N   UNL     1      41.914 -18.958  -3.660  0.00  0.00    +0.000 N 
ATOM      2  N   UNL     1      42.719 -12.978  -1.464  0.00  0.00    +0.000 NA
ATOM      3  C   UNL     1      43.000 -17.059  -4.137  0.00  0.00    +0.000 A 
ATOM      4  C   UNL     1      42.122 -17.664  -3.232  0.00  0.00    +0.000 A 
ATOM      5  C   UNL     1      43.374 -15.709  -3.912  0.00  0.00    +0.000 A 
ATOM      6  C   UNL     1      43.313 -18.050  -5.132  0.00  0.00    +0.000 A 
ATOM      7  C   UNL     1      41.596 -16.995  -2.116  0.00  0.00    +0.000 A 
ATOM      8  C   UNL     1      41.968 -15.656  -1.895  0.00  0.00    +0.000 A 
ATOM      9  C   UNL     1      42.853 -15.019  -2.792  0.00  0.00    +0.000 A 
ATOM     10  C   UNL     1      42.622 -19.215  -4.805  0.00  0.00    +0.000 A 
ATOM     11  C   UNL     1      44.322 -15.023  -4.872  0.00  0.00    +0.000 C 
ATOM     12  C   UNL     1      44.124 -18.058  -6.285  0.00  0.00    +0.000 A 
ATOM     13  C   UNL     1      40.655 -17.747  -1.203  0.00  0.00    +0.000 C 
ATOM     14  C   UNL     1      42.697 -20.387  -5.565  0.00  0.00    +0.000 A 
ATOM     15  C   UNL     1      41.482 -14.925  -0.800  0.00  0.00    +0.000 A 
ATOM     16  C   UNL     1      43.180 -13.692  -2.514  0.00  0.00    +0.000 A 
ATOM     17  C   UNL     1      44.213 -19.219  -7.057  0.00  0.00    +0.000 A 
ATOM     18  C   UNL     1      43.510 -20.362  -6.700  0.00  0.00    +0.000 A 
ATOM     19  C   UNL     1      41.878 -13.612  -0.628  0.00  0.00    +0.000 A 
ATOM     20  H   UNL     1      41.315 -19.623  -3.183  0.00  0.00    +0.000 HD
ENDROOT
TORSDOF 0
ENDMDL
