MODEL 1
REMARK VINA RESULT:      -7.2      0.000      0.000
REMARK  Name = Enterolactone.pdbqt.pdb
REMARK  2 active torsions:
REMARK  status: ('A' for Active; 'I' for Inactive)
REMARK    1  A    between atoms: C_10  and  O_14
REMARK    2  A    between atoms: C_19  and  O_23
REMARK                            x       y       z     vdW  Elec       q    Type
REMARK                         _______ _______ _______ _____ _____    ______ ____
ROOT
ATOM      1  O   UNL     1      29.202   5.521   2.892  0.00  0.00    +0.000 OA
ATOM      2  O   UNL     1      31.476   5.004   2.899  0.00  0.00    +0.000 OA
ATOM      3  C   UNL     1      28.313   3.354   3.260  0.00  0.00    +0.000 C 
ATOM      4  C   UNL     1      29.755   3.289   3.233  0.00  0.00    +0.000 C 
ATOM      5  C   UNL     1      28.157   4.726   3.059  0.00  0.00    +0.000 C 
ATOM      6  C   UNL     1      30.306   4.681   2.987  0.00  0.00    +0.000 C 
ATOM      7  C   UNL     1      27.450   2.416   3.857  0.00  0.00    +0.000 C 
ATOM      8  C   UNL     1      26.590   1.452   4.459  0.00  0.00    +0.000 C 
ATOM      9  C   UNL     1      27.021   0.742   5.577  0.00  0.00    +0.000 C 
ATOM     10  C   UNL     1      26.176  -0.204   6.149  0.00  0.00    +0.000 C 
ATOM     11  C   UNL     1      24.913  -0.447   5.620  0.00  0.00    +0.000 C 
ATOM     12  C   UNL     1      24.487   0.267   4.502  0.00  0.00    +0.000 C 
ATOM     13  C   UNL     1      25.326   1.217   3.921  0.00  0.00    +0.000 C 
ATOM     14  C   UNL     1      30.534   2.136   3.479  0.00  0.00    +0.000 C 
ATOM     15  C   UNL     1      31.314   0.971   3.734  0.00  0.00    +0.000 C 
ATOM     16  C   UNL     1      30.888  -0.265   3.255  0.00  0.00    +0.000 C 
ATOM     17  C   UNL     1      31.653  -1.397   3.521  0.00  0.00    +0.000 C 
ATOM     18  C   UNL     1      32.830  -1.309   4.255  0.00  0.00    +0.000 C 
ATOM     19  C   UNL     1      33.251  -0.069   4.731  0.00  0.00    +0.000 C 
ATOM     20  C   UNL     1      32.493   1.072   4.472  0.00  0.00    +0.000 C 
ENDROOT
BRANCH  10  21
ATOM     21  O   UNL     1      26.568  -0.917   7.244  0.00  0.00    +0.000 OA
ATOM     22  H   UNL     1      25.787  -1.355   7.625  0.00  0.00    +0.000 HD
ENDBRANCH  10  21
BRANCH  17  23
ATOM     23  O   UNL     1      31.264  -2.624   3.067  0.00  0.00    +0.000 OA
ATOM     24  H   UNL     1      30.348  -2.557   2.742  0.00  0.00    +0.000 HD
ENDBRANCH  17  23
TORSDOF 2
ENDMDL
MODEL 2
REMARK VINA RESULT:      -6.6     41.714     44.086
REMARK  Name = Enterolactone.pdbqt.pdb
REMARK  2 active torsions:
REMARK  status: ('A' for Active; 'I' for Inactive)
REMARK    1  A    between atoms: C_10  and  O_14
REMARK    2  A    between atoms: C_19  and  O_23
REMARK                            x       y       z     vdW  Elec       q    Type
REMARK                         _______ _______ _______ _____ _____    ______ ____
ROOT
ATOM      1  O   UNL     1      25.675 -14.778  43.055  0.00  0.00    +0.000 OA
ATOM      2  O   UNL     1      23.791 -14.694  44.426  0.00  0.00    +0.000 OA
ATOM      3  C   UNL     1      26.779 -12.815  43.795  0.00  0.00    +0.000 C 
ATOM      4  C   UNL     1      25.548 -12.986  44.530  0.00  0.00    +0.000 C 
ATOM      5  C   UNL     1      26.705 -13.951  42.987  0.00  0.00    +0.000 C 
ATOM      6  C   UNL     1      24.851 -14.240  44.037  0.00  0.00    +0.000 C 
ATOM      7  C   UNL     1      27.893 -12.058  44.202  0.00  0.00    +0.000 C 
ATOM      8  C   UNL     1      29.008 -11.279  44.627  0.00  0.00    +0.000 C 
ATOM      9  C   UNL     1      29.283 -11.148  45.986  0.00  0.00    +0.000 C 
ATOM     10  C   UNL     1      30.369 -10.376  46.388  0.00  0.00    +0.000 C 
ATOM     11  C   UNL     1      31.178  -9.738  45.454  0.00  0.00    +0.000 C 
ATOM     12  C   UNL     1      30.897  -9.873  44.096  0.00  0.00    +0.000 C 
ATOM     13  C   UNL     1      29.812 -10.643  43.682  0.00  0.00    +0.000 C 
ATOM     14  C   UNL     1      25.102 -12.171  45.594  0.00  0.00    +0.000 C 
ATOM     15  C   UNL     1      24.661 -11.347  46.670  0.00  0.00    +0.000 C 
ATOM     16  C   UNL     1      24.859  -9.970  46.614  0.00  0.00    +0.000 C 
ATOM     17  C   UNL     1      24.434  -9.178  47.677  0.00  0.00    +0.000 C 
ATOM     18  C   UNL     1      23.818  -9.743  48.788  0.00  0.00    +0.000 C 
ATOM     19  C   UNL     1      23.622 -11.122  48.837  0.00  0.00    +0.000 C 
ATOM     20  C   UNL     1      24.044 -11.925  47.779  0.00  0.00    +0.000 C 
ENDROOT
BRANCH  10  21
ATOM     21  O   UNL     1      30.667 -10.227  47.712  0.00  0.00    +0.000 OA
ATOM     22  H   UNL     1      30.494 -11.071  48.165  0.00  0.00    +0.000 HD
ENDBRANCH  10  21
BRANCH  17  23
ATOM     23  O   UNL     1      24.613  -7.826  47.654  0.00  0.00    +0.000 OA
ATOM     24  H   UNL     1      25.371  -7.624  47.077  0.00  0.00    +0.000 HD
ENDBRANCH  17  23
TORSDOF 2
ENDMDL
MODEL 3
REMARK VINA RESULT:      -6.4     32.906     35.734
REMARK  Name = Enterolactone.pdbqt.pdb
REMARK  2 active torsions:
REMARK  status: ('A' for Active; 'I' for Inactive)
REMARK    1  A    between atoms: C_10  and  O_14
REMARK    2  A    between atoms: C_19  and  O_23
REMARK                            x       y       z     vdW  Elec       q    Type
REMARK                         _______ _______ _______ _____ _____    ______ ____
ROOT
ATOM      1  O   UNL     1      18.744   4.513  41.260  0.00  0.00    +0.000 OA
ATOM      2  O   UNL     1      17.956   2.983  39.687  0.00  0.00    +0.000 OA
ATOM      3  C   UNL     1      19.703   6.112  39.796  0.00  0.00    +0.000 C 
ATOM      4  C   UNL     1      19.124   5.036  39.027  0.00  0.00    +0.000 C 
ATOM      5  C   UNL     1      19.384   5.657  41.076  0.00  0.00    +0.000 C 
ATOM      6  C   UNL     1      18.524   4.019  39.979  0.00  0.00    +0.000 C 
ATOM      7  C   UNL     1      19.974   7.413  39.333  0.00  0.00    +0.000 C 
ATOM      8  C   UNL     1      20.249   8.723  38.844  0.00  0.00    +0.000 C 
ATOM      9  C   UNL     1      19.445   9.274  37.849  0.00  0.00    +0.000 C 
ATOM     10  C   UNL     1      19.730  10.550  37.373  0.00  0.00    +0.000 C 
ATOM     11  C   UNL     1      20.804  11.277  37.877  0.00  0.00    +0.000 C 
ATOM     12  C   UNL     1      21.605  10.721  38.871  0.00  0.00    +0.000 C 
ATOM     13  C   UNL     1      21.328   9.443  39.355  0.00  0.00    +0.000 C 
ATOM     14  C   UNL     1      19.047   4.976  37.618  0.00  0.00    +0.000 C 
ATOM     15  C   UNL     1      18.970   4.926  36.196  0.00  0.00    +0.000 C 
ATOM     16  C   UNL     1      20.036   5.383  35.427  0.00  0.00    +0.000 C 
ATOM     17  C   UNL     1      19.943   5.339  34.039  0.00  0.00    +0.000 C 
ATOM     18  C   UNL     1      18.803   4.845  33.414  0.00  0.00    +0.000 C 
ATOM     19  C   UNL     1      17.739   4.388  34.189  0.00  0.00    +0.000 C 
ATOM     20  C   UNL     1      17.821   4.428  35.581  0.00  0.00    +0.000 C 
ENDROOT
BRANCH  10  21
ATOM     21  O   UNL     1      18.962  11.119  36.400  0.00  0.00    +0.000 OA
ATOM     22  H   UNL     1      19.054  10.594  35.586  0.00  0.00    +0.000 HD
ENDBRANCH  10  21
BRANCH  17  23
ATOM     23  O   UNL     1      20.969   5.780  33.256  0.00  0.00    +0.000 OA
ATOM     24  H   UNL     1      20.699   6.616  32.835  0.00  0.00    +0.000 HD
ENDBRANCH  17  23
TORSDOF 2
ENDMDL
MODEL 4
REMARK VINA RESULT:      -6.2      4.056      7.100
REMARK  Name = Enterolactone.pdbqt.pdb
REMARK  2 active torsions:
REMARK  status: ('A' for Active; 'I' for Inactive)
REMARK    1  A    between atoms: C_10  and  O_14
REMARK    2  A    between atoms: C_19  and  O_23
REMARK                            x       y       z     vdW  Elec       q    Type
REMARK                         _______ _______ _______ _____ _____    ______ ____
ROOT
ATOM      1  O   UNL     1      20.772  -1.147   1.245  0.00  0.00    +0.000 OA
ATOM      2  O   UNL     1      22.699  -0.266   0.272  0.00  0.00    +0.000 OA
ATOM      3  C   UNL     1      21.591  -1.542   3.435  0.00  0.00    +0.000 C 
ATOM      4  C   UNL     1      22.637  -0.969   2.621  0.00  0.00    +0.000 C 
ATOM      5  C   UNL     1      20.570  -1.567   2.484  0.00  0.00    +0.000 C 
ATOM      6  C   UNL     1      22.099  -0.733   1.223  0.00  0.00    +0.000 C 
ATOM      7  C   UNL     1      21.527  -1.524   4.840  0.00  0.00    +0.000 C 
ATOM      8  C   UNL     1      21.483  -1.504   6.265  0.00  0.00    +0.000 C 
ATOM      9  C   UNL     1      22.050  -0.439   6.960  0.00  0.00    +0.000 C 
ATOM     10  C   UNL     1      22.010  -0.436   8.351  0.00  0.00    +0.000 C 
ATOM     11  C   UNL     1      21.414  -1.480   9.051  0.00  0.00    +0.000 C 
ATOM     12  C   UNL     1      20.848  -2.542   8.350  0.00  0.00    +0.000 C 
ATOM     13  C   UNL     1      20.883  -2.555   6.957  0.00  0.00    +0.000 C 
ATOM     14  C   UNL     1      23.927  -0.606   3.070  0.00  0.00    +0.000 C 
ATOM     15  C   UNL     1      25.224  -0.237   3.531  0.00  0.00    +0.000 C 
ATOM     16  C   UNL     1      25.886  -1.042   4.453  0.00  0.00    +0.000 C 
ATOM     17  C   UNL     1      27.147  -0.665   4.904  0.00  0.00    +0.000 C 
ATOM     18  C   UNL     1      27.751   0.502   4.446  0.00  0.00    +0.000 C 
ATOM     19  C   UNL     1      27.083   1.302   3.522  0.00  0.00    +0.000 C 
ATOM     20  C   UNL     1      25.819   0.935   3.064  0.00  0.00    +0.000 C 
ENDROOT
BRANCH  10  21
ATOM     21  O   UNL     1      22.556   0.592   9.062  0.00  0.00    +0.000 OA
ATOM     22  H   UNL     1      21.975   0.791   9.817  0.00  0.00    +0.000 HD
ENDBRANCH  10  21
BRANCH  17  23
ATOM     23  O   UNL     1      27.823  -1.430   5.809  0.00  0.00    +0.000 OA
ATOM     24  H   UNL     1      28.777  -1.350   5.630  0.00  0.00    +0.000 HD
ENDBRANCH  17  23
TORSDOF 2
ENDMDL
MODEL 5
REMARK VINA RESULT:      -6.0      6.739     11.239
REMARK  Name = Enterolactone.pdbqt.pdb
REMARK  2 active torsions:
REMARK  status: ('A' for Active; 'I' for Inactive)
REMARK    1  A    between atoms: C_10  and  O_14
REMARK    2  A    between atoms: C_19  and  O_23
REMARK                            x       y       z     vdW  Elec       q    Type
REMARK                         _______ _______ _______ _____ _____    ______ ____
ROOT
ATOM      1  O   UNL     1      16.677  -2.185   4.557  0.00  0.00    +0.000 OA
ATOM      2  O   UNL     1      16.074  -2.822   6.717  0.00  0.00    +0.000 OA
ATOM      3  C   UNL     1      18.948  -1.622   4.940  0.00  0.00    +0.000 C 
ATOM      4  C   UNL     1      18.344  -2.070   6.173  0.00  0.00    +0.000 C 
ATOM      5  C   UNL     1      17.845  -1.763   4.097  0.00  0.00    +0.000 C 
ATOM      6  C   UNL     1      16.891  -2.415   5.911  0.00  0.00    +0.000 C 
ATOM      7  C   UNL     1      20.324  -1.610   4.645  0.00  0.00    +0.000 C 
ATOM      8  C   UNL     1      21.722  -1.596   4.367  0.00  0.00    +0.000 C 
ATOM      9  C   UNL     1      22.552  -2.555   4.943  0.00  0.00    +0.000 C 
ATOM     10  C   UNL     1      23.916  -2.524   4.671  0.00  0.00    +0.000 C 
ATOM     11  C   UNL     1      24.457  -1.553   3.836  0.00  0.00    +0.000 C 
ATOM     12  C   UNL     1      23.622  -0.597   3.263  0.00  0.00    +0.000 C 
ATOM     13  C   UNL     1      22.254  -0.618   3.528  0.00  0.00    +0.000 C 
ATOM     14  C   UNL     1      19.013  -2.242   7.405  0.00  0.00    +0.000 C 
ATOM     15  C   UNL     1      19.696  -2.417   8.644  0.00  0.00    +0.000 C 
ATOM     16  C   UNL     1      20.672  -1.504   9.032  0.00  0.00    +0.000 C 
ATOM     17  C   UNL     1      21.339  -1.694  10.239  0.00  0.00    +0.000 C 
ATOM     18  C   UNL     1      21.044  -2.779  11.056  0.00  0.00    +0.000 C 
ATOM     19  C   UNL     1      20.065  -3.689  10.662  0.00  0.00    +0.000 C 
ATOM     20  C   UNL     1      19.391  -3.509   9.455  0.00  0.00    +0.000 C 
ENDROOT
BRANCH  10  21
ATOM     21  O   UNL     1      24.757  -3.449   5.220  0.00  0.00    +0.000 OA
ATOM     22  H   UNL     1      25.593  -3.443   4.721  0.00  0.00    +0.000 HD
ENDBRANCH  10  21
BRANCH  17  23
ATOM     23  O   UNL     1      22.302  -0.819  10.648  0.00  0.00    +0.000 OA
ATOM     24  H   UNL     1      21.957   0.087  10.556  0.00  0.00    +0.000 HD
ENDBRANCH  17  23
TORSDOF 2
ENDMDL
MODEL 6
REMARK VINA RESULT:      -6.0      4.848      7.563
REMARK  Name = Enterolactone.pdbqt.pdb
REMARK  2 active torsions:
REMARK  status: ('A' for Active; 'I' for Inactive)
REMARK    1  A    between atoms: C_10  and  O_14
REMARK    2  A    between atoms: C_19  and  O_23
REMARK                            x       y       z     vdW  Elec       q    Type
REMARK                         _______ _______ _______ _____ _____    ______ ____
ROOT
ATOM      1  O   UNL     1      22.410  -1.983  -0.181  0.00  0.00    +0.000 OA
ATOM      2  O   UNL     1      24.683  -1.484  -0.039  0.00  0.00    +0.000 OA
ATOM      3  C   UNL     1      21.830  -1.796   2.109  0.00  0.00    +0.000 C 
ATOM      4  C   UNL     1      23.235  -1.513   1.941  0.00  0.00    +0.000 C 
ATOM      5  C   UNL     1      21.498  -2.038   0.776  0.00  0.00    +0.000 C 
ATOM      6  C   UNL     1      23.590  -1.647   0.472  0.00  0.00    +0.000 C 
ATOM      7  C   UNL     1      21.024  -1.390   3.190  0.00  0.00    +0.000 C 
ATOM      8  C   UNL     1      20.225  -0.978   4.296  0.00  0.00    +0.000 C 
ATOM      9  C   UNL     1      20.519   0.212   4.957  0.00  0.00    +0.000 C 
ATOM     10  C   UNL     1      19.737   0.598   6.042  0.00  0.00    +0.000 C 
ATOM     11  C   UNL     1      18.673  -0.188   6.471  0.00  0.00    +0.000 C 
ATOM     12  C   UNL     1      18.384  -1.377   5.806  0.00  0.00    +0.000 C 
ATOM     13  C   UNL     1      19.160  -1.773   4.718  0.00  0.00    +0.000 C 
ATOM     14  C   UNL     1      24.122  -1.095   2.958  0.00  0.00    +0.000 C 
ATOM     15  C   UNL     1      25.008  -0.669   3.989  0.00  0.00    +0.000 C 
ATOM     16  C   UNL     1      24.903  -1.217   5.264  0.00  0.00    +0.000 C 
ATOM     17  C   UNL     1      25.767  -0.785   6.265  0.00  0.00    +0.000 C 
ATOM     18  C   UNL     1      26.731   0.185   6.008  0.00  0.00    +0.000 C 
ATOM     19  C   UNL     1      26.832   0.729   4.729  0.00  0.00    +0.000 C 
ATOM     20  C   UNL     1      25.971   0.303   3.719  0.00  0.00    +0.000 C 
ENDROOT
BRANCH  10  21
ATOM     21  O   UNL     1      19.998   1.758   6.711  0.00  0.00    +0.000 OA
ATOM     22  H   UNL     1      19.351   1.852   7.432  0.00  0.00    +0.000 HD
ENDBRANCH  10  21
BRANCH  17  23
ATOM     23  O   UNL     1      25.690  -1.300   7.525  0.00  0.00    +0.000 OA
ATOM     24  H   UNL     1      26.422  -0.936   8.054  0.00  0.00    +0.000 HD
ENDBRANCH  17  23
TORSDOF 2
ENDMDL
MODEL 7
REMARK VINA RESULT:      -5.9     12.563     15.796
REMARK  Name = Enterolactone.pdbqt.pdb
REMARK  2 active torsions:
REMARK  status: ('A' for Active; 'I' for Inactive)
REMARK    1  A    between atoms: C_10  and  O_14
REMARK    2  A    between atoms: C_19  and  O_23
REMARK                            x       y       z     vdW  Elec       q    Type
REMARK                         _______ _______ _______ _____ _____    ______ ____
ROOT
ATOM      1  O   UNL     1      44.505  -0.593  11.569  0.00  0.00    +0.000 OA
ATOM      2  O   UNL     1      45.675   0.928  12.893  0.00  0.00    +0.000 OA
ATOM      3  C   UNL     1      42.299   0.196  11.933  0.00  0.00    +0.000 C 
ATOM      4  C   UNL     1      43.234   1.013  12.668  0.00  0.00    +0.000 C 
ATOM      5  C   UNL     1      43.204  -0.684  11.339  0.00  0.00    +0.000 C 
ATOM      6  C   UNL     1      44.638   0.489  12.432  0.00  0.00    +0.000 C 
ATOM      7  C   UNL     1      40.998   0.566  11.543  0.00  0.00    +0.000 C 
ATOM      8  C   UNL     1      39.681   0.955  11.163  0.00  0.00    +0.000 C 
ATOM      9  C   UNL     1      39.405   2.293  10.893  0.00  0.00    +0.000 C 
ATOM     10  C   UNL     1      38.112   2.661  10.534  0.00  0.00    +0.000 C 
ATOM     11  C   UNL     1      37.098   1.713  10.442  0.00  0.00    +0.000 C 
ATOM     12  C   UNL     1      37.380   0.377  10.713  0.00  0.00    +0.000 C 
ATOM     13  C   UNL     1      38.672  -0.003  11.074  0.00  0.00    +0.000 C 
ATOM     14  C   UNL     1      42.911   2.167  13.418  0.00  0.00    +0.000 C 
ATOM     15  C   UNL     1      42.578   3.332  14.168  0.00  0.00    +0.000 C 
ATOM     16  C   UNL     1      41.407   3.361  14.919  0.00  0.00    +0.000 C 
ATOM     17  C   UNL     1      41.088   4.509  15.638  0.00  0.00    +0.000 C 
ATOM     18  C   UNL     1      41.921   5.622  15.614  0.00  0.00    +0.000 C 
ATOM     19  C   UNL     1      43.092   5.587  14.860  0.00  0.00    +0.000 C 
ATOM     20  C   UNL     1      43.421   4.442  14.136  0.00  0.00    +0.000 C 
ENDROOT
BRANCH  10  21
ATOM     21  O   UNL     1      37.808   3.964  10.263  0.00  0.00    +0.000 OA
ATOM     22  H   UNL     1      36.954   4.176  10.678  0.00  0.00    +0.000 HD
ENDBRANCH  10  21
BRANCH  17  23
ATOM     23  O   UNL     1      39.947   4.570  16.384  0.00  0.00    +0.000 OA
ATOM     24  H   UNL     1      39.656   3.662  16.579  0.00  0.00    +0.000 HD
ENDBRANCH  17  23
TORSDOF 2
ENDMDL
MODEL 8
REMARK VINA RESULT:      -5.8     20.947     24.263
REMARK  Name = Enterolactone.pdbqt.pdb
REMARK  2 active torsions:
REMARK  status: ('A' for Active; 'I' for Inactive)
REMARK    1  A    between atoms: C_10  and  O_14
REMARK    2  A    between atoms: C_19  and  O_23
REMARK                            x       y       z     vdW  Elec       q    Type
REMARK                         _______ _______ _______ _____ _____    ______ ____
ROOT
ATOM      1  O   UNL     1      39.243 -16.227  -0.068  0.00  0.00    +0.000 OA
ATOM      2  O   UNL     1      40.782 -14.477  -0.012  0.00  0.00    +0.000 OA
ATOM      3  C   UNL     1      39.957 -17.306  -2.054  0.00  0.00    +0.000 C 
ATOM      4  C   UNL     1      40.794 -16.159  -1.798  0.00  0.00    +0.000 C 
ATOM      5  C   UNL     1      39.114 -17.209  -0.946  0.00  0.00    +0.000 C 
ATOM      6  C   UNL     1      40.316 -15.476  -0.530  0.00  0.00    +0.000 C 
ATOM      7  C   UNL     1      40.291 -18.418  -2.850  0.00  0.00    +0.000 C 
ATOM      8  C   UNL     1      40.643 -19.532  -3.666  0.00  0.00    +0.000 C 
ATOM      9  C   UNL     1      41.976 -19.927  -3.761  0.00  0.00    +0.000 C 
ATOM     10  C   UNL     1      42.308 -21.009  -4.569  0.00  0.00    +0.000 C 
ATOM     11  C   UNL     1      41.330 -21.698  -5.279  0.00  0.00    +0.000 C 
ATOM     12  C   UNL     1      40.000 -21.299  -5.180  0.00  0.00    +0.000 C 
ATOM     13  C   UNL     1      39.656 -20.216  -4.373  0.00  0.00    +0.000 C 
ATOM     14  C   UNL     1      41.926 -15.777  -2.552  0.00  0.00    +0.000 C 
ATOM     15  C   UNL     1      43.070 -15.402  -3.314  0.00  0.00    +0.000 C 
ATOM     16  C   UNL     1      43.052 -15.531  -4.700  0.00  0.00    +0.000 C 
ATOM     17  C   UNL     1      44.179 -15.172  -5.432  0.00  0.00    +0.000 C 
ATOM     18  C   UNL     1      45.319 -14.688  -4.798  0.00  0.00    +0.000 C 
ATOM     19  C   UNL     1      45.330 -14.560  -3.411  0.00  0.00    +0.000 C 
ATOM     20  C   UNL     1      44.206 -14.917  -2.667  0.00  0.00    +0.000 C 
ENDROOT
BRANCH  10  21
ATOM     21  O   UNL     1      43.604 -21.422  -4.685  0.00  0.00    +0.000 OA
ATOM     22  H   UNL     1      44.164 -20.839  -4.143  0.00  0.00    +0.000 HD
ENDBRANCH  10  21
BRANCH  17  23
ATOM     23  O   UNL     1      44.195 -15.288  -6.791  0.00  0.00    +0.000 OA
ATOM     24  H   UNL     1      45.102 -15.123  -7.105  0.00  0.00    +0.000 HD
ENDBRANCH  17  23
TORSDOF 2
ENDMDL
MODEL 9
REMARK VINA RESULT:      -5.8     28.847     31.966
REMARK  Name = Enterolactone.pdbqt.pdb
REMARK  2 active torsions:
REMARK  status: ('A' for Active; 'I' for Inactive)
REMARK    1  A    between atoms: C_10  and  O_14
REMARK    2  A    between atoms: C_19  and  O_23
REMARK                            x       y       z     vdW  Elec       q    Type
REMARK                         _______ _______ _______ _____ _____    ______ ____
ROOT
ATOM      1  O   UNL     1      50.197 -20.006  20.628  0.00  0.00    +0.000 OA
ATOM      2  O   UNL     1      48.780 -21.733  19.963  0.00  0.00    +0.000 OA
ATOM      3  C   UNL     1      50.585 -18.992  18.521  0.00  0.00    +0.000 C 
ATOM      4  C   UNL     1      49.697 -20.119  18.361  0.00  0.00    +0.000 C 
ATOM      5  C   UNL     1      50.770 -19.059  19.903  0.00  0.00    +0.000 C 
ATOM      6  C   UNL     1      49.469 -20.761  19.717  0.00  0.00    +0.000 C 
ATOM      7  C   UNL     1      50.718 -17.906  17.636  0.00  0.00    +0.000 C 
ATOM      8  C   UNL     1      50.845 -16.818  16.724  0.00  0.00    +0.000 C 
ATOM      9  C   UNL     1      49.744 -16.410  15.975  0.00  0.00    +0.000 C 
ATOM     10  C   UNL     1      49.884 -15.354  15.080  0.00  0.00    +0.000 C 
ATOM     11  C   UNL     1      51.104 -14.704  14.926  0.00  0.00    +0.000 C 
ATOM     12  C   UNL     1      52.201 -15.116  15.679  0.00  0.00    +0.000 C 
ATOM     13  C   UNL     1      52.072 -16.173  16.578  0.00  0.00    +0.000 C 
ATOM     14  C   UNL     1      49.071 -20.513  17.157  0.00  0.00    +0.000 C 
ATOM     15  C   UNL     1      48.440 -20.901  15.940  0.00  0.00    +0.000 C 
ATOM     16  C   UNL     1      49.142 -20.823  14.740  0.00  0.00    +0.000 C 
ATOM     17  C   UNL     1      48.510 -21.195  13.557  0.00  0.00    +0.000 C 
ATOM     18  C   UNL     1      47.193 -21.641  13.560  0.00  0.00    +0.000 C 
ATOM     19  C   UNL     1      46.497 -21.718  14.764  0.00  0.00    +0.000 C 
ATOM     20  C   UNL     1      47.119 -21.348  15.955  0.00  0.00    +0.000 C 
ENDROOT
BRANCH  10  21
ATOM     21  O   UNL     1      48.825 -14.929  14.331  0.00  0.00    +0.000 OA
ATOM     22  H   UNL     1      48.644 -13.999  14.550  0.00  0.00    +0.000 HD
ENDBRANCH  10  21
BRANCH  17  23
ATOM     23  O   UNL     1      49.168 -21.128  12.364  0.00  0.00    +0.000 OA
ATOM     24  H   UNL     1      48.522 -20.922  11.666  0.00  0.00    +0.000 HD
ENDBRANCH  17  23
TORSDOF 2
ENDMDL
