MODEL 1
REMARK VINA RESULT:      -9.3      0.000      0.000
REMARK  Name = 
REMARK  12 active torsions:
REMARK  status: ('A' for Active; 'I' for Inactive)
REMARK    1  A    between atoms: O_2  and  C_12
REMARK    2  A    between atoms: O_2  and  C_24
REMARK    3  A    between atoms: O_3  and  C_18
REMARK    4  A    between atoms: O_4  and  C_23
REMARK    5  A    between atoms: O_5  and  C_25
REMARK    6  A    between atoms: O_6  and  C_26
REMARK    7  A    between atoms: O_8  and  C_27
REMARK    8  A    between atoms: O_9  and  C_31
REMARK    9  A    between atoms: O_10  and  C_32
REMARK   10  A    between atoms: O_11  and  C_33
REMARK   11  A    between atoms: C_13  and  C_16
REMARK   12  A    between atoms: C_24  and  C_28
REMARK                            x       y       z     vdW  Elec       q    Type
REMARK                         _______ _______ _______ _____ _____    ______ ____
ROOT
ATOM      1  O   UNL     1      38.295   1.612  13.884  0.00  0.00    +0.000 OA
ATOM      2  C   UNL     1      36.584   0.970  12.221  0.00  0.00    +0.000 C 
ATOM      3  C   UNL     1      36.907   1.288  13.691  0.00  0.00    +0.000 C 
ATOM      4  C   UNL     1      36.868   2.217  11.384  0.00  0.00    +0.000 C 
ATOM      5  C   UNL     1      38.167   2.866  11.791  0.00  0.00    +0.000 A 
ATOM      6  C   UNL     1      38.790   2.534  13.001  0.00  0.00    +0.000 A 
ATOM      7  C   UNL     1      38.765   3.835  10.976  0.00  0.00    +0.000 A 
ATOM      8  C   UNL     1      40.004   3.122  13.364  0.00  0.00    +0.000 A 
ATOM      9  C   UNL     1      39.970   4.437  11.334  0.00  0.00    +0.000 A 
ATOM     10  C   UNL     1      40.582   4.070  12.526  0.00  0.00    +0.000 A 
ENDROOT
BRANCH   3  11
ATOM     11  C   UNL     1      36.538   0.131  14.610  0.00  0.00    +0.000 A 
ATOM     12  C   UNL     1      37.447  -0.928  14.802  0.00  0.00    +0.000 A 
ATOM     13  C   UNL     1      35.314   0.114  15.304  0.00  0.00    +0.000 A 
ATOM     14  C   UNL     1      35.016  -0.942  16.161  0.00  0.00    +0.000 A 
ATOM     15  C   UNL     1      37.134  -1.982  15.662  0.00  0.00    +0.000 A 
ATOM     16  C   UNL     1      35.920  -1.987  16.340  0.00  0.00    +0.000 A 
BRANCH  14  17
ATOM     17  O   UNL     1      33.839  -0.992  16.857  0.00  0.00    +0.000 OA
ATOM     18  H   UNL     1      33.219  -1.561  16.370  0.00  0.00    +0.000 HD
ENDBRANCH  14  17
BRANCH  15  19
ATOM     19  O   UNL     1      38.012  -3.011  15.847  0.00  0.00    +0.000 OA
ATOM     20  H   UNL     1      38.919  -2.688  15.744  0.00  0.00    +0.000 HD
ENDBRANCH  15  19
BRANCH  16  21
ATOM     21  O   UNL     1      35.594  -3.008  17.190  0.00  0.00    +0.000 OA
ATOM     22  H   UNL     1      34.795  -2.697  17.656  0.00  0.00    +0.000 HD
ENDBRANCH  16  21
ENDBRANCH   3  11
BRANCH   7  23
ATOM     23  O   UNL     1      38.143   4.184   9.811  0.00  0.00    +0.000 OA
ATOM     24  H   UNL     1      38.196   3.437   9.191  0.00  0.00    +0.000 HD
ENDBRANCH   7  23
BRANCH  10  25
ATOM     25  O   UNL     1      41.761   4.675  12.845  0.00  0.00    +0.000 OA
ATOM     26  H   UNL     1      42.060   4.345  13.709  0.00  0.00    +0.000 HD
ENDBRANCH  10  25
BRANCH   2  27
ATOM     27  O   UNL     1      37.432  -0.111  11.758  0.00  0.00    +0.000 OA
BRANCH  27  29
ATOM     28  O   UNL     1      36.320  -0.487   9.786  0.00  0.00    +0.000 OA
ATOM     29  C   UNL     1      37.343  -0.428  10.448  0.00  0.00    +0.000 C 
BRANCH  29  30
ATOM     30  C   UNL     1      38.692  -0.741   9.913  0.00  0.00    +0.000 A 
ATOM     31  C   UNL     1      39.682  -1.147  10.823  0.00  0.00    +0.000 A 
ATOM     32  C   UNL     1      38.985  -0.648   8.542  0.00  0.00    +0.000 A 
ATOM     33  C   UNL     1      40.268  -0.948   8.088  0.00  0.00    +0.000 A 
ATOM     34  C   UNL     1      40.956  -1.438  10.352  0.00  0.00    +0.000 A 
ATOM     35  C   UNL     1      41.252  -1.336   8.992  0.00  0.00    +0.000 A 
BRANCH  33  36
ATOM     36  O   UNL     1      40.570  -0.861   6.758  0.00  0.00    +0.000 OA
ATOM     37  H   UNL     1      41.416  -0.403   6.645  0.00  0.00    +0.000 HD
ENDBRANCH  33  36
BRANCH  34  38
ATOM     38  O   UNL     1      41.961  -1.832  11.193  0.00  0.00    +0.000 OA
ATOM     39  H   UNL     1      42.680  -2.216  10.661  0.00  0.00    +0.000 HD
ENDBRANCH  34  38
BRANCH  35  40
ATOM     40  O   UNL     1      42.517  -1.630   8.565  0.00  0.00    +0.000 OA
ATOM     41  H   UNL     1      43.004  -1.889   9.371  0.00  0.00    +0.000 HD
ENDBRANCH  35  40
ENDBRANCH  29  30
ENDBRANCH  27  29
ENDBRANCH   2  27
TORSDOF 12
ENDMDL
MODEL 2
REMARK VINA RESULT:      -9.2      0.146      2.043
REMARK  Name = 
REMARK  12 active torsions:
REMARK  status: ('A' for Active; 'I' for Inactive)
REMARK    1  A    between atoms: O_2  and  C_12
REMARK    2  A    between atoms: O_2  and  C_24
REMARK    3  A    between atoms: O_3  and  C_18
REMARK    4  A    between atoms: O_4  and  C_23
REMARK    5  A    between atoms: O_5  and  C_25
REMARK    6  A    between atoms: O_6  and  C_26
REMARK    7  A    between atoms: O_8  and  C_27
REMARK    8  A    between atoms: O_9  and  C_31
REMARK    9  A    between atoms: O_10  and  C_32
REMARK   10  A    between atoms: O_11  and  C_33
REMARK   11  A    between atoms: C_13  and  C_16
REMARK   12  A    between atoms: C_24  and  C_28
REMARK                            x       y       z     vdW  Elec       q    Type
REMARK                         _______ _______ _______ _____ _____    ______ ____
ROOT
ATOM      1  O   UNL     1      38.316   1.638  13.826  0.00  0.00    +0.000 OA
ATOM      2  C   UNL     1      36.503   1.032  12.260  0.00  0.00    +0.000 C 
ATOM      3  C   UNL     1      36.917   1.326  13.713  0.00  0.00    +0.000 C 
ATOM      4  C   UNL     1      36.746   2.289  11.426  0.00  0.00    +0.000 C 
ATOM      5  C   UNL     1      38.072   2.924  11.763  0.00  0.00    +0.000 A 
ATOM      6  C   UNL     1      38.764   2.570  12.929  0.00  0.00    +0.000 A 
ATOM      7  C   UNL     1      38.627   3.901  10.928  0.00  0.00    +0.000 A 
ATOM      8  C   UNL     1      40.002   3.144  13.226  0.00  0.00    +0.000 A 
ATOM      9  C   UNL     1      39.856   4.489  11.222  0.00  0.00    +0.000 A 
ATOM     10  C   UNL     1      40.536   4.101  12.369  0.00  0.00    +0.000 A 
ENDROOT
BRANCH   3  11
ATOM     11  C   UNL     1      36.595   0.158  14.635  0.00  0.00    +0.000 A 
ATOM     12  C   UNL     1      35.338   0.092  15.268  0.00  0.00    +0.000 A 
ATOM     13  C   UNL     1      37.519  -0.883  14.842  0.00  0.00    +0.000 A 
ATOM     14  C   UNL     1      37.186  -1.953  15.667  0.00  0.00    +0.000 A 
ATOM     15  C   UNL     1      35.019  -0.987  16.095  0.00  0.00    +0.000 A 
ATOM     16  C   UNL     1      35.943  -2.007  16.293  0.00  0.00    +0.000 A 
BRANCH  14  17
ATOM     17  O   UNL     1      38.056  -2.987  15.889  0.00  0.00    +0.000 OA
ATOM     18  H   UNL     1      37.973  -3.620  15.155  0.00  0.00    +0.000 HD
ENDBRANCH  14  17
BRANCH  15  19
ATOM     19  O   UNL     1      33.803  -1.052  16.713  0.00  0.00    +0.000 OA
ATOM     20  H   UNL     1      33.567  -0.179  17.061  0.00  0.00    +0.000 HD
ENDBRANCH  15  19
BRANCH  16  21
ATOM     21  O   UNL     1      35.649  -3.074  17.096  0.00  0.00    +0.000 OA
ATOM     22  H   UNL     1      36.518  -3.425  17.369  0.00  0.00    +0.000 HD
ENDBRANCH  16  21
ENDBRANCH   3  11
BRANCH   7  23
ATOM     23  O   UNL     1      37.939   4.271   9.807  0.00  0.00    +0.000 OA
ATOM     24  H   UNL     1      37.519   5.133   9.968  0.00  0.00    +0.000 HD
ENDBRANCH   7  23
BRANCH  10  25
ATOM     25  O   UNL     1      41.737   4.693  12.625  0.00  0.00    +0.000 OA
ATOM     26  H   UNL     1      41.965   4.550  13.559  0.00  0.00    +0.000 HD
ENDBRANCH  10  25
BRANCH   2  27
ATOM     27  O   UNL     1      37.314  -0.047  11.731  0.00  0.00    +0.000 OA
BRANCH  27  29
ATOM     28  O   UNL     1      36.343  -0.080   9.651  0.00  0.00    +0.000 OA
ATOM     29  C   UNL     1      37.307  -0.204  10.389  0.00  0.00    +0.000 C 
BRANCH  29  30
ATOM     30  C   UNL     1      38.660  -0.599   9.922  0.00  0.00    +0.000 A 
ATOM     31  C   UNL     1      38.928  -0.526   8.546  0.00  0.00    +0.000 A 
ATOM     32  C   UNL     1      39.656  -1.025  10.817  0.00  0.00    +0.000 A 
ATOM     33  C   UNL     1      40.911  -1.390  10.332  0.00  0.00    +0.000 A 
ATOM     34  C   UNL     1      40.183  -0.897   8.080  0.00  0.00    +0.000 A 
ATOM     35  C   UNL     1      41.170  -1.331   8.965  0.00  0.00    +0.000 A 
BRANCH  33  36
ATOM     36  O   UNL     1      41.890  -1.808  11.187  0.00  0.00    +0.000 OA
ATOM     37  H   UNL     1      41.757  -2.743  11.402  0.00  0.00    +0.000 HD
ENDBRANCH  33  36
BRANCH  34  38
ATOM     38  O   UNL     1      40.498  -0.852   6.749  0.00  0.00    +0.000 OA
ATOM     39  H   UNL     1      41.140  -0.134   6.605  0.00  0.00    +0.000 HD
ENDBRANCH  34  38
BRANCH  35  40
ATOM     40  O   UNL     1      42.394  -1.689   8.471  0.00  0.00    +0.000 OA
ATOM     41  H   UNL     1      42.218  -2.006   7.564  0.00  0.00    +0.000 HD
ENDBRANCH  35  40
ENDBRANCH  29  30
ENDBRANCH  27  29
ENDBRANCH   2  27
TORSDOF 12
ENDMDL
MODEL 3
REMARK VINA RESULT:      -8.8      1.839      6.226
REMARK  Name = 
REMARK  12 active torsions:
REMARK  status: ('A' for Active; 'I' for Inactive)
REMARK    1  A    between atoms: O_2  and  C_12
REMARK    2  A    between atoms: O_2  and  C_24
REMARK    3  A    between atoms: O_3  and  C_18
REMARK    4  A    between atoms: O_4  and  C_23
REMARK    5  A    between atoms: O_5  and  C_25
REMARK    6  A    between atoms: O_6  and  C_26
REMARK    7  A    between atoms: O_8  and  C_27
REMARK    8  A    between atoms: O_9  and  C_31
REMARK    9  A    between atoms: O_10  and  C_32
REMARK   10  A    between atoms: O_11  and  C_33
REMARK   11  A    between atoms: C_13  and  C_16
REMARK   12  A    between atoms: C_24  and  C_28
REMARK                            x       y       z     vdW  Elec       q    Type
REMARK                         _______ _______ _______ _____ _____    ______ ____
ROOT
ATOM      1  O   UNL     1      36.763  -0.352  13.483  0.00  0.00    +0.000 OA
ATOM      2  C   UNL     1      36.674   2.077  13.037  0.00  0.00    +0.000 C 
ATOM      3  C   UNL     1      36.449   0.652  12.502  0.00  0.00    +0.000 C 
ATOM      4  C   UNL     1      35.732   2.303  14.219  0.00  0.00    +0.000 C 
ATOM      5  C   UNL     1      35.702   1.104  15.134  0.00  0.00    +0.000 A 
ATOM      6  C   UNL     1      36.206  -0.134  14.716  0.00  0.00    +0.000 A 
ATOM      7  C   UNL     1      35.146   1.200  16.415  0.00  0.00    +0.000 A 
ATOM      8  C   UNL     1      36.197  -1.235  15.574  0.00  0.00    +0.000 A 
ATOM      9  C   UNL     1      35.121   0.104  17.276  0.00  0.00    +0.000 A 
ATOM     10  C   UNL     1      35.652  -1.106  16.847  0.00  0.00    +0.000 A 
ENDROOT
BRANCH   3  11
ATOM     11  C   UNL     1      37.269   0.388  11.247  0.00  0.00    +0.000 A 
ATOM     12  C   UNL     1      38.216  -0.655  11.235  0.00  0.00    +0.000 A 
ATOM     13  C   UNL     1      37.075   1.147  10.077  0.00  0.00    +0.000 A 
ATOM     14  C   UNL     1      37.817   0.864   8.935  0.00  0.00    +0.000 A 
ATOM     15  C   UNL     1      38.956  -0.926  10.082  0.00  0.00    +0.000 A 
ATOM     16  C   UNL     1      38.755  -0.167   8.935  0.00  0.00    +0.000 A 
BRANCH  14  17
ATOM     17  O   UNL     1      37.653   1.575   7.777  0.00  0.00    +0.000 OA
ATOM     18  H   UNL     1      36.719   1.834   7.706  0.00  0.00    +0.000 HD
ENDBRANCH  14  17
BRANCH  15  19
ATOM     19  O   UNL     1      39.876  -1.934  10.069  0.00  0.00    +0.000 OA
ATOM     20  H   UNL     1      39.906  -2.359  10.940  0.00  0.00    +0.000 HD
ENDBRANCH  15  19
BRANCH  16  21
ATOM     21  O   UNL     1      39.466  -0.417   7.794  0.00  0.00    +0.000 OA
ATOM     22  H   UNL     1      40.280  -0.859   8.102  0.00  0.00    +0.000 HD
ENDBRANCH  16  21
ENDBRANCH   3  11
BRANCH   7  23
ATOM     23  O   UNL     1      34.625   2.398  16.815  0.00  0.00    +0.000 OA
ATOM     24  H   UNL     1      35.304   3.085  16.713  0.00  0.00    +0.000 HD
ENDBRANCH   7  23
BRANCH  10  25
ATOM     25  O   UNL     1      35.615  -2.157  17.714  0.00  0.00    +0.000 OA
ATOM     26  H   UNL     1      36.415  -2.696  17.589  0.00  0.00    +0.000 HD
ENDBRANCH  10  25
BRANCH   2  27
ATOM     27  O   UNL     1      38.043   2.216  13.494  0.00  0.00    +0.000 OA
BRANCH  27  29
ATOM     28  O   UNL     1      38.635   4.374  14.005  0.00  0.00    +0.000 OA
ATOM     29  C   UNL     1      38.638   3.407  13.262  0.00  0.00    +0.000 C 
BRANCH  29  30
ATOM     30  C   UNL     1      39.282   3.394  11.924  0.00  0.00    +0.000 A 
ATOM     31  C   UNL     1      38.879   4.360  10.989  0.00  0.00    +0.000 A 
ATOM     32  C   UNL     1      40.275   2.456  11.590  0.00  0.00    +0.000 A 
ATOM     33  C   UNL     1      40.848   2.479  10.320  0.00  0.00    +0.000 A 
ATOM     34  C   UNL     1      39.459   4.366   9.727  0.00  0.00    +0.000 A 
ATOM     35  C   UNL     1      40.436   3.429   9.390  0.00  0.00    +0.000 A 
BRANCH  33  36
ATOM     36  O   UNL     1      41.812   1.574   9.978  0.00  0.00    +0.000 OA
ATOM     37  H   UNL     1      42.134   1.763   9.085  0.00  0.00    +0.000 HD
ENDBRANCH  33  36
BRANCH  34  38
ATOM     38  O   UNL     1      39.100   5.281   8.775  0.00  0.00    +0.000 OA
ATOM     39  H   UNL     1      39.272   4.900   7.896  0.00  0.00    +0.000 HD
ENDBRANCH  34  38
BRANCH  35  40
ATOM     40  O   UNL     1      40.985   3.465   8.137  0.00  0.00    +0.000 OA
ATOM     41  H   UNL     1      41.686   4.143   8.188  0.00  0.00    +0.000 HD
ENDBRANCH  35  40
ENDBRANCH  29  30
ENDBRANCH  27  29
ENDBRANCH   2  27
TORSDOF 12
ENDMDL
MODEL 4
REMARK VINA RESULT:      -8.5      1.790      6.316
REMARK  Name = 
REMARK  12 active torsions:
REMARK  status: ('A' for Active; 'I' for Inactive)
REMARK    1  A    between atoms: O_2  and  C_12
REMARK    2  A    between atoms: O_2  and  C_24
REMARK    3  A    between atoms: O_3  and  C_18
REMARK    4  A    between atoms: O_4  and  C_23
REMARK    5  A    between atoms: O_5  and  C_25
REMARK    6  A    between atoms: O_6  and  C_26
REMARK    7  A    between atoms: O_8  and  C_27
REMARK    8  A    between atoms: O_9  and  C_31
REMARK    9  A    between atoms: O_10  and  C_32
REMARK   10  A    between atoms: O_11  and  C_33
REMARK   11  A    between atoms: C_13  and  C_16
REMARK   12  A    between atoms: C_24  and  C_28
REMARK                            x       y       z     vdW  Elec       q    Type
REMARK                         _______ _______ _______ _____ _____    ______ ____
ROOT
ATOM      1  O   UNL     1      36.917  -0.380  13.465  0.00  0.00    +0.000 OA
ATOM      2  C   UNL     1      36.713   2.050  13.065  0.00  0.00    +0.000 C 
ATOM      3  C   UNL     1      36.586   0.627  12.493  0.00  0.00    +0.000 C 
ATOM      4  C   UNL     1      35.716   2.198  14.214  0.00  0.00    +0.000 C 
ATOM      5  C   UNL     1      35.718   0.980  15.103  0.00  0.00    +0.000 A 
ATOM      6  C   UNL     1      36.304  -0.220  14.680  0.00  0.00    +0.000 A 
ATOM      7  C   UNL     1      35.111   1.018  16.364  0.00  0.00    +0.000 A 
ATOM      8  C   UNL     1      36.324  -1.339  15.515  0.00  0.00    +0.000 A 
ATOM      9  C   UNL     1      35.114  -0.097  17.201  0.00  0.00    +0.000 A 
ATOM     10  C   UNL     1      35.726  -1.266  16.769  0.00  0.00    +0.000 A 
ENDROOT
BRANCH   3  11
ATOM     11  C   UNL     1      37.464   0.435  11.265  0.00  0.00    +0.000 A 
ATOM     12  C   UNL     1      37.171   1.136  10.078  0.00  0.00    +0.000 A 
ATOM     13  C   UNL     1      38.592  -0.407  11.300  0.00  0.00    +0.000 A 
ATOM     14  C   UNL     1      39.394  -0.539  10.171  0.00  0.00    +0.000 A 
ATOM     15  C   UNL     1      37.984   0.990   8.952  0.00  0.00    +0.000 A 
ATOM     16  C   UNL     1      39.094   0.154   9.000  0.00  0.00    +0.000 A 
BRANCH  14  17
ATOM     17  O   UNL     1      40.502  -1.344  10.167  0.00  0.00    +0.000 OA
ATOM     18  H   UNL     1      40.365  -2.057  10.814  0.00  0.00    +0.000 HD
ENDBRANCH  14  17
BRANCH  15  19
ATOM     19  O   UNL     1      37.700   1.666   7.800  0.00  0.00    +0.000 OA
ATOM     20  H   UNL     1      37.848   2.614   7.934  0.00  0.00    +0.000 HD
ENDBRANCH  15  19
BRANCH  16  21
ATOM     21  O   UNL     1      39.905  -0.000   7.910  0.00  0.00    +0.000 OA
ATOM     22  H   UNL     1      39.865   0.859   7.449  0.00  0.00    +0.000 HD
ENDBRANCH  16  21
ENDBRANCH   3  11
BRANCH   7  23
ATOM     23  O   UNL     1      34.511   2.177  16.767  0.00  0.00    +0.000 OA
ATOM     24  H   UNL     1      34.275   2.098  17.706  0.00  0.00    +0.000 HD
ENDBRANCH   7  23
BRANCH  10  25
ATOM     25  O   UNL     1      35.714  -2.337  17.613  0.00  0.00    +0.000 OA
ATOM     26  H   UNL     1      34.984  -2.928  17.361  0.00  0.00    +0.000 HD
ENDBRANCH  10  25
BRANCH   2  27
ATOM     27  O   UNL     1      38.054   2.252  13.576  0.00  0.00    +0.000 OA
BRANCH  27  29
ATOM     28  O   UNL     1      38.523   4.424  14.153  0.00  0.00    +0.000 OA
ATOM     29  C   UNL     1      38.593   3.476  13.387  0.00  0.00    +0.000 C 
BRANCH  29  30
ATOM     30  C   UNL     1      39.269   3.529  12.066  0.00  0.00    +0.000 A 
ATOM     31  C   UNL     1      40.387   2.703  11.866  0.00  0.00    +0.000 A 
ATOM     32  C   UNL     1      38.813   4.367  11.034  0.00  0.00    +0.000 A 
ATOM     33  C   UNL     1      39.484   4.386   9.813  0.00  0.00    +0.000 A 
ATOM     34  C   UNL     1      41.044   2.738  10.642  0.00  0.00    +0.000 A 
ATOM     35  C   UNL     1      40.600   3.577   9.621  0.00  0.00    +0.000 A 
BRANCH  33  36
ATOM     36  O   UNL     1      39.055   5.196   8.800  0.00  0.00    +0.000 OA
ATOM     37  H   UNL     1      38.612   5.974   9.170  0.00  0.00    +0.000 HD
ENDBRANCH  33  36
BRANCH  34  38
ATOM     38  O   UNL     1      42.142   1.959  10.394  0.00  0.00    +0.000 OA
ATOM     39  H   UNL     1      42.328   1.422  11.185  0.00  0.00    +0.000 HD
ENDBRANCH  34  38
BRANCH  35  40
ATOM     40  O   UNL     1      41.273   3.586   8.430  0.00  0.00    +0.000 OA
ATOM     41  H   UNL     1      41.000   2.763   7.979  0.00  0.00    +0.000 HD
ENDBRANCH  35  40
ENDBRANCH  29  30
ENDBRANCH  27  29
ENDBRANCH   2  27
TORSDOF 12
ENDMDL
MODEL 5
REMARK VINA RESULT:      -8.5     25.475     29.259
REMARK  Name = 
REMARK  12 active torsions:
REMARK  status: ('A' for Active; 'I' for Inactive)
REMARK    1  A    between atoms: O_2  and  C_12
REMARK    2  A    between atoms: O_2  and  C_24
REMARK    3  A    between atoms: O_3  and  C_18
REMARK    4  A    between atoms: O_4  and  C_23
REMARK    5  A    between atoms: O_5  and  C_25
REMARK    6  A    between atoms: O_6  and  C_26
REMARK    7  A    between atoms: O_8  and  C_27
REMARK    8  A    between atoms: O_9  and  C_31
REMARK    9  A    between atoms: O_10  and  C_32
REMARK   10  A    between atoms: O_11  and  C_33
REMARK   11  A    between atoms: C_13  and  C_16
REMARK   12  A    between atoms: C_24  and  C_28
REMARK                            x       y       z     vdW  Elec       q    Type
REMARK                         _______ _______ _______ _____ _____    ______ ____
ROOT
ATOM      1  O   UNL     1      33.270  -3.560  41.626  0.00  0.00    +0.000 OA
ATOM      2  C   UNL     1      35.542  -3.434  40.664  0.00  0.00    +0.000 C 
ATOM      3  C   UNL     1      34.520  -4.253  41.472  0.00  0.00    +0.000 C 
ATOM      4  C   UNL     1      34.981  -3.215  39.259  0.00  0.00    +0.000 C 
ATOM      5  C   UNL     1      33.520  -2.844  39.303  0.00  0.00    +0.000 A 
ATOM      6  C   UNL     1      32.762  -3.042  40.464  0.00  0.00    +0.000 A 
ATOM      7  C   UNL     1      32.885  -2.316  38.173  0.00  0.00    +0.000 A 
ATOM      8  C   UNL     1      31.415  -2.676  40.508  0.00  0.00    +0.000 A 
ATOM      9  C   UNL     1      31.538  -1.960  38.202  0.00  0.00    +0.000 A 
ATOM     10  C   UNL     1      30.815  -2.140  39.374  0.00  0.00    +0.000 A 
ENDROOT
BRANCH   3  11
ATOM     11  C   UNL     1      35.056  -4.616  42.850  0.00  0.00    +0.000 A 
ATOM     12  C   UNL     1      35.701  -5.853  43.047  0.00  0.00    +0.000 A 
ATOM     13  C   UNL     1      34.952  -3.721  43.932  0.00  0.00    +0.000 A 
ATOM     14  C   UNL     1      35.477  -4.067  45.172  0.00  0.00    +0.000 A 
ATOM     15  C   UNL     1      36.221  -6.188  44.299  0.00  0.00    +0.000 A 
ATOM     16  C   UNL     1      36.109  -5.295  45.359  0.00  0.00    +0.000 A 
BRANCH  14  17
ATOM     17  O   UNL     1      35.400  -3.222  46.247  0.00  0.00    +0.000 OA
ATOM     18  H   UNL     1      34.880  -3.658  46.943  0.00  0.00    +0.000 HD
ENDBRANCH  14  17
BRANCH  15  19
ATOM     19  O   UNL     1      36.844  -7.387  44.493  0.00  0.00    +0.000 OA
ATOM     20  H   UNL     1      37.670  -7.411  43.987  0.00  0.00    +0.000 HD
ENDBRANCH  15  19
BRANCH  16  21
ATOM     21  O   UNL     1      36.614  -5.601  46.592  0.00  0.00    +0.000 OA
ATOM     22  H   UNL     1      36.045  -5.118  47.220  0.00  0.00    +0.000 HD
ENDBRANCH  16  21
ENDBRANCH   3  11
BRANCH   7  23
ATOM     23  O   UNL     1      33.614  -2.152  37.029  0.00  0.00    +0.000 OA
ATOM     24  H   UNL     1      33.878  -3.027  36.698  0.00  0.00    +0.000 HD
ENDBRANCH   7  23
BRANCH  10  25
ATOM     25  O   UNL     1      29.500  -1.777  39.369  0.00  0.00    +0.000 OA
ATOM     26  H   UNL     1      29.209  -1.664  38.448  0.00  0.00    +0.000 HD
ENDBRANCH  10  25
BRANCH   2  27
ATOM     27  O   UNL     1      35.744  -2.146  41.296  0.00  0.00    +0.000 OA
BRANCH  27  29
ATOM     28  O   UNL     1      37.822  -1.823  42.216  0.00  0.00    +0.000 OA
ATOM     29  C   UNL     1      37.010  -1.676  41.317  0.00  0.00    +0.000 C 
BRANCH  29  30
ATOM     30  C   UNL     1      37.279  -0.902  40.079  0.00  0.00    +0.000 A 
ATOM     31  C   UNL     1      36.355   0.087  39.707  0.00  0.00    +0.000 A 
ATOM     32  C   UNL     1      38.425  -1.132  39.297  0.00  0.00    +0.000 A 
ATOM     33  C   UNL     1      38.632  -0.383  38.140  0.00  0.00    +0.000 A 
ATOM     34  C   UNL     1      36.577   0.821  38.548  0.00  0.00    +0.000 A 
ATOM     35  C   UNL     1      37.707   0.586  37.765  0.00  0.00    +0.000 A 
BRANCH  33  36
ATOM     36  O   UNL     1      39.738  -0.595  37.367  0.00  0.00    +0.000 OA
ATOM     37  H   UNL     1      40.313  -1.249  37.792  0.00  0.00    +0.000 HD
ENDBRANCH  33  36
BRANCH  34  38
ATOM     38  O   UNL     1      35.706   1.792  38.135  0.00  0.00    +0.000 OA
ATOM     39  H   UNL     1      34.944   1.806  38.742  0.00  0.00    +0.000 HD
ENDBRANCH  34  38
BRANCH  35  40
ATOM     40  O   UNL     1      37.893   1.328  36.630  0.00  0.00    +0.000 OA
ATOM     41  H   UNL     1      38.845   1.545  36.623  0.00  0.00    +0.000 HD
ENDBRANCH  35  40
ENDBRANCH  29  30
ENDBRANCH  27  29
ENDBRANCH   2  27
TORSDOF 12
ENDMDL
MODEL 6
REMARK VINA RESULT:      -8.5     25.521     29.278
REMARK  Name = 
REMARK  12 active torsions:
REMARK  status: ('A' for Active; 'I' for Inactive)
REMARK    1  A    between atoms: O_2  and  C_12
REMARK    2  A    between atoms: O_2  and  C_24
REMARK    3  A    between atoms: O_3  and  C_18
REMARK    4  A    between atoms: O_4  and  C_23
REMARK    5  A    between atoms: O_5  and  C_25
REMARK    6  A    between atoms: O_6  and  C_26
REMARK    7  A    between atoms: O_8  and  C_27
REMARK    8  A    between atoms: O_9  and  C_31
REMARK    9  A    between atoms: O_10  and  C_32
REMARK   10  A    between atoms: O_11  and  C_33
REMARK   11  A    between atoms: C_13  and  C_16
REMARK   12  A    between atoms: C_24  and  C_28
REMARK                            x       y       z     vdW  Elec       q    Type
REMARK                         _______ _______ _______ _____ _____    ______ ____
ROOT
ATOM      1  O   UNL     1      33.311  -3.577  41.610  0.00  0.00    +0.000 OA
ATOM      2  C   UNL     1      35.577  -3.399  40.639  0.00  0.00    +0.000 C 
ATOM      3  C   UNL     1      34.572  -4.248  41.438  0.00  0.00    +0.000 C 
ATOM      4  C   UNL     1      35.005  -3.163  39.241  0.00  0.00    +0.000 C 
ATOM      5  C   UNL     1      33.539  -2.816  39.299  0.00  0.00    +0.000 A 
ATOM      6  C   UNL     1      32.789  -3.045  40.461  0.00  0.00    +0.000 A 
ATOM      7  C   UNL     1      32.890  -2.278  38.182  0.00  0.00    +0.000 A 
ATOM      8  C   UNL     1      31.437  -2.702  40.517  0.00  0.00    +0.000 A 
ATOM      9  C   UNL     1      31.538  -1.942  38.224  0.00  0.00    +0.000 A 
ATOM     10  C   UNL     1      30.823  -2.154  39.396  0.00  0.00    +0.000 A 
ENDROOT
BRANCH   3  11
ATOM     11  C   UNL     1      35.120  -4.627  42.806  0.00  0.00    +0.000 A 
ATOM     12  C   UNL     1      34.995  -3.728  43.884  0.00  0.00    +0.000 A 
ATOM     13  C   UNL     1      35.722  -5.880  43.028  0.00  0.00    +0.000 A 
ATOM     14  C   UNL     1      36.188  -6.211  44.297  0.00  0.00    +0.000 A 
ATOM     15  C   UNL     1      35.470  -4.074  45.151  0.00  0.00    +0.000 A 
ATOM     16  C   UNL     1      36.064  -5.314  45.355  0.00  0.00    +0.000 A 
BRANCH  14  17
ATOM     17  O   UNL     1      36.774  -7.421  44.554  0.00  0.00    +0.000 OA
ATOM     18  H   UNL     1      36.776  -7.941  43.732  0.00  0.00    +0.000 HD
ENDBRANCH  14  17
BRANCH  15  19
ATOM     19  O   UNL     1      35.352  -3.203  46.197  0.00  0.00    +0.000 OA
ATOM     20  H   UNL     1      36.196  -2.749  46.338  0.00  0.00    +0.000 HD
ENDBRANCH  15  19
BRANCH  16  21
ATOM     21  O   UNL     1      36.532  -5.673  46.589  0.00  0.00    +0.000 OA
ATOM     22  H   UNL     1      35.733  -5.909  47.098  0.00  0.00    +0.000 HD
ENDBRANCH  16  21
ENDBRANCH   3  11
BRANCH   7  23
ATOM     23  O   UNL     1      33.610  -2.082  37.038  0.00  0.00    +0.000 OA
ATOM     24  H   UNL     1      33.549  -2.882  36.488  0.00  0.00    +0.000 HD
ENDBRANCH   7  23
BRANCH  10  25
ATOM     25  O   UNL     1      29.504  -1.811  39.404  0.00  0.00    +0.000 OA
ATOM     26  H   UNL     1      29.094  -2.118  38.578  0.00  0.00    +0.000 HD
ENDBRANCH  10  25
BRANCH   2  27
ATOM     27  O   UNL     1      35.762  -2.119  41.293  0.00  0.00    +0.000 OA
BRANCH  27  29
ATOM     28  O   UNL     1      37.881  -1.772  42.104  0.00  0.00    +0.000 OA
ATOM     29  C   UNL     1      37.011  -1.604  41.266  0.00  0.00    +0.000 C 
BRANCH  29  30
ATOM     30  C   UNL     1      37.175  -0.748  40.064  0.00  0.00    +0.000 A 
ATOM     31  C   UNL     1      38.337  -0.913  39.293  0.00  0.00    +0.000 A 
ATOM     32  C   UNL     1      36.203   0.196  39.689  0.00  0.00    +0.000 A 
ATOM     33  C   UNL     1      36.404   0.980  38.554  0.00  0.00    +0.000 A 
ATOM     34  C   UNL     1      38.521  -0.121  38.167  0.00  0.00    +0.000 A 
ATOM     35  C   UNL     1      37.563   0.825  37.800  0.00  0.00    +0.000 A 
BRANCH  33  36
ATOM     36  O   UNL     1      35.471   1.903  38.177  0.00  0.00    +0.000 OA
ATOM     37  H   UNL     1      34.601   1.482  38.117  0.00  0.00    +0.000 HD
ENDBRANCH  33  36
BRANCH  34  38
ATOM     38  O   UNL     1      39.636  -0.235  37.382  0.00  0.00    +0.000 OA
ATOM     39  H   UNL     1      39.464  -0.899  36.691  0.00  0.00    +0.000 HD
ENDBRANCH  34  38
BRANCH  35  40
ATOM     40  O   UNL     1      37.778   1.588  36.685  0.00  0.00    +0.000 OA
ATOM     41  H   UNL     1      37.308   2.427  36.857  0.00  0.00    +0.000 HD
ENDBRANCH  35  40
ENDBRANCH  29  30
ENDBRANCH  27  29
ENDBRANCH   2  27
TORSDOF 12
ENDMDL
MODEL 7
REMARK VINA RESULT:      -8.3      2.063      7.395
REMARK  Name = 
REMARK  12 active torsions:
REMARK  status: ('A' for Active; 'I' for Inactive)
REMARK    1  A    between atoms: O_2  and  C_12
REMARK    2  A    between atoms: O_2  and  C_24
REMARK    3  A    between atoms: O_3  and  C_18
REMARK    4  A    between atoms: O_4  and  C_23
REMARK    5  A    between atoms: O_5  and  C_25
REMARK    6  A    between atoms: O_6  and  C_26
REMARK    7  A    between atoms: O_8  and  C_27
REMARK    8  A    between atoms: O_9  and  C_31
REMARK    9  A    between atoms: O_10  and  C_32
REMARK   10  A    between atoms: O_11  and  C_33
REMARK   11  A    between atoms: C_13  and  C_16
REMARK   12  A    between atoms: C_24  and  C_28
REMARK                            x       y       z     vdW  Elec       q    Type
REMARK                         _______ _______ _______ _____ _____    ______ ____
ROOT
ATOM      1  O   UNL     1      37.391  -0.571  13.043  0.00  0.00    +0.000 OA
ATOM      2  C   UNL     1      36.815   1.774  12.520  0.00  0.00    +0.000 C 
ATOM      3  C   UNL     1      36.858   0.313  12.041  0.00  0.00    +0.000 C 
ATOM      4  C   UNL     1      35.882   1.859  13.727  0.00  0.00    +0.000 C 
ATOM      5  C   UNL     1      36.115   0.715  14.682  0.00  0.00    +0.000 A 
ATOM      6  C   UNL     1      36.840  -0.417  14.287  0.00  0.00    +0.000 A 
ATOM      7  C   UNL     1      35.589   0.752  15.979  0.00  0.00    +0.000 A 
ATOM      8  C   UNL     1      37.072  -1.464  15.181  0.00  0.00    +0.000 A 
ATOM      9  C   UNL     1      35.805  -0.293  16.876  0.00  0.00    +0.000 A 
ATOM     10  C   UNL     1      36.550  -1.392  16.469  0.00  0.00    +0.000 A 
ENDROOT
BRANCH   3  11
ATOM     11  C   UNL     1      37.676   0.163  10.766  0.00  0.00    +0.000 A 
ATOM     12  C   UNL     1      37.464   1.049   9.691  0.00  0.00    +0.000 A 
ATOM     13  C   UNL     1      38.671  -0.826  10.650  0.00  0.00    +0.000 A 
ATOM     14  C   UNL     1      39.424  -0.919   9.484  0.00  0.00    +0.000 A 
ATOM     15  C   UNL     1      38.226   0.941   8.525  0.00  0.00    +0.000 A 
ATOM     16  C   UNL     1      39.204  -0.042   8.424  0.00  0.00    +0.000 A 
BRANCH  14  17
ATOM     17  O   UNL     1      40.404  -1.864   9.335  0.00  0.00    +0.000 OA
ATOM     18  H   UNL     1      40.673  -2.167  10.218  0.00  0.00    +0.000 HD
ENDBRANCH  14  17
BRANCH  15  19
ATOM     19  O   UNL     1      38.021   1.797   7.481  0.00  0.00    +0.000 OA
ATOM     20  H   UNL     1      38.256   2.698   7.748  0.00  0.00    +0.000 HD
ENDBRANCH  15  19
BRANCH  16  21
ATOM     21  O   UNL     1      39.963  -0.162   7.293  0.00  0.00    +0.000 OA
ATOM     22  H   UNL     1      39.315  -0.211   6.564  0.00  0.00    +0.000 HD
ENDBRANCH  16  21
ENDBRANCH   3  11
BRANCH   7  23
ATOM     23  O   UNL     1      34.855   1.841  16.357  0.00  0.00    +0.000 OA
ATOM     24  H   UNL     1      34.978   1.985  17.311  0.00  0.00    +0.000 HD
ENDBRANCH   7  23
BRANCH  10  25
ATOM     25  O   UNL     1      36.746  -2.395  17.372  0.00  0.00    +0.000 OA
ATOM     26  H   UNL     1      36.463  -2.086  18.249  0.00  0.00    +0.000 HD
ENDBRANCH  10  25
BRANCH   2  27
ATOM     27  O   UNL     1      38.143   2.195  12.921  0.00  0.00    +0.000 OA
BRANCH  27  29
ATOM     28  O   UNL     1      38.296   4.068  11.603  0.00  0.00    +0.000 OA
ATOM     29  C   UNL     1      38.474   3.478  12.656  0.00  0.00    +0.000 C 
BRANCH  29  30
ATOM     30  C   UNL     1      39.138   4.080  13.839  0.00  0.00    +0.000 A 
ATOM     31  C   UNL     1      38.425   4.115  15.048  0.00  0.00    +0.000 A 
ATOM     32  C   UNL     1      40.444   4.596  13.772  0.00  0.00    +0.000 A 
ATOM     33  C   UNL     1      41.024   5.157  14.908  0.00  0.00    +0.000 A 
ATOM     34  C   UNL     1      39.018   4.680  16.170  0.00  0.00    +0.000 A 
ATOM     35  C   UNL     1      40.310   5.203  16.102  0.00  0.00    +0.000 A 
BRANCH  33  36
ATOM     36  O   UNL     1      42.291   5.664  14.860  0.00  0.00    +0.000 OA
ATOM     37  H   UNL     1      42.931   4.961  15.045  0.00  0.00    +0.000 HD
ENDBRANCH  33  36
BRANCH  34  38
ATOM     38  O   UNL     1      38.367   4.746  17.371  0.00  0.00    +0.000 OA
ATOM     39  H   UNL     1      37.743   5.494  17.347  0.00  0.00    +0.000 HD
ENDBRANCH  34  38
BRANCH  35  40
ATOM     40  O   UNL     1      40.862   5.753  17.226  0.00  0.00    +0.000 OA
ATOM     41  H   UNL     1      40.356   6.573  17.383  0.00  0.00    +0.000 HD
ENDBRANCH  35  40
ENDBRANCH  29  30
ENDBRANCH  27  29
ENDBRANCH   2  27
TORSDOF 12
ENDMDL
MODEL 8
REMARK VINA RESULT:      -8.2      1.970      5.947
REMARK  Name = 
REMARK  12 active torsions:
REMARK  status: ('A' for Active; 'I' for Inactive)
REMARK    1  A    between atoms: O_2  and  C_12
REMARK    2  A    between atoms: O_2  and  C_24
REMARK    3  A    between atoms: O_3  and  C_18
REMARK    4  A    between atoms: O_4  and  C_23
REMARK    5  A    between atoms: O_5  and  C_25
REMARK    6  A    between atoms: O_6  and  C_26
REMARK    7  A    between atoms: O_8  and  C_27
REMARK    8  A    between atoms: O_9  and  C_31
REMARK    9  A    between atoms: O_10  and  C_32
REMARK   10  A    between atoms: O_11  and  C_33
REMARK   11  A    between atoms: C_13  and  C_16
REMARK   12  A    between atoms: C_24  and  C_28
REMARK                            x       y       z     vdW  Elec       q    Type
REMARK                         _______ _______ _______ _____ _____    ______ ____
ROOT
ATOM      1  O   UNL     1      37.637   2.597  13.335  0.00  0.00    +0.000 OA
ATOM      2  C   UNL     1      37.986   0.402  12.254  0.00  0.00    +0.000 C 
ATOM      3  C   UNL     1      38.616   1.709  12.768  0.00  0.00    +0.000 C 
ATOM      4  C   UNL     1      37.359  -0.329  13.441  0.00  0.00    +0.000 C 
ATOM      5  C   UNL     1      36.604   0.621  14.335  0.00  0.00    +0.000 A 
ATOM      6  C   UNL     1      36.789   2.006  14.234  0.00  0.00    +0.000 A 
ATOM      7  C   UNL     1      35.716   0.135  15.303  0.00  0.00    +0.000 A 
ATOM      8  C   UNL     1      36.071   2.884  15.049  0.00  0.00    +0.000 A 
ATOM      9  C   UNL     1      35.003   1.002  16.129  0.00  0.00    +0.000 A 
ATOM     10  C   UNL     1      35.185   2.372  15.991  0.00  0.00    +0.000 A 
ENDROOT
BRANCH   3  11
ATOM     11  C   UNL     1      39.366   2.442  11.663  0.00  0.00    +0.000 A 
ATOM     12  C   UNL     1      40.637   1.989  11.261  0.00  0.00    +0.000 A 
ATOM     13  C   UNL     1      38.796   3.550  11.007  0.00  0.00    +0.000 A 
ATOM     14  C   UNL     1      39.491   4.181   9.981  0.00  0.00    +0.000 A 
ATOM     15  C   UNL     1      41.325   2.636  10.232  0.00  0.00    +0.000 A 
ATOM     16  C   UNL     1      40.751   3.730   9.594  0.00  0.00    +0.000 A 
BRANCH  14  17
ATOM     17  O   UNL     1      38.969   5.258   9.315  0.00  0.00    +0.000 OA
ATOM     18  H   UNL     1      39.705   5.783   8.957  0.00  0.00    +0.000 HD
ENDBRANCH  14  17
BRANCH  15  19
ATOM     19  O   UNL     1      42.559   2.201   9.842  0.00  0.00    +0.000 OA
ATOM     20  H   UNL     1      43.189   2.314  10.569  0.00  0.00    +0.000 HD
ENDBRANCH  15  19
BRANCH  16  21
ATOM     21  O   UNL     1      41.406   4.375   8.581  0.00  0.00    +0.000 OA
ATOM     22  H   UNL     1      41.444   3.722   7.856  0.00  0.00    +0.000 HD
ENDBRANCH  16  21
ENDBRANCH   3  11
BRANCH   7  23
ATOM     23  O   UNL     1      35.557  -1.216  15.425  0.00  0.00    +0.000 OA
ATOM     24  H   UNL     1      35.228  -1.414  16.317  0.00  0.00    +0.000 HD
ENDBRANCH   7  23
BRANCH  10  25
ATOM     25  O   UNL     1      34.469   3.192  16.812  0.00  0.00    +0.000 OA
ATOM     26  H   UNL     1      34.223   3.993  16.320  0.00  0.00    +0.000 HD
ENDBRANCH  10  25
BRANCH   2  27
ATOM     27  O   UNL     1      36.949   0.708  11.289  0.00  0.00    +0.000 OA
BRANCH  27  29
ATOM     28  O   UNL     1      35.969  -0.969  10.065  0.00  0.00    +0.000 OA
ATOM     29  C   UNL     1      36.840  -0.132  10.236  0.00  0.00    +0.000 C 
BRANCH  29  30
ATOM     30  C   UNL     1      37.977   0.080   9.304  0.00  0.00    +0.000 A 
ATOM     31  C   UNL     1      37.924   1.188   8.444  0.00  0.00    +0.000 A 
ATOM     32  C   UNL     1      39.083  -0.786   9.278  0.00  0.00    +0.000 A 
ATOM     33  C   UNL     1      40.125  -0.549   8.383  0.00  0.00    +0.000 A 
ATOM     34  C   UNL     1      38.970   1.407   7.556  0.00  0.00    +0.000 A 
ATOM     35  C   UNL     1      40.064   0.542   7.520  0.00  0.00    +0.000 A 
BRANCH  33  36
ATOM     36  O   UNL     1      41.207  -1.381   8.343  0.00  0.00    +0.000 OA
ATOM     37  H   UNL     1      41.939  -0.989   8.841  0.00  0.00    +0.000 HD
ENDBRANCH  33  36
BRANCH  34  38
ATOM     38  O   UNL     1      38.969   2.467   6.691  0.00  0.00    +0.000 OA
ATOM     39  H   UNL     1      38.049   2.661   6.437  0.00  0.00    +0.000 HD
ENDBRANCH  34  38
BRANCH  35  40
ATOM     40  O   UNL     1      41.076   0.788   6.633  0.00  0.00    +0.000 OA
ATOM     41  H   UNL     1      41.626   1.473   7.059  0.00  0.00    +0.000 HD
ENDBRANCH  35  40
ENDBRANCH  29  30
ENDBRANCH  27  29
ENDBRANCH   2  27
TORSDOF 12
ENDMDL
MODEL 9
REMARK VINA RESULT:      -8.1      1.967      5.997
REMARK  Name = 
REMARK  12 active torsions:
REMARK  status: ('A' for Active; 'I' for Inactive)
REMARK    1  A    between atoms: O_2  and  C_12
REMARK    2  A    between atoms: O_2  and  C_24
REMARK    3  A    between atoms: O_3  and  C_18
REMARK    4  A    between atoms: O_4  and  C_23
REMARK    5  A    between atoms: O_5  and  C_25
REMARK    6  A    between atoms: O_6  and  C_26
REMARK    7  A    between atoms: O_8  and  C_27
REMARK    8  A    between atoms: O_9  and  C_31
REMARK    9  A    between atoms: O_10  and  C_32
REMARK   10  A    between atoms: O_11  and  C_33
REMARK   11  A    between atoms: C_13  and  C_16
REMARK   12  A    between atoms: C_24  and  C_28
REMARK                            x       y       z     vdW  Elec       q    Type
REMARK                         _______ _______ _______ _____ _____    ______ ____
ROOT
ATOM      1  O   UNL     1      37.662   2.548  13.302  0.00  0.00    +0.000 OA
ATOM      2  C   UNL     1      38.001   0.345  12.234  0.00  0.00    +0.000 C 
ATOM      3  C   UNL     1      38.637   1.651  12.742  0.00  0.00    +0.000 C 
ATOM      4  C   UNL     1      37.367  -0.376  13.424  0.00  0.00    +0.000 C 
ATOM      5  C   UNL     1      36.615   0.584  14.311  0.00  0.00    +0.000 A 
ATOM      6  C   UNL     1      36.809   1.967  14.203  0.00  0.00    +0.000 A 
ATOM      7  C   UNL     1      35.723   0.109  15.279  0.00  0.00    +0.000 A 
ATOM      8  C   UNL     1      36.094   2.854  15.010  0.00  0.00    +0.000 A 
ATOM      9  C   UNL     1      35.013   0.984  16.099  0.00  0.00    +0.000 A 
ATOM     10  C   UNL     1      35.202   2.353  15.953  0.00  0.00    +0.000 A 
ENDROOT
BRANCH   3  11
ATOM     11  C   UNL     1      39.393   2.374  11.635  0.00  0.00    +0.000 A 
ATOM     12  C   UNL     1      38.823   3.506  11.022  0.00  0.00    +0.000 A 
ATOM     13  C   UNL     1      40.675   1.953  11.234  0.00  0.00    +0.000 A 
ATOM     14  C   UNL     1      41.355   2.650  10.241  0.00  0.00    +0.000 A 
ATOM     15  C   UNL     1      39.516   4.195  10.024  0.00  0.00    +0.000 A 
ATOM     16  C   UNL     1      40.781   3.766   9.636  0.00  0.00    +0.000 A 
BRANCH  14  17
ATOM     17  O   UNL     1      42.605   2.275   9.827  0.00  0.00    +0.000 OA
ATOM     18  H   UNL     1      42.733   2.590   8.916  0.00  0.00    +0.000 HD
ENDBRANCH  14  17
BRANCH  15  19
ATOM     19  O   UNL     1      38.964   5.291   9.426  0.00  0.00    +0.000 OA
ATOM     20  H   UNL     1      38.171   5.029   8.935  0.00  0.00    +0.000 HD
ENDBRANCH  15  19
BRANCH  16  21
ATOM     21  O   UNL     1      41.479   4.428   8.664  0.00  0.00    +0.000 OA
ATOM     22  H   UNL     1      41.678   5.301   9.053  0.00  0.00    +0.000 HD
ENDBRANCH  16  21
ENDBRANCH   3  11
BRANCH   7  23
ATOM     23  O   UNL     1      35.555  -1.241  15.409  0.00  0.00    +0.000 OA
ATOM     24  H   UNL     1      35.223  -1.431  16.302  0.00  0.00    +0.000 HD
ENDBRANCH   7  23
BRANCH  10  25
ATOM     25  O   UNL     1      34.490   3.181  16.768  0.00  0.00    +0.000 OA
ATOM     26  H   UNL     1      34.892   4.066  16.746  0.00  0.00    +0.000 HD
ENDBRANCH  10  25
BRANCH   2  27
ATOM     27  O   UNL     1      36.967   0.651  11.265  0.00  0.00    +0.000 OA
BRANCH  27  29
ATOM     28  O   UNL     1      36.036  -1.047  10.032  0.00  0.00    +0.000 OA
ATOM     29  C   UNL     1      36.875  -0.177  10.202  0.00  0.00    +0.000 C 
BRANCH  29  30
ATOM     30  C   UNL     1      37.987   0.094   9.255  0.00  0.00    +0.000 A 
ATOM     31  C   UNL     1      39.057  -0.814   9.220  0.00  0.00    +0.000 A 
ATOM     32  C   UNL     1      37.979   1.215   8.407  0.00  0.00    +0.000 A 
ATOM     33  C   UNL     1      39.048   1.430   7.539  0.00  0.00    +0.000 A 
ATOM     34  C   UNL     1      40.115  -0.581   8.350  0.00  0.00    +0.000 A 
ATOM     35  C   UNL     1      40.115   0.537   7.516  0.00  0.00    +0.000 A 
BRANCH  33  36
ATOM     36  O   UNL     1      39.059   2.515   6.709  0.00  0.00    +0.000 OA
ATOM     37  H   UNL     1      38.775   2.249   5.822  0.00  0.00    +0.000 HD
ENDBRANCH  33  36
BRANCH  34  38
ATOM     38  O   UNL     1      41.186  -1.429   8.279  0.00  0.00    +0.000 OA
ATOM     39  H   UNL     1      41.339  -1.813   9.161  0.00  0.00    +0.000 HD
ENDBRANCH  34  38
BRANCH  35  40
ATOM     40  O   UNL     1      41.174   0.734   6.673  0.00  0.00    +0.000 OA
ATOM     41  H   UNL     1      40.998   0.157   5.905  0.00  0.00    +0.000 HD
ENDBRANCH  35  40
ENDBRANCH  29  30
ENDBRANCH  27  29
ENDBRANCH   2  27
TORSDOF 12
ENDMDL
