REMARK  Name = 
REMARK  12 active torsions:
REMARK  status: ('A' for Active; 'I' for Inactive)
REMARK    1  A    between atoms: O_2  and  C_12
REMARK    2  A    between atoms: O_2  and  C_24
REMARK    3  A    between atoms: O_3  and  C_18
REMARK    4  A    between atoms: O_4  and  C_23
REMARK    5  A    between atoms: O_5  and  C_25
REMARK    6  A    between atoms: O_6  and  C_26
REMARK    7  A    between atoms: O_8  and  C_27
REMARK    8  A    between atoms: O_9  and  C_31
REMARK    9  A    between atoms: O_10  and  C_32
REMARK   10  A    between atoms: O_11  and  C_33
REMARK   11  A    between atoms: C_13  and  C_16
REMARK   12  A    between atoms: C_24  and  C_28
REMARK                            x       y       z     vdW  Elec       q    Type
REMARK                         _______ _______ _______ _____ _____    ______ ____
ROOT
ATOM      1  O   UNL     1      -1.050  -2.071  -0.572  0.00  0.00    +0.000 OA
ATOM      2  C   UNL     1      -0.535  -0.880   1.531  0.00  0.00    +0.000 C 
ATOM      3  C   UNL     1      -1.616  -1.430   0.584  0.00  0.00    +0.000 C 
ATOM      4  C   UNL     1       0.302  -2.053   2.040  0.00  0.00    +0.000 C 
ATOM      5  C   UNL     1       0.633  -3.015   0.927  0.00  0.00    +0.000 A 
ATOM      6  C   UNL     1      -0.056  -2.971  -0.292  0.00  0.00    +0.000 A 
ATOM      7  C   UNL     1       1.623  -3.990   1.099  0.00  0.00    +0.000 A 
ATOM      8  C   UNL     1       0.269  -3.849  -1.328  0.00  0.00    +0.000 A 
ATOM      9  C   UNL     1       1.947  -4.879   0.076  0.00  0.00    +0.000 A 
ATOM     10  C   UNL     1       1.268  -4.797  -1.133  0.00  0.00    +0.000 A 
ENDROOT
BRANCH   3  11
ATOM     11  C   UNL     1      -2.569  -0.335   0.124  0.00  0.00    +0.000 A 
ATOM     12  C   UNL     1      -3.776  -0.121   0.818  0.00  0.00    +0.000 A 
ATOM     13  C   UNL     1      -2.251   0.497  -0.966  0.00  0.00    +0.000 A 
ATOM     14  C   UNL     1      -3.127   1.509  -1.345  0.00  0.00    +0.000 A 
ATOM     15  C   UNL     1      -4.647   0.897   0.424  0.00  0.00    +0.000 A 
ATOM     16  C   UNL     1      -4.321   1.710  -0.656  0.00  0.00    +0.000 A 
BRANCH  14  17
ATOM     17  O   UNL     1      -2.851   2.342  -2.396  0.00  0.00    +0.000 OA
ATOM     18  H   UNL     1      -1.987   2.092  -2.766  0.00  0.00    +0.000 HD
ENDBRANCH  14  17
BRANCH  15  19
ATOM     19  O   UNL     1      -5.819   1.105   1.093  0.00  0.00    +0.000 OA
ATOM     20  H   UNL     1      -5.909   0.452   1.803  0.00  0.00    +0.000 HD
ENDBRANCH  15  19
BRANCH  16  21
ATOM     21  O   UNL     1      -5.158   2.715  -1.056  0.00  0.00    +0.000 OA
ATOM     22  H   UNL     1      -4.706   3.125  -1.818  0.00  0.00    +0.000 HD
ENDBRANCH  16  21
ENDBRANCH   3  11
BRANCH   7  23
ATOM     23  O   UNL     1       2.275  -4.056   2.298  0.00  0.00    +0.000 OA
ATOM     24  H   UNL     1       2.933  -4.770   2.258  0.00  0.00    +0.000 HD
ENDBRANCH   7  23
BRANCH  10  25
ATOM     25  O   UNL     1       1.612  -5.679  -2.114  0.00  0.00    +0.000 OA
ATOM     26  H   UNL     1       1.042  -5.527  -2.887  0.00  0.00    +0.000 HD
ENDBRANCH  10  25
BRANCH   2  27
ATOM     27  O   UNL     1       0.327   0.034   0.808  0.00  0.00    +0.000 OA
BRANCH  27  29
ATOM     28  O   UNL     1       0.784   1.198   2.733  0.00  0.00    +0.000 OA
ATOM     29  C   UNL     1       0.921   1.005   1.536  0.00  0.00    +0.000 C 
BRANCH  29  30
ATOM     30  C   UNL     1       1.758   1.855   0.652  0.00  0.00    +0.000 A 
ATOM     31  C   UNL     1       2.161   3.110   1.135  0.00  0.00    +0.000 A 
ATOM     32  C   UNL     1       2.152   1.428  -0.628  0.00  0.00    +0.000 A 
ATOM     33  C   UNL     1       2.934   2.263  -1.424  0.00  0.00    +0.000 A 
ATOM     34  C   UNL     1       2.938   3.930   0.326  0.00  0.00    +0.000 A 
ATOM     35  C   UNL     1       3.320   3.513  -0.949  0.00  0.00    +0.000 A 
BRANCH  33  36
ATOM     36  O   UNL     1       3.324   1.865  -2.671  0.00  0.00    +0.000 OA
ATOM     37  H   UNL     1       3.105   0.930  -2.798  0.00  0.00    +0.000 HD
ENDBRANCH  33  36
BRANCH  34  38
ATOM     38  O   UNL     1       3.354   5.165   0.743  0.00  0.00    +0.000 OA
ATOM     39  H   UNL     1       3.020   5.318   1.645  0.00  0.00    +0.000 HD
ENDBRANCH  34  38
BRANCH  35  40
ATOM     40  O   UNL     1       4.085   4.347  -1.718  0.00  0.00    +0.000 OA
ATOM     41  H   UNL     1       4.222   5.143  -1.169  0.00  0.00    +0.000 HD
ENDBRANCH  35  40
ENDBRANCH  29  30
ENDBRANCH  27  29
ENDBRANCH   2  27
TORSDOF 12
