MODEL 1
REMARK VINA RESULT:      -6.4      0.000      0.000
REMARK  Name = Estradiol.pdbqt.pdb
REMARK  2 active torsions:
REMARK  status: ('A' for Active; 'I' for Inactive)
REMARK    1  A    between atoms: C_5  and  O_19
REMARK    2  A    between atoms: C_18  and  O_21
REMARK                            x       y       z     vdW  Elec       q    Type
REMARK                         _______ _______ _______ _____ _____    ______ ____
ROOT
ATOM      1  C   UNL     1      24.074  23.479  27.432  0.00  0.00    +0.000 C 
ATOM      2  C   UNL     1      25.239  24.495  26.996  0.00  0.00    +0.000 C 
ATOM      3  C   UNL     1      26.607  24.367  27.522  0.00  0.00    +0.000 A 
ATOM      4  C   UNL     1      27.163  23.194  28.299  0.00  0.00    +0.000 A 
ATOM      5  C   UNL     1      23.374  23.169  26.093  0.00  0.00    +0.000 C 
ATOM      6  C   UNL     1      24.747  22.327  28.033  0.00  0.00    +0.000 C 
ATOM      7  C   UNL     1      25.028  24.799  25.612  0.00  0.00    +0.000 C 
ATOM      8  C   UNL     1      26.184  22.183  28.472  0.00  0.00    +0.000 C 
ATOM      9  C   UNL     1      23.907  23.966  25.045  0.00  0.00    +0.000 C 
ATOM     10  C   UNL     1      27.596  25.360  27.302  0.00  0.00    +0.000 A 
ATOM     11  C   UNL     1      23.107  24.215  28.396  0.00  0.00    +0.000 C 
ATOM     12  C   UNL     1      28.571  23.111  28.813  0.00  0.00    +0.000 A 
ATOM     13  C   UNL     1      29.014  25.267  27.809  0.00  0.00    +0.000 A 
ATOM     14  C   UNL     1      29.505  24.162  28.564  0.00  0.00    +0.000 A 
ATOM     15  C   UNL     1      29.000  22.007  29.550  0.00  0.00    +0.000 A 
ATOM     16  C   UNL     1      30.809  24.109  29.039  0.00  0.00    +0.000 A 
ATOM     17  C   UNL     1      30.308  21.947  30.030  0.00  0.00    +0.000 A 
ATOM     18  C   UNL     1      31.195  22.994  29.772  0.00  0.00    +0.000 A 
ENDROOT
BRANCH   5  19
ATOM     19  O   UNL     1      22.703  21.989  25.855  0.00  0.00    +0.000 OA
ATOM     20  H   UNL     1      22.779  21.712  24.924  0.00  0.00    +0.000 HD
ENDBRANCH   5  19
BRANCH  18  21
ATOM     21  O   UNL     1      32.477  22.945  30.243  0.00  0.00    +0.000 OA
ATOM     22  H   UNL     1      32.448  22.719  31.189  0.00  0.00    +0.000 HD
ENDBRANCH  18  21
TORSDOF 2
ENDMDL
MODEL 2
REMARK VINA RESULT:      -6.1     22.395     24.450
REMARK  Name = Estradiol.pdbqt.pdb
REMARK  2 active torsions:
REMARK  status: ('A' for Active; 'I' for Inactive)
REMARK    1  A    between atoms: C_5  and  O_19
REMARK    2  A    between atoms: C_18  and  O_21
REMARK                            x       y       z     vdW  Elec       q    Type
REMARK                         _______ _______ _______ _____ _____    ______ ____
ROOT
ATOM      1  C   UNL     1      16.629   3.998  41.032  0.00  0.00    +0.000 C 
ATOM      2  C   UNL     1      16.630   2.922  39.840  0.00  0.00    +0.000 C 
ATOM      3  C   UNL     1      17.183   3.243  38.515  0.00  0.00    +0.000 A 
ATOM      4  C   UNL     1      18.013   4.457  38.160  0.00  0.00    +0.000 A 
ATOM      5  C   UNL     1      17.087   3.162  42.245  0.00  0.00    +0.000 C 
ATOM      6  C   UNL     1      17.577   5.040  40.636  0.00  0.00    +0.000 C 
ATOM      7  C   UNL     1      16.887   1.644  40.434  0.00  0.00    +0.000 C 
ATOM      8  C   UNL     1      18.213   5.290  39.290  0.00  0.00    +0.000 C 
ATOM      9  C   UNL     1      17.200   1.788  41.902  0.00  0.00    +0.000 C 
ATOM     10  C   UNL     1      17.021   2.381  37.400  0.00  0.00    +0.000 A 
ATOM     11  C   UNL     1      15.180   4.511  41.238  0.00  0.00    +0.000 C 
ATOM     12  C   UNL     1      18.558   4.738  36.789  0.00  0.00    +0.000 A 
ATOM     13  C   UNL     1      17.581   2.660  36.027  0.00  0.00    +0.000 A 
ATOM     14  C   UNL     1      18.336   3.827  35.712  0.00  0.00    +0.000 A 
ATOM     15  C   UNL     1      19.288   5.899  36.534  0.00  0.00    +0.000 A 
ATOM     16  C   UNL     1      18.823   4.073  34.436  0.00  0.00    +0.000 A 
ATOM     17  C   UNL     1      19.780   6.152  35.254  0.00  0.00    +0.000 A 
ATOM     18  C   UNL     1      19.544   5.242  34.222  0.00  0.00    +0.000 A 
ENDROOT
BRANCH   5  19
ATOM     19  O   UNL     1      17.745   3.710  43.326  0.00  0.00    +0.000 OA
ATOM     20  H   UNL     1      18.000   4.635  43.161  0.00  0.00    +0.000 HD
ENDBRANCH   5  19
BRANCH  18  21
ATOM     21  O   UNL     1      20.018   5.486  32.964  0.00  0.00    +0.000 OA
ATOM     22  H   UNL     1      19.311   5.912  32.447  0.00  0.00    +0.000 HD
ENDBRANCH  18  21
TORSDOF 2
ENDMDL
MODEL 3
REMARK VINA RESULT:      -6.0     28.048     29.582
REMARK  Name = Estradiol.pdbqt.pdb
REMARK  2 active torsions:
REMARK  status: ('A' for Active; 'I' for Inactive)
REMARK    1  A    between atoms: C_5  and  O_19
REMARK    2  A    between atoms: C_18  and  O_21
REMARK                            x       y       z     vdW  Elec       q    Type
REMARK                         _______ _______ _______ _____ _____    ______ ____
ROOT
ATOM      1  C   UNL     1      41.072   4.319  13.772  0.00  0.00    +0.000 C 
ATOM      2  C   UNL     1      39.475   4.216  13.632  0.00  0.00    +0.000 C 
ATOM      3  C   UNL     1      38.842   3.190  12.789  0.00  0.00    +0.000 A 
ATOM      4  C   UNL     1      39.526   1.991  12.170  0.00  0.00    +0.000 A 
ATOM      5  C   UNL     1      41.266   4.535  15.288  0.00  0.00    +0.000 C 
ATOM      6  C   UNL     1      41.603   3.047  13.281  0.00  0.00    +0.000 C 
ATOM      7  C   UNL     1      38.923   4.530  14.916  0.00  0.00    +0.000 C 
ATOM      8  C   UNL     1      40.904   1.957  12.503  0.00  0.00    +0.000 C 
ATOM      9  C   UNL     1      40.015   4.695  15.942  0.00  0.00    +0.000 C 
ATOM     10  C   UNL     1      37.453   3.202  12.499  0.00  0.00    +0.000 A 
ATOM     11  C   UNL     1      41.564   5.555  12.976  0.00  0.00    +0.000 C 
ATOM     12  C   UNL     1      38.833   0.968  11.317  0.00  0.00    +0.000 A 
ATOM     13  C   UNL     1      36.757   2.165  11.653  0.00  0.00    +0.000 A 
ATOM     14  C   UNL     1      37.432   1.060  11.056  0.00  0.00    +0.000 A 
ATOM     15  C   UNL     1      39.542  -0.093  10.754  0.00  0.00    +0.000 A 
ATOM     16  C   UNL     1      36.774   0.130  10.263  0.00  0.00    +0.000 A 
ATOM     17  C   UNL     1      38.887  -1.031   9.956  0.00  0.00    +0.000 A 
ATOM     18  C   UNL     1      37.516  -0.911   9.718  0.00  0.00    +0.000 A 
ENDROOT
BRANCH   5  19
ATOM     19  O   UNL     1      42.407   4.150  15.958  0.00  0.00    +0.000 OA
ATOM     20  H   UNL     1      42.721   4.846  16.564  0.00  0.00    +0.000 HD
ENDBRANCH   5  19
BRANCH  18  21
ATOM     21  O   UNL     1      36.869  -1.823   8.934  0.00  0.00    +0.000 OA
ATOM     22  H   UNL     1      37.531  -2.432   8.562  0.00  0.00    +0.000 HD
ENDBRANCH  18  21
TORSDOF 2
ENDMDL
MODEL 4
REMARK VINA RESULT:      -5.9     34.372     35.924
REMARK  Name = Estradiol.pdbqt.pdb
REMARK  2 active torsions:
REMARK  status: ('A' for Active; 'I' for Inactive)
REMARK    1  A    between atoms: C_5  and  O_19
REMARK    2  A    between atoms: C_18  and  O_21
REMARK                            x       y       z     vdW  Elec       q    Type
REMARK                         _______ _______ _______ _____ _____    ______ ____
ROOT
ATOM      1  C   UNL     1      49.928  -3.245  35.975  0.00  0.00    +0.000 C 
ATOM      2  C   UNL     1      49.777  -3.827  37.464  0.00  0.00    +0.000 C 
ATOM      3  C   UNL     1      49.818  -2.947  38.642  0.00  0.00    +0.000 A 
ATOM      4  C   UNL     1      49.753  -1.435  38.634  0.00  0.00    +0.000 A 
ATOM      5  C   UNL     1      48.828  -4.001  35.201  0.00  0.00    +0.000 C 
ATOM      6  C   UNL     1      49.697  -1.803  36.081  0.00  0.00    +0.000 C 
ATOM      7  C   UNL     1      48.822  -4.894  37.399  0.00  0.00    +0.000 C 
ATOM      8  C   UNL     1      49.641  -0.933  37.313  0.00  0.00    +0.000 C 
ATOM      9  C   UNL     1      48.214  -4.984  36.022  0.00  0.00    +0.000 C 
ATOM     10  C   UNL     1      49.880  -3.457  39.964  0.00  0.00    +0.000 A 
ATOM     11  C   UNL     1      51.332  -3.619  35.434  0.00  0.00    +0.000 C 
ATOM     12  C   UNL     1      49.796  -0.580  39.868  0.00  0.00    +0.000 A 
ATOM     13  C   UNL     1      49.910  -2.595  41.202  0.00  0.00    +0.000 A 
ATOM     14  C   UNL     1      49.877  -1.170  41.166  0.00  0.00    +0.000 A 
ATOM     15  C   UNL     1      49.764   0.811  39.775  0.00  0.00    +0.000 A 
ATOM     16  C   UNL     1      49.927  -0.397  42.318  0.00  0.00    +0.000 A 
ATOM     17  C   UNL     1      49.814   1.594  40.929  0.00  0.00    +0.000 A 
ATOM     18  C   UNL     1      49.896   0.986  42.183  0.00  0.00    +0.000 A 
ENDROOT
BRANCH   5  19
ATOM     19  O   UNL     1      48.213  -3.486  34.080  0.00  0.00    +0.000 OA
ATOM     20  H   UNL     1      48.594  -2.628  33.822  0.00  0.00    +0.000 HD
ENDBRANCH   5  19
BRANCH  18  21
ATOM     21  O   UNL     1      49.950   1.745  43.316  0.00  0.00    +0.000 OA
ATOM     22  H   UNL     1      49.081   2.164  43.447  0.00  0.00    +0.000 HD
ENDBRANCH  18  21
TORSDOF 2
ENDMDL
MODEL 5
REMARK VINA RESULT:      -5.8     31.059     33.167
REMARK  Name = Estradiol.pdbqt.pdb
REMARK  2 active torsions:
REMARK  status: ('A' for Active; 'I' for Inactive)
REMARK    1  A    between atoms: C_5  and  O_19
REMARK    2  A    between atoms: C_18  and  O_21
REMARK                            x       y       z     vdW  Elec       q    Type
REMARK                         _______ _______ _______ _____ _____    ______ ____
ROOT
ATOM      1  C   UNL     1      22.008  -1.098   5.303  0.00  0.00    +0.000 C 
ATOM      2  C   UNL     1      22.549  -0.662   6.751  0.00  0.00    +0.000 C 
ATOM      3  C   UNL     1      21.902  -1.131   7.986  0.00  0.00    +0.000 A 
ATOM      4  C   UNL     1      20.862  -2.225   8.094  0.00  0.00    +0.000 A 
ATOM      5  C   UNL     1      23.307  -1.434   4.542  0.00  0.00    +0.000 C 
ATOM      6  C   UNL     1      21.135  -2.251   5.528  0.00  0.00    +0.000 C 
ATOM      7  C   UNL     1      23.978  -0.612   6.664  0.00  0.00    +0.000 C 
ATOM      8  C   UNL     1      20.564  -2.777   6.823  0.00  0.00    +0.000 C 
ATOM      9  C   UNL     1      24.450  -1.115   5.323  0.00  0.00    +0.000 C 
ATOM     10  C   UNL     1      22.240  -0.608   9.261  0.00  0.00    +0.000 A 
ATOM     11  C   UNL     1      21.292   0.115   4.652  0.00  0.00    +0.000 C 
ATOM     12  C   UNL     1      20.233  -2.669   9.383  0.00  0.00    +0.000 A 
ATOM     13  C   UNL     1      21.615  -1.067  10.555  0.00  0.00    +0.000 A 
ATOM     14  C   UNL     1      20.615  -2.081  10.627  0.00  0.00    +0.000 A 
ATOM     15  C   UNL     1      19.255  -3.665   9.396  0.00  0.00    +0.000 A 
ATOM     16  C   UNL     1      20.039  -2.471  11.828  0.00  0.00    +0.000 A 
ATOM     17  C   UNL     1      18.672  -4.062  10.599  0.00  0.00    +0.000 A 
ATOM     18  C   UNL     1      19.067  -3.464  11.798  0.00  0.00    +0.000 A 
ENDROOT
BRANCH   5  19
ATOM     19  O   UNL     1      23.353  -2.336   3.501  0.00  0.00    +0.000 OA
ATOM     20  H   UNL     1      22.699  -3.050   3.614  0.00  0.00    +0.000 HD
ENDBRANCH   5  19
BRANCH  18  21
ATOM     21  O   UNL     1      18.497  -3.843  12.979  0.00  0.00    +0.000 OA
ATOM     22  H   UNL     1      18.535  -3.090  13.594  0.00  0.00    +0.000 HD
ENDBRANCH  18  21
TORSDOF 2
ENDMDL
MODEL 6
REMARK VINA RESULT:      -5.7     30.959     32.854
REMARK  Name = Estradiol.pdbqt.pdb
REMARK  2 active torsions:
REMARK  status: ('A' for Active; 'I' for Inactive)
REMARK    1  A    between atoms: C_5  and  O_19
REMARK    2  A    between atoms: C_18  and  O_21
REMARK                            x       y       z     vdW  Elec       q    Type
REMARK                         _______ _______ _______ _____ _____    ______ ____
ROOT
ATOM      1  C   UNL     1      23.285  -1.249   3.481  0.00  0.00    +0.000 C 
ATOM      2  C   UNL     1      24.821  -1.084   3.920  0.00  0.00    +0.000 C 
ATOM      3  C   UNL     1      25.421   0.242   4.133  0.00  0.00    +0.000 A 
ATOM      4  C   UNL     1      24.680   1.559   4.223  0.00  0.00    +0.000 A 
ATOM      5  C   UNL     1      22.794  -2.397   4.389  0.00  0.00    +0.000 C 
ATOM      6  C   UNL     1      22.647   0.040   3.755  0.00  0.00    +0.000 C 
ATOM      7  C   UNL     1      25.114  -2.157   4.822  0.00  0.00    +0.000 C 
ATOM      8  C   UNL     1      23.282   1.371   4.075  0.00  0.00    +0.000 C 
ATOM      9  C   UNL     1      23.869  -2.946   5.138  0.00  0.00    +0.000 C 
ATOM     10  C   UNL     1      26.815   0.418   4.331  0.00  0.00    +0.000 A 
ATOM     11  C   UNL     1      23.235  -1.672   1.990  0.00  0.00    +0.000 C 
ATOM     12  C   UNL     1      25.340   2.888   4.445  0.00  0.00    +0.000 A 
ATOM     13  C   UNL     1      27.474   1.755   4.567  0.00  0.00    +0.000 A 
ATOM     14  C   UNL     1      26.755   2.984   4.618  0.00  0.00    +0.000 A 
ATOM     15  C   UNL     1      24.589   4.063   4.483  0.00  0.00    +0.000 A 
ATOM     16  C   UNL     1      27.386   4.205   4.815  0.00  0.00    +0.000 A 
ATOM     17  C   UNL     1      25.216   5.293   4.681  0.00  0.00    +0.000 A 
ATOM     18  C   UNL     1      26.602   5.352   4.843  0.00  0.00    +0.000 A 
ENDROOT
BRANCH   5  19
ATOM     19  O   UNL     1      21.478  -2.536   4.773  0.00  0.00    +0.000 OA
ATOM     20  H   UNL     1      21.368  -3.245   5.433  0.00  0.00    +0.000 HD
ENDBRANCH   5  19
BRANCH  18  21
ATOM     21  O   UNL     1      27.224   6.553   5.033  0.00  0.00    +0.000 OA
ATOM     22  H   UNL     1      26.907   6.934   5.871  0.00  0.00    +0.000 HD
ENDBRANCH  18  21
TORSDOF 2
ENDMDL
MODEL 7
REMARK VINA RESULT:      -5.6     54.437     55.335
REMARK  Name = Estradiol.pdbqt.pdb
REMARK  2 active torsions:
REMARK  status: ('A' for Active; 'I' for Inactive)
REMARK    1  A    between atoms: C_5  and  O_19
REMARK    2  A    between atoms: C_18  and  O_21
REMARK                            x       y       z     vdW  Elec       q    Type
REMARK                         _______ _______ _______ _____ _____    ______ ____
ROOT
ATOM      1  C   UNL     1      47.118 -16.839  -8.566  0.00  0.00    +0.000 C 
ATOM      2  C   UNL     1      47.713 -15.500  -7.910  0.00  0.00    +0.000 C 
ATOM      3  C   UNL     1      47.043 -14.832  -6.783  0.00  0.00    +0.000 A 
ATOM      4  C   UNL     1      45.913 -15.397  -5.950  0.00  0.00    +0.000 A 
ATOM      5  C   UNL     1      48.373 -17.720  -8.738  0.00  0.00    +0.000 C 
ATOM      6  C   UNL     1      46.150 -17.365  -7.601  0.00  0.00    +0.000 C 
ATOM      7  C   UNL     1      49.140 -15.629  -7.922  0.00  0.00    +0.000 C 
ATOM      8  C   UNL     1      45.552 -16.696  -6.388  0.00  0.00    +0.000 C 
ATOM      9  C   UNL     1      49.549 -16.999  -8.399  0.00  0.00    +0.000 C 
ATOM     10  C   UNL     1      47.442 -13.553  -6.318  0.00  0.00    +0.000 A 
ATOM     11  C   UNL     1      46.503 -16.489  -9.946  0.00  0.00    +0.000 C 
ATOM     12  C   UNL     1      45.264 -14.674  -4.805  0.00  0.00    +0.000 A 
ATOM     13  C   UNL     1      46.796 -12.835  -5.158  0.00  0.00    +0.000 A 
ATOM     14  C   UNL     1      45.712 -13.378  -4.408  0.00  0.00    +0.000 A 
ATOM     15  C   UNL     1      44.203 -15.250  -4.105  0.00  0.00    +0.000 A 
ATOM     16  C   UNL     1      45.119 -12.690  -3.358  0.00  0.00    +0.000 A 
ATOM     17  C   UNL     1      43.603 -14.564  -3.049  0.00  0.00    +0.000 A 
ATOM     18  C   UNL     1      44.064 -13.296  -2.688  0.00  0.00    +0.000 A 
ENDROOT
BRANCH   5  19
ATOM     19  O   UNL     1      48.326 -19.097  -8.742  0.00  0.00    +0.000 OA
ATOM     20  H   UNL     1      48.911 -19.480  -8.064  0.00  0.00    +0.000 HD
ENDBRANCH   5  19
BRANCH  18  21
ATOM     21  O   UNL     1      43.478 -12.616  -1.659  0.00  0.00    +0.000 OA
ATOM     22  H   UNL     1      42.566 -12.942  -1.555  0.00  0.00    +0.000 HD
ENDBRANCH  18  21
TORSDOF 2
ENDMDL
MODEL 8
REMARK VINA RESULT:      -5.5      3.346      4.290
REMARK  Name = Estradiol.pdbqt.pdb
REMARK  2 active torsions:
REMARK  status: ('A' for Active; 'I' for Inactive)
REMARK    1  A    between atoms: C_5  and  O_19
REMARK    2  A    between atoms: C_18  and  O_21
REMARK                            x       y       z     vdW  Elec       q    Type
REMARK                         _______ _______ _______ _____ _____    ______ ____
ROOT
ATOM      1  C   UNL     1      24.014  24.241  32.052  0.00  0.00    +0.000 C 
ATOM      2  C   UNL     1      24.531  23.380  30.799  0.00  0.00    +0.000 C 
ATOM      3  C   UNL     1      25.966  23.182  30.543  0.00  0.00    +0.000 A 
ATOM      4  C   UNL     1      27.101  23.512  31.489  0.00  0.00    +0.000 A 
ATOM      5  C   UNL     1      22.863  23.376  32.606  0.00  0.00    +0.000 C 
ATOM      6  C   UNL     1      25.157  24.363  32.958  0.00  0.00    +0.000 C 
ATOM      7  C   UNL     1      23.617  22.289  30.638  0.00  0.00    +0.000 C 
ATOM      8  C   UNL     1      26.613  24.054  32.705  0.00  0.00    +0.000 C 
ATOM      9  C   UNL     1      22.611  22.263  31.760  0.00  0.00    +0.000 C 
ATOM     10  C   UNL     1      26.446  22.592  29.345  0.00  0.00    +0.000 A 
ATOM     11  C   UNL     1      23.475  25.600  31.534  0.00  0.00    +0.000 C 
ATOM     12  C   UNL     1      28.553  23.287  31.181  0.00  0.00    +0.000 A 
ATOM     13  C   UNL     1      27.905  22.357  29.043  0.00  0.00    +0.000 A 
ATOM     14  C   UNL     1      28.956  22.703  29.941  0.00  0.00    +0.000 A 
ATOM     15  C   UNL     1      29.542  23.649  32.095  0.00  0.00    +0.000 A 
ATOM     16  C   UNL     1      30.294  22.496  29.633  0.00  0.00    +0.000 A 
ATOM     17  C   UNL     1      30.888  23.443  31.791  0.00  0.00    +0.000 A 
ATOM     18  C   UNL     1      31.250  22.873  30.569  0.00  0.00    +0.000 A 
ENDROOT
BRANCH   5  19
ATOM     19  O   UNL     1      22.481  23.399  33.930  0.00  0.00    +0.000 OA
ATOM     20  H   UNL     1      21.550  23.668  34.032  0.00  0.00    +0.000 HD
ENDBRANCH   5  19
BRANCH  18  21
ATOM     21  O   UNL     1      32.565  22.673  30.263  0.00  0.00    +0.000 OA
ATOM     22  H   UNL     1      33.056  23.489  30.467  0.00  0.00    +0.000 HD
ENDBRANCH  18  21
TORSDOF 2
ENDMDL
MODEL 9
REMARK VINA RESULT:      -5.4      3.570      4.250
REMARK  Name = Estradiol.pdbqt.pdb
REMARK  2 active torsions:
REMARK  status: ('A' for Active; 'I' for Inactive)
REMARK    1  A    between atoms: C_5  and  O_19
REMARK    2  A    between atoms: C_18  and  O_21
REMARK                            x       y       z     vdW  Elec       q    Type
REMARK                         _______ _______ _______ _____ _____    ______ ____
ROOT
ATOM      1  C   UNL     1      25.052  22.943  29.058  0.00  0.00    +0.000 C 
ATOM      2  C   UNL     1      26.625  23.235  29.196  0.00  0.00    +0.000 C 
ATOM      3  C   UNL     1      27.297  23.221  30.505  0.00  0.00    +0.000 A 
ATOM      4  C   UNL     1      26.716  22.712  31.807  0.00  0.00    +0.000 A 
ATOM      5  C   UNL     1      24.987  21.997  27.841  0.00  0.00    +0.000 C 
ATOM      6  C   UNL     1      24.645  22.320  30.318  0.00  0.00    +0.000 C 
ATOM      7  C   UNL     1      27.260  22.642  28.058  0.00  0.00    +0.000 C 
ATOM      8  C   UNL     1      25.397  22.227  31.624  0.00  0.00    +0.000 C 
ATOM      9  C   UNL     1      26.267  21.855  27.240  0.00  0.00    +0.000 C 
ATOM     10  C   UNL     1      28.635  23.662  30.672  0.00  0.00    +0.000 A 
ATOM     11  C   UNL     1      24.322  24.278  28.752  0.00  0.00    +0.000 C 
ATOM     12  C   UNL     1      27.446  22.718  33.118  0.00  0.00    +0.000 A 
ATOM     13  C   UNL     1      29.370  23.654  31.989  0.00  0.00    +0.000 A 
ATOM     14  C   UNL     1      28.789  23.196  33.207  0.00  0.00    +0.000 A 
ATOM     15  C   UNL     1      26.829  22.261  34.283  0.00  0.00    +0.000 A 
ATOM     16  C   UNL     1      29.479  23.218  34.412  0.00  0.00    +0.000 A 
ATOM     17  C   UNL     1      27.516  22.280  35.497  0.00  0.00    +0.000 A 
ATOM     18  C   UNL     1      28.827  22.756  35.550  0.00  0.00    +0.000 A 
ENDROOT
BRANCH   5  19
ATOM     19  O   UNL     1      23.982  21.071  27.666  0.00  0.00    +0.000 OA
ATOM     20  H   UNL     1      24.049  20.625  26.802  0.00  0.00    +0.000 HD
ENDBRANCH   5  19
BRANCH  18  21
ATOM     21  O   UNL     1      29.504  22.783  36.736  0.00  0.00    +0.000 OA
ATOM     22  H   UNL     1      29.145  23.507  37.278  0.00  0.00    +0.000 HD
ENDBRANCH  18  21
TORSDOF 2
ENDMDL
