MODEL 1
REMARK VINA RESULT:      -8.6      0.000      0.000
REMARK  Name = 
REMARK  11 active torsions:
REMARK  status: ('A' for Active; 'I' for Inactive)
REMARK    1  A    between atoms: O_1  and  C_16
REMARK    2  A    between atoms: O_1  and  C_22
REMARK    3  A    between atoms: O_6  and  C_24
REMARK    4  A    between atoms: O_8  and  C_26
REMARK    5  A    between atoms: O_11  and  C_36
REMARK    6  A    between atoms: O_11  and  C_41
REMARK    7  A    between atoms: O_12  and  C_37
REMARK    8  A    between atoms: O_12  and  C_42
REMARK    9  A    between atoms: O_13  and  C_39
REMARK   10  A    between atoms: C_17  and  C_23
REMARK   11  A    between atoms: C_35  and  C_40
REMARK                            x       y       z     vdW  Elec       q    Type
REMARK                         _______ _______ _______ _____ _____    ______ ____
ROOT
ATOM      1  O   UNL     1      36.486   2.446  14.982  0.00  0.00    +0.000 OA
ATOM      2  O   UNL     1      35.213   2.500  13.076  0.00  0.00    +0.000 OA
ATOM      3  O   UNL     1      42.636   6.233  10.671  0.00  0.00    +0.000 OA
ATOM      4  O   UNL     1      41.211   5.643   8.817  0.00  0.00    +0.000 OA
ATOM      5  C   UNL     1      38.493   3.215  14.116  0.00  0.00    +0.000 C 
ATOM      6  C   UNL     1      37.385   3.590  13.150  0.00  0.00    +0.000 C 
ATOM      7  C   UNL     1      39.617   4.240  14.058  0.00  0.00    +0.000 C 
ATOM      8  C   UNL     1      37.843   3.411  11.703  0.00  0.00    +0.000 C 
ATOM      9  C   UNL     1      39.992   4.555  12.611  0.00  0.00    +0.000 A 
ATOM     10  C   UNL     1      39.146   4.204  11.507  0.00  0.00    +0.000 A 
ATOM     11  C   UNL     1      37.712   3.071  15.398  0.00  0.00    +0.000 C 
ATOM     12  C   UNL     1      36.244   2.769  13.670  0.00  0.00    +0.000 C 
ATOM     13  C   UNL     1      41.192   5.249  12.367  0.00  0.00    +0.000 A 
ATOM     14  C   UNL     1      39.523   4.555  10.194  0.00  0.00    +0.000 A 
ATOM     15  C   UNL     1      41.517   5.570  11.067  0.00  0.00    +0.000 A 
ATOM     16  C   UNL     1      40.706   5.234  10.012  0.00  0.00    +0.000 A 
ATOM     17  C   UNL     1      42.437   6.275   9.242  0.00  0.00    +0.000 C 
ENDROOT
BRANCH   8  18
ATOM     18  C   UNL     1      37.947   1.958  11.234  0.00  0.00    +0.000 A 
ATOM     19  C   UNL     1      37.069   1.396  10.290  0.00  0.00    +0.000 A 
ATOM     20  C   UNL     1      38.969   1.143  11.750  0.00  0.00    +0.000 A 
ATOM     21  C   UNL     1      39.119  -0.176  11.320  0.00  0.00    +0.000 A 
ATOM     22  C   UNL     1      37.187   0.067   9.858  0.00  0.00    +0.000 A 
ATOM     23  C   UNL     1      38.220  -0.711  10.382  0.00  0.00    +0.000 A 
BRANCH  21  24
ATOM     24  O   UNL     1      40.095  -1.047  11.745  0.00  0.00    +0.000 OA
ATOM     25  C   UNL     1      41.429  -0.744  11.344  0.00  0.00    +0.000 C 
ENDBRANCH  21  24
BRANCH  22  26
ATOM     26  O   UNL     1      36.236  -0.280   8.938  0.00  0.00    +0.000 OA
ATOM     27  C   UNL     1      36.222   0.413   7.698  0.00  0.00    +0.000 C 
ENDBRANCH  22  26
BRANCH  23  28
ATOM     28  O   UNL     1      38.414  -2.015  10.001  0.00  0.00    +0.000 OA
ATOM     29  H   UNL     1      37.534  -2.326   9.710  0.00  0.00    +0.000 HD
ENDBRANCH  23  28
ENDBRANCH   8  18
BRANCH   7  30
ATOM     30  O   UNL     1      39.174   5.466  14.641  0.00  0.00    +0.000 OA
BRANCH  30  34
ATOM     31  O   UNL     1      38.614   5.616  16.906  0.00  0.00    +0.000 OA
ATOM     32  O   UNL     1      40.045   7.552  19.687  0.00  0.00    +0.000 OA
ATOM     33  O   UNL     1      38.443   6.046  20.554  0.00  0.00    +0.000 OA
ATOM     34  C   UNL     1      39.686   5.677  15.963  0.00  0.00    +0.000 C 
ATOM     35  C   UNL     1      40.382   7.057  15.959  0.00  0.00    +0.000 C 
ATOM     36  C   UNL     1      39.617   7.294  18.345  0.00  0.00    +0.000 C 
ATOM     37  C   UNL     1      40.788   7.477  17.379  0.00  0.00    +0.000 C 
ATOM     38  C   UNL     1      39.082   5.869  18.229  0.00  0.00    +0.000 C 
ATOM     39  C   UNL     1      37.962   5.714  19.252  0.00  0.00    +0.000 C 
ATOM     40  C   UNL     1      38.955   7.378  20.597  0.00  0.00    +0.000 C 
ATOM     41  C   UNL     1      39.473   7.637  22.000  0.00  0.00    +0.000 C 
BRANCH  35  42
ATOM     42  O   UNL     1      41.543   6.997  15.114  0.00  0.00    +0.000 OA
ATOM     43  H   UNL     1      41.678   6.051  14.909  0.00  0.00    +0.000 HD
ENDBRANCH  35  42
BRANCH  37  44
ATOM     44  O   UNL     1      41.178   8.860  17.395  0.00  0.00    +0.000 OA
ATOM     45  H   UNL     1      42.131   8.867  17.605  0.00  0.00    +0.000 HD
ENDBRANCH  37  44
ENDBRANCH  30  34
ENDBRANCH   7  30
TORSDOF 8
ENDMDL
MODEL 2
REMARK VINA RESULT:      -7.8      3.257      7.059
REMARK  Name = 
REMARK  11 active torsions:
REMARK  status: ('A' for Active; 'I' for Inactive)
REMARK    1  A    between atoms: O_1  and  C_16
REMARK    2  A    between atoms: O_1  and  C_22
REMARK    3  A    between atoms: O_6  and  C_24
REMARK    4  A    between atoms: O_8  and  C_26
REMARK    5  A    between atoms: O_11  and  C_36
REMARK    6  A    between atoms: O_11  and  C_41
REMARK    7  A    between atoms: O_12  and  C_37
REMARK    8  A    between atoms: O_12  and  C_42
REMARK    9  A    between atoms: O_13  and  C_39
REMARK   10  A    between atoms: C_17  and  C_23
REMARK   11  A    between atoms: C_35  and  C_40
REMARK                            x       y       z     vdW  Elec       q    Type
REMARK                         _______ _______ _______ _____ _____    ______ ____
ROOT
ATOM      1  O   UNL     1      40.584   4.079  15.728  0.00  0.00    +0.000 OA
ATOM      2  O   UNL     1      38.502   5.038  15.753  0.00  0.00    +0.000 OA
ATOM      3  O   UNL     1      38.458   0.259   8.542  0.00  0.00    +0.000 OA
ATOM      4  O   UNL     1      36.270   1.034   9.196  0.00  0.00    +0.000 OA
ATOM      5  C   UNL     1      40.319   2.650  13.924  0.00  0.00    +0.000 C 
ATOM      6  C   UNL     1      39.234   3.707  13.854  0.00  0.00    +0.000 C 
ATOM      7  C   UNL     1      40.695   2.181  12.525  0.00  0.00    +0.000 C 
ATOM      8  C   UNL     1      37.907   3.095  13.406  0.00  0.00    +0.000 C 
ATOM      9  C   UNL     1      39.445   1.885  11.697  0.00  0.00    +0.000 A 
ATOM     10  C   UNL     1      38.143   2.344  12.084  0.00  0.00    +0.000 A 
ATOM     11  C   UNL     1      41.358   3.367  14.749  0.00  0.00    +0.000 C 
ATOM     12  C   UNL     1      39.337   4.333  15.212  0.00  0.00    +0.000 C 
ATOM     13  C   UNL     1      39.595   1.169  10.494  0.00  0.00    +0.000 A 
ATOM     14  C   UNL     1      37.030   2.076  11.262  0.00  0.00    +0.000 A 
ATOM     15  C   UNL     1      38.477   0.933   9.723  0.00  0.00    +0.000 A 
ATOM     16  C   UNL     1      37.232   1.374  10.095  0.00  0.00    +0.000 A 
ATOM     17  C   UNL     1      37.054   0.326   8.214  0.00  0.00    +0.000 C 
ENDROOT
BRANCH   8  18
ATOM     18  C   UNL     1      37.200   2.243  14.463  0.00  0.00    +0.000 A 
ATOM     19  C   UNL     1      36.561   2.797  15.586  0.00  0.00    +0.000 A 
ATOM     20  C   UNL     1      37.170   0.847  14.310  0.00  0.00    +0.000 A 
ATOM     21  C   UNL     1      36.504   0.039  15.233  0.00  0.00    +0.000 A 
ATOM     22  C   UNL     1      35.904   2.004  16.539  0.00  0.00    +0.000 A 
ATOM     23  C   UNL     1      35.881   0.622  16.349  0.00  0.00    +0.000 A 
BRANCH  21  24
ATOM     24  O   UNL     1      36.396  -1.330  15.162  0.00  0.00    +0.000 OA
ATOM     25  C   UNL     1      37.594  -2.070  15.381  0.00  0.00    +0.000 C 
ENDBRANCH  21  24
BRANCH  22  26
ATOM     26  O   UNL     1      35.347   2.739  17.551  0.00  0.00    +0.000 OA
ATOM     27  C   UNL     1      36.051   2.819  18.781  0.00  0.00    +0.000 C 
ENDBRANCH  22  26
BRANCH  23  28
ATOM     28  O   UNL     1      35.247  -0.222  17.226  0.00  0.00    +0.000 OA
ATOM     29  H   UNL     1      34.422   0.242  17.470  0.00  0.00    +0.000 HD
ENDBRANCH  23  28
ENDBRANCH   8  18
BRANCH   7  30
ATOM     30  O   UNL     1      41.397   3.223  11.846  0.00  0.00    +0.000 OA
BRANCH  30  34
ATOM     31  O   UNL     1      43.108   1.692  12.290  0.00  0.00    +0.000 OA
ATOM     32  O   UNL     1      46.726   2.104  12.805  0.00  0.00    +0.000 OA
ATOM     33  O   UNL     1      46.234  -0.204  12.678  0.00  0.00    +0.000 OA
ATOM     34  C   UNL     1      42.788   2.933  11.658  0.00  0.00    +0.000 C 
ATOM     35  C   UNL     1      43.578   4.117  12.262  0.00  0.00    +0.000 C 
ATOM     36  C   UNL     1      45.336   2.433  12.903  0.00  0.00    +0.000 C 
ATOM     37  C   UNL     1      45.083   3.816  12.300  0.00  0.00    +0.000 C 
ATOM     38  C   UNL     1      44.496   1.396  12.163  0.00  0.00    +0.000 C 
ATOM     39  C   UNL     1      44.828   0.030  12.753  0.00  0.00    +0.000 C 
ATOM     40  C   UNL     1      46.969   0.809  13.363  0.00  0.00    +0.000 C 
ATOM     41  C   UNL     1      48.448   0.504  13.207  0.00  0.00    +0.000 C 
BRANCH  35  42
ATOM     42  O   UNL     1      43.333   5.296  11.477  0.00  0.00    +0.000 OA
ATOM     43  H   UNL     1      42.451   5.173  11.075  0.00  0.00    +0.000 HD
ENDBRANCH  35  42
BRANCH  37  44
ATOM     44  O   UNL     1      45.764   4.793  13.103  0.00  0.00    +0.000 OA
ATOM     45  H   UNL     1      45.330   4.771  13.977  0.00  0.00    +0.000 HD
ENDBRANCH  37  44
ENDBRANCH  30  34
ENDBRANCH   7  30
TORSDOF 8
ENDMDL
MODEL 3
REMARK VINA RESULT:      -7.6     27.299     32.414
REMARK  Name = 
REMARK  11 active torsions:
REMARK  status: ('A' for Active; 'I' for Inactive)
REMARK    1  A    between atoms: O_1  and  C_16
REMARK    2  A    between atoms: O_1  and  C_22
REMARK    3  A    between atoms: O_6  and  C_24
REMARK    4  A    between atoms: O_8  and  C_26
REMARK    5  A    between atoms: O_11  and  C_36
REMARK    6  A    between atoms: O_11  and  C_41
REMARK    7  A    between atoms: O_12  and  C_37
REMARK    8  A    between atoms: O_12  and  C_42
REMARK    9  A    between atoms: O_13  and  C_39
REMARK   10  A    between atoms: C_17  and  C_23
REMARK   11  A    between atoms: C_35  and  C_40
REMARK                            x       y       z     vdW  Elec       q    Type
REMARK                         _______ _______ _______ _____ _____    ______ ____
ROOT
ATOM      1  O   UNL     1      19.851   7.394  35.562  0.00  0.00    +0.000 OA
ATOM      2  O   UNL     1      20.606   5.924  33.972  0.00  0.00    +0.000 OA
ATOM      3  O   UNL     1      15.434   1.079  38.933  0.00  0.00    +0.000 OA
ATOM      4  O   UNL     1      16.032   0.023  36.848  0.00  0.00    +0.000 OA
ATOM      5  C   UNL     1      18.301   6.038  36.622  0.00  0.00    +0.000 C 
ATOM      6  C   UNL     1      19.243   5.151  35.831  0.00  0.00    +0.000 C 
ATOM      7  C   UNL     1      17.789   5.304  37.855  0.00  0.00    +0.000 C 
ATOM      8  C   UNL     1      18.481   4.003  35.169  0.00  0.00    +0.000 C 
ATOM      9  C   UNL     1      17.328   3.893  37.494  0.00  0.00    +0.000 A 
ATOM     10  C   UNL     1      17.681   3.264  36.255  0.00  0.00    +0.000 A 
ATOM     11  C   UNL     1      19.161   7.261  36.815  0.00  0.00    +0.000 C 
ATOM     12  C   UNL     1      19.954   6.156  34.976  0.00  0.00    +0.000 C 
ATOM     13  C   UNL     1      16.561   3.180  38.436  0.00  0.00    +0.000 A 
ATOM     14  C   UNL     1      17.261   1.944  35.991  0.00  0.00    +0.000 A 
ATOM     15  C   UNL     1      16.174   1.892  38.132  0.00  0.00    +0.000 A 
ATOM     16  C   UNL     1      16.514   1.292  36.947  0.00  0.00    +0.000 A 
ATOM     17  C   UNL     1      15.347  -0.104  38.111  0.00  0.00    +0.000 C 
ENDROOT
BRANCH   8  18
ATOM     18  C   UNL     1      17.629   4.405  33.963  0.00  0.00    +0.000 A 
ATOM     19  C   UNL     1      18.126   4.419  32.648  0.00  0.00    +0.000 A 
ATOM     20  C   UNL     1      16.286   4.766  34.164  0.00  0.00    +0.000 A 
ATOM     21  C   UNL     1      15.467   5.104  33.086  0.00  0.00    +0.000 A 
ATOM     22  C   UNL     1      17.328   4.776  31.551  0.00  0.00    +0.000 A 
ATOM     23  C   UNL     1      15.995   5.116  31.784  0.00  0.00    +0.000 A 
BRANCH  21  24
ATOM     24  O   UNL     1      14.137   5.449  33.172  0.00  0.00    +0.000 OA
ATOM     25  C   UNL     1      13.248   4.429  33.620  0.00  0.00    +0.000 C 
ENDBRANCH  21  24
BRANCH  22  26
ATOM     26  O   UNL     1      18.002   4.722  30.362  0.00  0.00    +0.000 OA
ATOM     27  C   UNL     1      18.096   3.468  29.703  0.00  0.00    +0.000 C 
ENDBRANCH  22  26
BRANCH  23  28
ATOM     28  O   UNL     1      15.144   5.462  30.765  0.00  0.00    +0.000 OA
ATOM     29  H   UNL     1      14.927   4.619  30.321  0.00  0.00    +0.000 HD
ENDBRANCH  23  28
ENDBRANCH   8  18
BRANCH   7  30
ATOM     30  O   UNL     1      18.853   5.157  38.796  0.00  0.00    +0.000 OA
BRANCH  30  34
ATOM     31  O   UNL     1      17.151   6.046  40.131  0.00  0.00    +0.000 OA
ATOM     32  O   UNL     1      17.179   8.507  42.864  0.00  0.00    +0.000 OA
ATOM     33  O   UNL     1      15.020   7.557  42.718  0.00  0.00    +0.000 OA
ATOM     34  C   UNL     1      18.532   5.679  40.092  0.00  0.00    +0.000 C 
ATOM     35  C   UNL     1      19.464   6.889  40.332  0.00  0.00    +0.000 C 
ATOM     36  C   UNL     1      17.561   7.923  41.614  0.00  0.00    +0.000 C 
ATOM     37  C   UNL     1      19.066   7.652  41.603  0.00  0.00    +0.000 C 
ATOM     38  C   UNL     1      16.809   6.614  41.392  0.00  0.00    +0.000 C 
ATOM     39  C   UNL     1      15.317   6.922  41.476  0.00  0.00    +0.000 C 
ATOM     40  C   UNL     1      15.771   8.759  42.883  0.00  0.00    +0.000 C 
ATOM     41  C   UNL     1      15.421   9.350  44.237  0.00  0.00    +0.000 C 
BRANCH  35  42
ATOM     42  O   UNL     1      20.820   6.424  40.442  0.00  0.00    +0.000 OA
ATOM     43  H   UNL     1      21.212   6.524  39.553  0.00  0.00    +0.000 HD
ENDBRANCH  35  42
BRANCH  37  44
ATOM     44  O   UNL     1      19.755   8.911  41.662  0.00  0.00    +0.000 OA
ATOM     45  H   UNL     1      20.115   8.977  42.567  0.00  0.00    +0.000 HD
ENDBRANCH  37  44
ENDBRANCH  30  34
ENDBRANCH   7  30
TORSDOF 8
ENDMDL
MODEL 4
REMARK VINA RESULT:      -7.6      3.321      9.666
REMARK  Name = 
REMARK  11 active torsions:
REMARK  status: ('A' for Active; 'I' for Inactive)
REMARK    1  A    between atoms: O_1  and  C_16
REMARK    2  A    between atoms: O_1  and  C_22
REMARK    3  A    between atoms: O_6  and  C_24
REMARK    4  A    between atoms: O_8  and  C_26
REMARK    5  A    between atoms: O_11  and  C_36
REMARK    6  A    between atoms: O_11  and  C_41
REMARK    7  A    between atoms: O_12  and  C_37
REMARK    8  A    between atoms: O_12  and  C_42
REMARK    9  A    between atoms: O_13  and  C_39
REMARK   10  A    between atoms: C_17  and  C_23
REMARK   11  A    between atoms: C_35  and  C_40
REMARK                            x       y       z     vdW  Elec       q    Type
REMARK                         _______ _______ _______ _____ _____    ______ ____
ROOT
ATOM      1  O   UNL     1      43.124   3.011  12.251  0.00  0.00    +0.000 OA
ATOM      2  O   UNL     1      41.734   4.737  11.662  0.00  0.00    +0.000 OA
ATOM      3  O   UNL     1      37.336  -2.322   9.281  0.00  0.00    +0.000 OA
ATOM      4  O   UNL     1      36.000  -0.314   9.291  0.00  0.00    +0.000 OA
ATOM      5  C   UNL     1      41.715   1.226  11.809  0.00  0.00    +0.000 C 
ATOM      6  C   UNL     1      41.181   2.442  11.077  0.00  0.00    +0.000 C 
ATOM      7  C   UNL     1      41.369  -0.047  11.046  0.00  0.00    +0.000 C 
ATOM      8  C   UNL     1      39.655   2.490  11.143  0.00  0.00    +0.000 C 
ATOM      9  C   UNL     1      39.903  -0.042  10.618  0.00  0.00    +0.000 A 
ATOM     10  C   UNL     1      39.107   1.150  10.624  0.00  0.00    +0.000 A 
ATOM     11  C   UNL     1      43.167   1.603  11.963  0.00  0.00    +0.000 C 
ATOM     12  C   UNL     1      41.983   3.543  11.703  0.00  0.00    +0.000 C 
ATOM     13  C   UNL     1      39.335  -1.249  10.166  0.00  0.00    +0.000 A 
ATOM     14  C   UNL     1      37.769   1.105  10.180  0.00  0.00    +0.000 A 
ATOM     15  C   UNL     1      38.024  -1.243   9.742  0.00  0.00    +0.000 A 
ATOM     16  C   UNL     1      37.264  -0.101   9.747  0.00  0.00    +0.000 A 
ATOM     17  C   UNL     1      36.053  -1.726   8.998  0.00  0.00    +0.000 C 
ENDROOT
BRANCH   8  18
ATOM     18  C   UNL     1      39.081   2.887  12.505  0.00  0.00    +0.000 A 
ATOM     19  C   UNL     1      39.386   4.107  13.135  0.00  0.00    +0.000 A 
ATOM     20  C   UNL     1      38.199   2.010  13.159  0.00  0.00    +0.000 A 
ATOM     21  C   UNL     1      37.627   2.353  14.385  0.00  0.00    +0.000 A 
ATOM     22  C   UNL     1      38.839   4.464  14.377  0.00  0.00    +0.000 A 
ATOM     23  C   UNL     1      37.957   3.576  14.993  0.00  0.00    +0.000 A 
BRANCH  21  24
ATOM     24  O   UNL     1      36.738   1.578  15.094  0.00  0.00    +0.000 OA
ATOM     25  C   UNL     1      36.817   0.171  14.880  0.00  0.00    +0.000 C 
ENDBRANCH  21  24
BRANCH  22  26
ATOM     26  O   UNL     1      39.262   5.690  14.812  0.00  0.00    +0.000 OA
ATOM     27  C   UNL     1      40.265   5.732  15.818  0.00  0.00    +0.000 C 
ENDBRANCH  22  26
BRANCH  23  28
ATOM     28  O   UNL     1      37.367   3.855  16.200  0.00  0.00    +0.000 OA
ATOM     29  H   UNL     1      36.753   3.112  16.359  0.00  0.00    +0.000 HD
ENDBRANCH  23  28
ENDBRANCH   8  18
BRANCH   7  30
ATOM     30  O   UNL     1      42.145  -0.109   9.849  0.00  0.00    +0.000 OA
BRANCH  30  34
ATOM     31  O   UNL     1      43.338  -1.868  10.823  0.00  0.00    +0.000 OA
ATOM     32  O   UNL     1      45.766  -4.268   9.456  0.00  0.00    +0.000 OA
ATOM     33  O   UNL     1      45.227  -4.907  11.667  0.00  0.00    +0.000 OA
ATOM     34  C   UNL     1      42.723  -1.400   9.621  0.00  0.00    +0.000 C 
ATOM     35  C   UNL     1      43.743  -1.237   8.469  0.00  0.00    +0.000 C 
ATOM     36  C   UNL     1      45.115  -3.004   9.623  0.00  0.00    +0.000 C 
ATOM     37  C   UNL     1      44.572  -2.515   8.280  0.00  0.00    +0.000 C 
ATOM     38  C   UNL     1      43.965  -3.131  10.618  0.00  0.00    +0.000 C 
ATOM     39  C   UNL     1      44.542  -3.681  11.919  0.00  0.00    +0.000 C 
ATOM     40  C   UNL     1      46.273  -4.734  10.711  0.00  0.00    +0.000 C 
ATOM     41  C   UNL     1      46.925  -6.085  10.478  0.00  0.00    +0.000 C 
BRANCH  35  42
ATOM     42  O   UNL     1      43.037  -0.924   7.257  0.00  0.00    +0.000 OA
ATOM     43  H   UNL     1      42.097  -0.840   7.506  0.00  0.00    +0.000 HD
ENDBRANCH  35  42
BRANCH  37  44
ATOM     44  O   UNL     1      45.684  -2.260   7.406  0.00  0.00    +0.000 OA
ATOM     45  H   UNL     1      45.300  -1.917   6.577  0.00  0.00    +0.000 HD
ENDBRANCH  37  44
ENDBRANCH  30  34
ENDBRANCH   7  30
TORSDOF 8
ENDMDL
MODEL 5
REMARK VINA RESULT:      -7.3      6.849     12.044
REMARK  Name = 
REMARK  11 active torsions:
REMARK  status: ('A' for Active; 'I' for Inactive)
REMARK    1  A    between atoms: O_1  and  C_16
REMARK    2  A    between atoms: O_1  and  C_22
REMARK    3  A    between atoms: O_6  and  C_24
REMARK    4  A    between atoms: O_8  and  C_26
REMARK    5  A    between atoms: O_11  and  C_36
REMARK    6  A    between atoms: O_11  and  C_41
REMARK    7  A    between atoms: O_12  and  C_37
REMARK    8  A    between atoms: O_12  and  C_42
REMARK    9  A    between atoms: O_13  and  C_39
REMARK   10  A    between atoms: C_17  and  C_23
REMARK   11  A    between atoms: C_35  and  C_40
REMARK                            x       y       z     vdW  Elec       q    Type
REMARK                         _______ _______ _______ _____ _____    ______ ____
ROOT
ATOM      1  O   UNL     1      45.965  -0.704   6.537  0.00  0.00    +0.000 OA
ATOM      2  O   UNL     1      48.142  -0.521   7.230  0.00  0.00    +0.000 OA
ATOM      3  O   UNL     1      44.505  -5.548  13.257  0.00  0.00    +0.000 OA
ATOM      4  O   UNL     1      46.915  -5.527  13.349  0.00  0.00    +0.000 OA
ATOM      5  C   UNL     1      45.212  -2.268   8.072  0.00  0.00    +0.000 C 
ATOM      6  C   UNL     1      46.492  -1.657   8.608  0.00  0.00    +0.000 C 
ATOM      7  C   UNL     1      44.300  -2.682   9.220  0.00  0.00    +0.000 C 
ATOM      8  C   UNL     1      47.363  -2.720   9.278  0.00  0.00    +0.000 C 
ATOM      9  C   UNL     1      45.082  -3.451  10.284  0.00  0.00    +0.000 A 
ATOM     10  C   UNL     1      46.515  -3.440  10.340  0.00  0.00    +0.000 A 
ATOM     11  C   UNL     1      44.748  -1.177   7.139  0.00  0.00    +0.000 C 
ATOM     12  C   UNL     1      47.007  -0.934   7.400  0.00  0.00    +0.000 C 
ATOM     13  C   UNL     1      44.359  -4.159  11.262  0.00  0.00    +0.000 A 
ATOM     14  C   UNL     1      47.183  -4.135  11.368  0.00  0.00    +0.000 A 
ATOM     15  C   UNL     1      45.057  -4.823  12.248  0.00  0.00    +0.000 A 
ATOM     16  C   UNL     1      46.428  -4.811  12.300  0.00  0.00    +0.000 A 
ATOM     17  C   UNL     1      45.690  -5.993  13.951  0.00  0.00    +0.000 C 
ENDROOT
BRANCH   8  18
ATOM     18  C   UNL     1      48.063  -3.681   8.314  0.00  0.00    +0.000 A 
ATOM     19  C   UNL     1      49.454  -3.676   8.107  0.00  0.00    +0.000 A 
ATOM     20  C   UNL     1      47.296  -4.624   7.609  0.00  0.00    +0.000 A 
ATOM     21  C   UNL     1      47.902  -5.541   6.749  0.00  0.00    +0.000 A 
ATOM     22  C   UNL     1      50.083  -4.573   7.233  0.00  0.00    +0.000 A 
ATOM     23  C   UNL     1      49.293  -5.505   6.558  0.00  0.00    +0.000 A 
BRANCH  21  24
ATOM     24  O   UNL     1      47.246  -6.515   6.032  0.00  0.00    +0.000 OA
ATOM     25  C   UNL     1      46.786  -6.142   4.736  0.00  0.00    +0.000 C 
ENDBRANCH  21  24
BRANCH  22  26
ATOM     26  O   UNL     1      51.440  -4.401   7.178  0.00  0.00    +0.000 OA
ATOM     27  C   UNL     1      51.969  -3.599   6.133  0.00  0.00    +0.000 C 
ENDBRANCH  22  26
BRANCH  23  28
ATOM     28  O   UNL     1      49.832  -6.427   5.696  0.00  0.00    +0.000 OA
ATOM     29  H   UNL     1      50.749  -6.558   6.009  0.00  0.00    +0.000 HD
ENDBRANCH  23  28
ENDBRANCH   8  18
BRANCH   7  30
ATOM     30  O   UNL     1      43.779  -1.516   9.858  0.00  0.00    +0.000 OA
BRANCH  30  34
ATOM     31  O   UNL     1      41.782  -1.018   8.749  0.00  0.00    +0.000 OA
ATOM     32  O   UNL     1      38.493   0.102   9.956  0.00  0.00    +0.000 OA
ATOM     33  O   UNL     1      38.326  -0.405   7.654  0.00  0.00    +0.000 OA
ATOM     34  C   UNL     1      42.350  -1.523   9.960  0.00  0.00    +0.000 C 
ATOM     35  C   UNL     1      41.983  -0.652  11.184  0.00  0.00    +0.000 C 
ATOM     36  C   UNL     1      39.922   0.026   9.908  0.00  0.00    +0.000 C 
ATOM     37  C   UNL     1      40.467  -0.421  11.265  0.00  0.00    +0.000 C 
ATOM     38  C   UNL     1      40.360  -0.966   8.834  0.00  0.00    +0.000 C 
ATOM     39  C   UNL     1      39.741  -0.518   7.514  0.00  0.00    +0.000 C 
ATOM     40  C   UNL     1      37.975   0.515   8.688  0.00  0.00    +0.000 C 
ATOM     41  C   UNL     1      36.461   0.551   8.791  0.00  0.00    +0.000 C 
BRANCH  35  42
ATOM     42  O   UNL     1      42.446  -1.302  12.379  0.00  0.00    +0.000 OA
ATOM     43  H   UNL     1      43.285  -1.740  12.140  0.00  0.00    +0.000 HD
ENDBRANCH  35  42
BRANCH  37  44
ATOM     44  O   UNL     1      40.173   0.601  12.231  0.00  0.00    +0.000 OA
ATOM     45  H   UNL     1      39.389   1.073  11.891  0.00  0.00    +0.000 HD
ENDBRANCH  37  44
ENDBRANCH  30  34
ENDBRANCH   7  30
TORSDOF 8
ENDMDL
MODEL 6
REMARK VINA RESULT:      -7.3      4.673      7.971
REMARK  Name = 
REMARK  11 active torsions:
REMARK  status: ('A' for Active; 'I' for Inactive)
REMARK    1  A    between atoms: O_1  and  C_16
REMARK    2  A    between atoms: O_1  and  C_22
REMARK    3  A    between atoms: O_6  and  C_24
REMARK    4  A    between atoms: O_8  and  C_26
REMARK    5  A    between atoms: O_11  and  C_36
REMARK    6  A    between atoms: O_11  and  C_41
REMARK    7  A    between atoms: O_12  and  C_37
REMARK    8  A    between atoms: O_12  and  C_42
REMARK    9  A    between atoms: O_13  and  C_39
REMARK   10  A    between atoms: C_17  and  C_23
REMARK   11  A    between atoms: C_35  and  C_40
REMARK                            x       y       z     vdW  Elec       q    Type
REMARK                         _______ _______ _______ _____ _____    ______ ____
ROOT
ATOM      1  O   UNL     1      44.283   2.493  11.543  0.00  0.00    +0.000 OA
ATOM      2  O   UNL     1      44.364   0.570  12.788  0.00  0.00    +0.000 OA
ATOM      3  O   UNL     1      36.772   0.013   8.679  0.00  0.00    +0.000 OA
ATOM      4  O   UNL     1      37.464  -2.056   9.707  0.00  0.00    +0.000 OA
ATOM      5  C   UNL     1      42.361   2.069  10.321  0.00  0.00    +0.000 C 
ATOM      6  C   UNL     1      42.368   1.149  11.526  0.00  0.00    +0.000 C 
ATOM      7  C   UNL     1      40.930   2.407   9.920  0.00  0.00    +0.000 C 
ATOM      8  C   UNL     1      41.854  -0.241  11.152  0.00  0.00    +0.000 C 
ATOM      9  C   UNL     1      40.066   1.148   9.878  0.00  0.00    +0.000 A 
ATOM     10  C   UNL     1      40.476  -0.084  10.487  0.00  0.00    +0.000 A 
ATOM     11  C   UNL     1      43.255   3.181  10.809  0.00  0.00    +0.000 C 
ATOM     12  C   UNL     1      43.776   1.309  12.016  0.00  0.00    +0.000 C 
ATOM     13  C   UNL     1      38.808   1.222   9.250  0.00  0.00    +0.000 A 
ATOM     14  C   UNL     1      39.620  -1.204  10.453  0.00  0.00    +0.000 A 
ATOM     15  C   UNL     1      38.007   0.100   9.243  0.00  0.00    +0.000 A 
ATOM     16  C   UNL     1      38.400  -1.077   9.827  0.00  0.00    +0.000 A 
ATOM     17  C   UNL     1      36.435  -1.358   8.975  0.00  0.00    +0.000 C 
ENDROOT
BRANCH   8  18
ATOM     18  C   UNL     1      42.826  -1.088  10.328  0.00  0.00    +0.000 A 
ATOM     19  C   UNL     1      43.116  -0.820   8.978  0.00  0.00    +0.000 A 
ATOM     20  C   UNL     1      43.473  -2.176  10.937  0.00  0.00    +0.000 A 
ATOM     21  C   UNL     1      44.394  -2.950  10.229  0.00  0.00    +0.000 A 
ATOM     22  C   UNL     1      44.021  -1.596   8.240  0.00  0.00    +0.000 A 
ATOM     23  C   UNL     1      44.656  -2.661   8.880  0.00  0.00    +0.000 A 
BRANCH  21  24
ATOM     24  O   UNL     1      45.096  -4.018  10.738  0.00  0.00    +0.000 OA
ATOM     25  C   UNL     1      44.704  -4.473  12.031  0.00  0.00    +0.000 C 
ENDBRANCH  21  24
BRANCH  22  26
ATOM     26  O   UNL     1      44.162  -1.167   6.948  0.00  0.00    +0.000 OA
ATOM     27  C   UNL     1      43.307  -0.127   6.494  0.00  0.00    +0.000 C 
ENDBRANCH  22  26
BRANCH  23  28
ATOM     28  O   UNL     1      45.566  -3.460   8.233  0.00  0.00    +0.000 OA
ATOM     29  H   UNL     1      45.221  -4.369   8.335  0.00  0.00    +0.000 HD
ENDBRANCH  23  28
ENDBRANCH   8  18
BRANCH   7  30
ATOM     30  O   UNL     1      40.352   3.268  10.902  0.00  0.00    +0.000 OA
BRANCH  30  34
ATOM     31  O   UNL     1      40.182   4.557   8.959  0.00  0.00    +0.000 OA
ATOM     32  O   UNL     1      40.280   8.189   8.382  0.00  0.00    +0.000 OA
ATOM     33  O   UNL     1      39.677   7.114   6.365  0.00  0.00    +0.000 OA
ATOM     34  C   UNL     1      39.912   4.520  10.362  0.00  0.00    +0.000 C 
ATOM     35  C   UNL     1      40.665   5.629  11.131  0.00  0.00    +0.000 C 
ATOM     36  C   UNL     1      40.642   6.940   8.982  0.00  0.00    +0.000 C 
ATOM     37  C   UNL     1      40.425   7.006  10.494  0.00  0.00    +0.000 C 
ATOM     38  C   UNL     1      39.799   5.810   8.398  0.00  0.00    +0.000 C 
ATOM     39  C   UNL     1      39.997   5.824   6.886  0.00  0.00    +0.000 C 
ATOM     40  C   UNL     1      40.476   8.133   6.966  0.00  0.00    +0.000 C 
ATOM     41  C   UNL     1      40.051   9.468   6.383  0.00  0.00    +0.000 C 
BRANCH  35  42
ATOM     42  O   UNL     1      40.224   5.637  12.499  0.00  0.00    +0.000 OA
ATOM     43  H   UNL     1      39.624   6.403  12.584  0.00  0.00    +0.000 HD
ENDBRANCH  35  42
BRANCH  37  44
ATOM     44  O   UNL     1      41.336   7.972  11.043  0.00  0.00    +0.000 OA
ATOM     45  H   UNL     1      41.350   7.810  12.005  0.00  0.00    +0.000 HD
ENDBRANCH  37  44
ENDBRANCH  30  34
ENDBRANCH   7  30
TORSDOF 8
ENDMDL
MODEL 7
REMARK VINA RESULT:      -7.3     27.388     31.440
REMARK  Name = 
REMARK  11 active torsions:
REMARK  status: ('A' for Active; 'I' for Inactive)
REMARK    1  A    between atoms: O_1  and  C_16
REMARK    2  A    between atoms: O_1  and  C_22
REMARK    3  A    between atoms: O_6  and  C_24
REMARK    4  A    between atoms: O_8  and  C_26
REMARK    5  A    between atoms: O_11  and  C_36
REMARK    6  A    between atoms: O_11  and  C_41
REMARK    7  A    between atoms: O_12  and  C_37
REMARK    8  A    between atoms: O_12  and  C_42
REMARK    9  A    between atoms: O_13  and  C_39
REMARK   10  A    between atoms: C_17  and  C_23
REMARK   11  A    between atoms: C_35  and  C_40
REMARK                            x       y       z     vdW  Elec       q    Type
REMARK                         _______ _______ _______ _____ _____    ______ ____
ROOT
ATOM      1  O   UNL     1      19.886   7.575  33.723  0.00  0.00    +0.000 OA
ATOM      2  O   UNL     1      20.202   5.457  32.905  0.00  0.00    +0.000 OA
ATOM      3  O   UNL     1      16.650   4.127  40.680  0.00  0.00    +0.000 OA
ATOM      4  O   UNL     1      16.675   2.160  39.285  0.00  0.00    +0.000 OA
ATOM      5  C   UNL     1      18.703   7.062  35.648  0.00  0.00    +0.000 C 
ATOM      6  C   UNL     1      19.408   5.805  35.177  0.00  0.00    +0.000 C 
ATOM      7  C   UNL     1      18.558   7.053  37.165  0.00  0.00    +0.000 C 
ATOM      8  C   UNL     1      18.513   4.580  35.358  0.00  0.00    +0.000 C 
ATOM      9  C   UNL     1      18.037   5.702  37.652  0.00  0.00    +0.000 A 
ATOM     10  C   UNL     1      18.050   4.531  36.824  0.00  0.00    +0.000 A 
ATOM     11  C   UNL     1      19.564   8.124  35.012  0.00  0.00    +0.000 C 
ATOM     12  C   UNL     1      19.844   6.205  33.800  0.00  0.00    +0.000 C 
ATOM     13  C   UNL     1      17.567   5.605  38.976  0.00  0.00    +0.000 A 
ATOM     14  C   UNL     1      17.594   3.301  37.339  0.00  0.00    +0.000 A 
ATOM     15  C   UNL     1      17.131   4.380  39.434  0.00  0.00    +0.000 A 
ATOM     16  C   UNL     1      17.146   3.261  38.640  0.00  0.00    +0.000 A 
ATOM     17  C   UNL     1      16.361   2.717  40.578  0.00  0.00    +0.000 C 
ENDROOT
BRANCH   8  18
ATOM     18  C   UNL     1      17.358   4.471  34.359  0.00  0.00    +0.000 A 
ATOM     19  C   UNL     1      17.519   3.958  33.060  0.00  0.00    +0.000 A 
ATOM     20  C   UNL     1      16.074   4.887  34.749  0.00  0.00    +0.000 A 
ATOM     21  C   UNL     1      14.989   4.770  33.879  0.00  0.00    +0.000 A 
ATOM     22  C   UNL     1      16.448   3.850  32.161  0.00  0.00    +0.000 A 
ATOM     23  C   UNL     1      15.184   4.260  32.584  0.00  0.00    +0.000 A 
BRANCH  21  24
ATOM     24  O   UNL     1      13.692   5.125  34.170  0.00  0.00    +0.000 OA
ATOM     25  C   UNL     1      13.075   4.432  35.252  0.00  0.00    +0.000 C 
ENDBRANCH  21  24
BRANCH  22  26
ATOM     26  O   UNL     1      16.818   3.325  30.952  0.00  0.00    +0.000 OA
ATOM     27  C   UNL     1      17.968   3.861  30.315  0.00  0.00    +0.000 C 
ENDBRANCH  22  26
BRANCH  23  28
ATOM     28  O   UNL     1      14.081   4.174  31.772  0.00  0.00    +0.000 OA
ATOM     29  H   UNL     1      13.851   5.099  31.560  0.00  0.00    +0.000 HD
ENDBRANCH  23  28
ENDBRANCH   8  18
BRANCH   7  30
ATOM     30  O   UNL     1      19.839   7.238  37.766  0.00  0.00    +0.000 OA
BRANCH  30  34
ATOM     31  O   UNL     1      20.238   9.539  37.646  0.00  0.00    +0.000 OA
ATOM     32  O   UNL     1      21.752  11.916  40.009  0.00  0.00    +0.000 OA
ATOM     33  O   UNL     1      20.838  13.124  38.196  0.00  0.00    +0.000 OA
ATOM     34  C   UNL     1      19.935   8.452  38.522  0.00  0.00    +0.000 C 
ATOM     35  C   UNL     1      21.037   8.233  39.584  0.00  0.00    +0.000 C 
ATOM     36  C   UNL     1      21.585  10.675  39.315  0.00  0.00    +0.000 C 
ATOM     37  C   UNL     1      21.367   9.541  40.318  0.00  0.00    +0.000 C 
ATOM     38  C   UNL     1      20.387  10.755  38.373  0.00  0.00    +0.000 C 
ATOM     39  C   UNL     1      20.618  11.937  37.436  0.00  0.00    +0.000 C 
ATOM     40  C   UNL     1      21.951  12.983  39.077  0.00  0.00    +0.000 C 
ATOM     41  C   UNL     1      22.094  14.271  39.866  0.00  0.00    +0.000 C 
BRANCH  35  42
ATOM     42  O   UNL     1      20.594   7.240  40.525  0.00  0.00    +0.000 OA
ATOM     43  H   UNL     1      21.295   6.560  40.549  0.00  0.00    +0.000 HD
ENDBRANCH  35  42
BRANCH  37  44
ATOM     44  O   UNL     1      22.565   9.385  41.095  0.00  0.00    +0.000 OA
ATOM     45  H   UNL     1      23.252   9.904  40.635  0.00  0.00    +0.000 HD
ENDBRANCH  37  44
ENDBRANCH  30  34
ENDBRANCH   7  30
TORSDOF 8
ENDMDL
MODEL 8
REMARK VINA RESULT:      -7.3      6.523     10.604
REMARK  Name = 
REMARK  11 active torsions:
REMARK  status: ('A' for Active; 'I' for Inactive)
REMARK    1  A    between atoms: O_1  and  C_16
REMARK    2  A    between atoms: O_1  and  C_22
REMARK    3  A    between atoms: O_6  and  C_24
REMARK    4  A    between atoms: O_8  and  C_26
REMARK    5  A    between atoms: O_11  and  C_36
REMARK    6  A    between atoms: O_11  and  C_41
REMARK    7  A    between atoms: O_12  and  C_37
REMARK    8  A    between atoms: O_12  and  C_42
REMARK    9  A    between atoms: O_13  and  C_39
REMARK   10  A    between atoms: C_17  and  C_23
REMARK   11  A    between atoms: C_35  and  C_40
REMARK                            x       y       z     vdW  Elec       q    Type
REMARK                         _______ _______ _______ _____ _____    ______ ____
ROOT
ATOM      1  O   UNL     1      43.812   6.263  21.315  0.00  0.00    +0.000 OA
ATOM      2  O   UNL     1      41.874   7.466  21.539  0.00  0.00    +0.000 OA
ATOM      3  O   UNL     1      46.682  12.320  16.233  0.00  0.00    +0.000 OA
ATOM      4  O   UNL     1      44.367  12.994  16.321  0.00  0.00    +0.000 OA
ATOM      5  C   UNL     1      44.858   7.534  19.685  0.00  0.00    +0.000 C 
ATOM      6  C   UNL     1      43.767   8.378  20.316  0.00  0.00    +0.000 C 
ATOM      7  C   UNL     1      46.005   8.417  19.211  0.00  0.00    +0.000 C 
ATOM      8  C   UNL     1      43.048   9.215  19.259  0.00  0.00    +0.000 C 
ATOM      9  C   UNL     1      45.477   9.622  18.434  0.00  0.00    +0.000 A 
ATOM     10  C   UNL     1      44.102  10.024  18.483  0.00  0.00    +0.000 A 
ATOM     11  C   UNL     1      45.121   6.541  20.789  0.00  0.00    +0.000 C 
ATOM     12  C   UNL     1      43.001   7.347  21.089  0.00  0.00    +0.000 C 
ATOM     13  C   UNL     1      46.391  10.380  17.676  0.00  0.00    +0.000 A 
ATOM     14  C   UNL     1      43.678  11.168  17.777  0.00  0.00    +0.000 A 
ATOM     15  C   UNL     1      45.928  11.491  17.003  0.00  0.00    +0.000 A 
ATOM     16  C   UNL     1      44.612  11.874  17.053  0.00  0.00    +0.000 A 
ATOM     17  C   UNL     1      45.685  13.270  15.802  0.00  0.00    +0.000 C 
ENDROOT
BRANCH   8  18
ATOM     18  C   UNL     1      42.103   8.429  18.347  0.00  0.00    +0.000 A 
ATOM     19  C   UNL     1      40.772   8.138  18.697  0.00  0.00    +0.000 A 
ATOM     20  C   UNL     1      42.568   7.985  17.098  0.00  0.00    +0.000 A 
ATOM     21  C   UNL     1      41.725   7.297  16.224  0.00  0.00    +0.000 A 
ATOM     22  C   UNL     1      39.913   7.430  17.844  0.00  0.00    +0.000 A 
ATOM     23  C   UNL     1      40.403   7.015  16.605  0.00  0.00    +0.000 A 
BRANCH  21  24
ATOM     24  O   UNL     1      42.075   6.841  14.974  0.00  0.00    +0.000 OA
ATOM     25  C   UNL     1      42.771   7.761  14.137  0.00  0.00    +0.000 C 
ENDBRANCH  21  24
BRANCH  22  26
ATOM     26  O   UNL     1      38.663   7.255  18.372  0.00  0.00    +0.000 OA
ATOM     27  C   UNL     1      38.553   7.060  19.775  0.00  0.00    +0.000 C 
ENDBRANCH  22  26
BRANCH  23  28
ATOM     28  O   UNL     1      39.623   6.330  15.707  0.00  0.00    +0.000 OA
ATOM     29  H   UNL     1      40.241   5.733  15.241  0.00  0.00    +0.000 HD
ENDBRANCH  23  28
ENDBRANCH   8  18
BRANCH   7  30
ATOM     30  O   UNL     1      46.705   8.936  20.342  0.00  0.00    +0.000 OA
BRANCH  30  34
ATOM     31  O   UNL     1      48.150   7.229  19.659  0.00  0.00    +0.000 OA
ATOM     32  O   UNL     1      50.874   5.455  21.378  0.00  0.00    +0.000 OA
ATOM     33  O   UNL     1      50.873   4.823  19.101  0.00  0.00    +0.000 OA
ATOM     34  C   UNL     1      48.019   8.383  20.491  0.00  0.00    +0.000 C 
ATOM     35  C   UNL     1      48.196   8.045  21.990  0.00  0.00    +0.000 C 
ATOM     36  C   UNL     1      49.602   6.097  21.239  0.00  0.00    +0.000 C 
ATOM     37  C   UNL     1      49.491   7.256  22.230  0.00  0.00    +0.000 C 
ATOM     38  C   UNL     1      49.431   6.626  19.818  0.00  0.00    +0.000 C 
ATOM     39  C   UNL     1      49.613   5.450  18.865  0.00  0.00    +0.000 C 
ATOM     40  C   UNL     1      50.987   4.372  20.450  0.00  0.00    +0.000 C 
ATOM     41  C   UNL     1      52.361   3.750  20.623  0.00  0.00    +0.000 C 
BRANCH  35  42
ATOM     42  O   UNL     1      48.216   9.265  22.749  0.00  0.00    +0.000 OA
ATOM     43  H   UNL     1      48.951   9.796  22.386  0.00  0.00    +0.000 HD
ENDBRANCH  35  42
BRANCH  37  44
ATOM     44  O   UNL     1      49.504   6.718  23.562  0.00  0.00    +0.000 OA
ATOM     45  H   UNL     1      50.064   7.319  24.089  0.00  0.00    +0.000 HD
ENDBRANCH  37  44
ENDBRANCH  30  34
ENDBRANCH   7  30
TORSDOF 8
ENDMDL
MODEL 9
REMARK VINA RESULT:      -7.2      7.034     10.844
REMARK  Name = 
REMARK  11 active torsions:
REMARK  status: ('A' for Active; 'I' for Inactive)
REMARK    1  A    between atoms: O_1  and  C_16
REMARK    2  A    between atoms: O_1  and  C_22
REMARK    3  A    between atoms: O_6  and  C_24
REMARK    4  A    between atoms: O_8  and  C_26
REMARK    5  A    between atoms: O_11  and  C_36
REMARK    6  A    between atoms: O_11  and  C_41
REMARK    7  A    between atoms: O_12  and  C_37
REMARK    8  A    between atoms: O_12  and  C_42
REMARK    9  A    between atoms: O_13  and  C_39
REMARK   10  A    between atoms: C_17  and  C_23
REMARK   11  A    between atoms: C_35  and  C_40
REMARK                            x       y       z     vdW  Elec       q    Type
REMARK                         _______ _______ _______ _____ _____    ______ ____
ROOT
ATOM      1  O   UNL     1      44.133   6.247  21.256  0.00  0.00    +0.000 OA
ATOM      2  O   UNL     1      42.062   7.229  21.319  0.00  0.00    +0.000 OA
ATOM      3  O   UNL     1      46.682  12.539  16.289  0.00  0.00    +0.000 OA
ATOM      4  O   UNL     1      44.308  12.951  16.198  0.00  0.00    +0.000 OA
ATOM      5  C   UNL     1      45.149   7.612  19.684  0.00  0.00    +0.000 C 
ATOM      6  C   UNL     1      43.928   8.335  20.220  0.00  0.00    +0.000 C 
ATOM      7  C   UNL     1      46.223   8.613  19.279  0.00  0.00    +0.000 C 
ATOM      8  C   UNL     1      43.201   9.077  19.099  0.00  0.00    +0.000 C 
ATOM      9  C   UNL     1      45.625   9.744  18.444  0.00  0.00    +0.000 A 
ATOM     10  C   UNL     1      44.213   9.990  18.387  0.00  0.00    +0.000 A 
ATOM     11  C   UNL     1      45.438   6.665  20.822  0.00  0.00    +0.000 C 
ATOM     12  C   UNL     1      43.226   7.232  20.953  0.00  0.00    +0.000 C 
ATOM     13  C   UNL     1      46.502  10.592  17.741  0.00  0.00    +0.000 A 
ATOM     14  C   UNL     1      43.718  11.073  17.633  0.00  0.00    +0.000 A 
ATOM     15  C   UNL     1      45.970  11.638  17.018  0.00  0.00    +0.000 A 
ATOM     16  C   UNL     1      44.620  11.872  16.966  0.00  0.00    +0.000 A 
ATOM     17  C   UNL     1      45.621  13.368  15.770  0.00  0.00    +0.000 C 
ENDROOT
BRANCH   8  18
ATOM     18  C   UNL     1      42.418   8.182  18.135  0.00  0.00    +0.000 A 
ATOM     19  C   UNL     1      43.042   7.342  17.196  0.00  0.00    +0.000 A 
ATOM     20  C   UNL     1      41.014   8.180  18.189  0.00  0.00    +0.000 A 
ATOM     21  C   UNL     1      40.266   7.351  17.352  0.00  0.00    +0.000 A 
ATOM     22  C   UNL     1      42.312   6.516  16.330  0.00  0.00    +0.000 A 
ATOM     23  C   UNL     1      40.919   6.529  16.419  0.00  0.00    +0.000 A 
BRANCH  21  24
ATOM     24  O   UNL     1      38.893   7.258  17.342  0.00  0.00    +0.000 OA
ATOM     25  C   UNL     1      38.254   7.209  18.614  0.00  0.00    +0.000 C 
ENDBRANCH  21  24
BRANCH  22  26
ATOM     26  O   UNL     1      43.109   5.778  15.497  0.00  0.00    +0.000 OA
ATOM     27  C   UNL     1      44.133   6.455  14.782  0.00  0.00    +0.000 C 
ENDBRANCH  22  26
BRANCH  23  28
ATOM     28  O   UNL     1      40.131   5.740  15.618  0.00  0.00    +0.000 OA
ATOM     29  H   UNL     1      40.344   4.823  15.881  0.00  0.00    +0.000 HD
ENDBRANCH  23  28
ENDBRANCH   8  18
BRANCH   7  30
ATOM     30  O   UNL     1      46.777   9.217  20.448  0.00  0.00    +0.000 OA
BRANCH  30  34
ATOM     31  O   UNL     1      48.570   7.884  21.138  0.00  0.00    +0.000 OA
ATOM     32  O   UNL     1      51.948   8.707  22.337  0.00  0.00    +0.000 OA
ATOM     33  O   UNL     1      51.801   6.369  22.021  0.00  0.00    +0.000 OA
ATOM     34  C   UNL     1      48.205   9.115  20.511  0.00  0.00    +0.000 C 
ATOM     35  C   UNL     1      48.708  10.345  21.302  0.00  0.00    +0.000 C 
ATOM     36  C   UNL     1      50.532   8.854  22.187  0.00  0.00    +0.000 C 
ATOM     37  C   UNL     1      50.208  10.231  21.608  0.00  0.00    +0.000 C 
ATOM     38  C   UNL     1      49.985   7.772  21.260  0.00  0.00    +0.000 C 
ATOM     39  C   UNL     1      50.387   6.421  21.843  0.00  0.00    +0.000 C 
ATOM     40  C   UNL     1      52.259   7.418  22.875  0.00  0.00    +0.000 C 
ATOM     41  C   UNL     1      53.769   7.310  22.984  0.00  0.00    +0.000 C 
BRANCH  35  42
ATOM     42  O   UNL     1      48.451  11.534  20.536  0.00  0.00    +0.000 OA
ATOM     43  H   UNL     1      48.535  11.274  19.598  0.00  0.00    +0.000 HD
ENDBRANCH  35  42
BRANCH  37  44
ATOM     44  O   UNL     1      50.596  11.230  22.565  0.00  0.00    +0.000 OA
ATOM     45  H   UNL     1      51.008  11.949  22.049  0.00  0.00    +0.000 HD
ENDBRANCH  37  44
ENDBRANCH  30  34
ENDBRANCH   7  30
TORSDOF 8
ENDMDL
