MODEL 1
REMARK VINA RESULT:      -8.2      0.000      0.000
REMARK  Name = Foretinib.pdbqt.pdb
REMARK  11 active torsions:
REMARK  status: ('A' for Active; 'I' for Inactive)
REMARK    1  A    between atoms: C_2  and  N_31
REMARK    2  A    between atoms: C_7  and  O_8
REMARK    3  A    between atoms: O_8  and  C_9
REMARK    4  A    between atoms: C_17  and  O_19
REMARK    5  A    between atoms: C_18  and  O_29
REMARK    6  A    between atoms: O_19  and  C_20
REMARK    7  A    between atoms: C_21  and  C_22
REMARK    8  A    between atoms: C_22  and  N_23
REMARK    9  A    between atoms: C_32  and  C_35
REMARK   10  A    between atoms: C_35  and  C_38
REMARK   11  A    between atoms: N_40  and  C_42
REMARK                            x       y       z     vdW  Elec       q    Type
REMARK                         _______ _______ _______ _____ _____    ______ ____
ROOT
ATOM      1  F   UNL     1      26.050  -1.107   7.302  0.00  0.00    +0.000 F 
ATOM      2  C   UNL     1      22.835  -1.280   5.629  0.00  0.00    +0.000 A 
ATOM      3  C   UNL     1      23.792  -1.220   6.642  0.00  0.00    +0.000 A 
ATOM      4  C   UNL     1      23.243  -1.254   4.293  0.00  0.00    +0.000 A 
ATOM      5  C   UNL     1      25.142  -1.130   6.315  0.00  0.00    +0.000 A 
ATOM      6  C   UNL     1      24.595  -1.166   3.967  0.00  0.00    +0.000 A 
ATOM      7  C   UNL     1      25.546  -1.078   4.981  0.00  0.00    +0.000 A 
ENDROOT
BRANCH   2   8
ATOM      8  N   UNL     1      21.455  -1.373   5.888  0.00  0.00    +0.000 N 
ATOM      9  C   UNL     1      20.554  -0.322   5.831  0.00  0.00    +0.000 C 
ATOM     10  O   UNL     1      20.819   0.845   5.574  0.00  0.00    +0.000 OA
ATOM     11  H   UNL     1      21.106  -2.281   6.179  0.00  0.00    +0.000 HD
BRANCH   9  12
ATOM     12  C   UNL     1      19.142  -0.694   6.178  0.00  0.00    +0.000 C 
ATOM     13  C   UNL     1      18.380  -1.459   5.196  0.00  0.00    +0.000 C 
ATOM     14  C   UNL     1      18.072  -0.026   5.444  0.00  0.00    +0.000 C 
BRANCH  12  15
ATOM     15  C   UNL     1      18.915  -1.015   7.624  0.00  0.00    +0.000 C 
ATOM     16  O   UNL     1      18.160  -1.937   7.914  0.00  0.00    +0.000 OA
ATOM     17  N   UNL     1      19.645  -0.243   8.512  0.00  0.00    +0.000 N 
ATOM     18  H   UNL     1      20.278   0.452   8.129  0.00  0.00    +0.000 HD
BRANCH  17  19
ATOM     19  C   UNL     1      19.615  -0.363   9.914  0.00  0.00    +0.000 A 
ATOM     20  C   UNL     1      18.595   0.299  10.600  0.00  0.00    +0.000 A 
ATOM     21  C   UNL     1      18.511   0.220  11.988  0.00  0.00    +0.000 A 
ATOM     22  C   UNL     1      19.455  -0.528  12.684  0.00  0.00    +0.000 A 
ATOM     23  F   UNL     1      19.376  -0.608  14.019  0.00  0.00    +0.000 F 
ATOM     24  C   UNL     1      20.476  -1.195  12.018  0.00  0.00    +0.000 A 
ATOM     25  C   UNL     1      20.552  -1.109  10.630  0.00  0.00    +0.000 A 
ENDBRANCH  17  19
ENDBRANCH  12  15
ENDBRANCH   9  12
ENDBRANCH   2   8
BRANCH   7  26
ATOM     26  O   UNL     1      26.866  -1.058   4.602  0.00  0.00    +0.000 OA
BRANCH  26  27
ATOM     27  C   UNL     1      27.539   0.142   4.723  0.00  0.00    +0.000 A 
ATOM     28  C   UNL     1      28.923   0.150   4.489  0.00  0.00    +0.000 A 
ATOM     29  C   UNL     1      29.592   1.384   4.557  0.00  0.00    +0.000 A 
ATOM     30  C   UNL     1      29.646  -1.018   4.201  0.00  0.00    +0.000 A 
ATOM     31  N   UNL     1      28.952   2.534   4.823  0.00  0.00    +0.000 NA
ATOM     32  C   UNL     1      30.960   1.397   4.335  0.00  0.00    +0.000 A 
ATOM     33  C   UNL     1      27.617   2.486   5.029  0.00  0.00    +0.000 A 
ATOM     34  C   UNL     1      26.865   1.330   4.981  0.00  0.00    +0.000 A 
ATOM     35  C   UNL     1      31.687   0.236   4.045  0.00  0.00    +0.000 A 
ATOM     36  C   UNL     1      31.023  -0.990   3.978  0.00  0.00    +0.000 A 
BRANCH  36  37
ATOM     37  O   UNL     1      31.782  -2.102   3.699  0.00  0.00    +0.000 OA
ATOM     38  C   UNL     1      31.473  -2.762   2.501  0.00  0.00    +0.000 C 
ENDBRANCH  36  37
BRANCH  35  39
ATOM     39  O   UNL     1      33.045   0.231   3.827  0.00  0.00    +0.000 OA
BRANCH  39  40
ATOM     40  C   UNL     1      33.792   0.353   4.921  0.00  0.00    +0.000 C 
ATOM     41  C   UNL     1      34.663   0.483   6.176  0.00  0.00    +0.000 C 
BRANCH  41  42
ATOM     42  C   UNL     1      35.539   0.613   7.426  0.00  0.00    +0.000 C 
BRANCH  42  43
ATOM     43  N   UNL     1      36.372   0.734   8.614  0.00  0.00    +0.000 N 
ATOM     44  C   UNL     1      36.384  -0.608   9.272  0.00  0.00    +0.000 C 
ATOM     45  C   UNL     1      37.558  -1.633   9.389  0.00  0.00    +0.000 C 
ATOM     46  O   UNL     1      38.842  -1.659   8.969  0.00  0.00    +0.000 OA
ATOM     47  C   UNL     1      38.831  -0.450   8.370  0.00  0.00    +0.000 C 
ATOM     48  C   UNL     1      37.792   0.691   8.151  0.00  0.00    +0.000 C 
ENDBRANCH  42  43
ENDBRANCH  41  42
ENDBRANCH  39  40
ENDBRANCH  35  39
ENDBRANCH  26  27
ENDBRANCH   7  26
TORSDOF 11
ENDMDL
MODEL 2
REMARK VINA RESULT:      -8.0     17.254     22.612
REMARK  Name = Foretinib.pdbqt.pdb
REMARK  11 active torsions:
REMARK  status: ('A' for Active; 'I' for Inactive)
REMARK    1  A    between atoms: C_2  and  N_31
REMARK    2  A    between atoms: C_7  and  O_8
REMARK    3  A    between atoms: O_8  and  C_9
REMARK    4  A    between atoms: C_17  and  O_19
REMARK    5  A    between atoms: C_18  and  O_29
REMARK    6  A    between atoms: O_19  and  C_20
REMARK    7  A    between atoms: C_21  and  C_22
REMARK    8  A    between atoms: C_22  and  N_23
REMARK    9  A    between atoms: C_32  and  C_35
REMARK   10  A    between atoms: C_35  and  C_38
REMARK   11  A    between atoms: N_40  and  C_42
REMARK                            x       y       z     vdW  Elec       q    Type
REMARK                         _______ _______ _______ _____ _____    ______ ____
ROOT
ATOM      1  F   UNL     1      21.180  13.034  19.869  0.00  0.00    +0.000 F 
ATOM      2  C   UNL     1      21.756  16.286  18.367  0.00  0.00    +0.000 A 
ATOM      3  C   UNL     1      21.778  15.235  19.284  0.00  0.00    +0.000 A 
ATOM      4  C   UNL     1      21.127  16.109  17.132  0.00  0.00    +0.000 A 
ATOM      5  C   UNL     1      21.179  14.022  18.962  0.00  0.00    +0.000 A 
ATOM      6  C   UNL     1      20.526  14.894  16.811  0.00  0.00    +0.000 A 
ATOM      7  C   UNL     1      20.573  13.839  17.719  0.00  0.00    +0.000 A 
ENDROOT
BRANCH   2   8
ATOM      8  N   UNL     1      22.340  17.539  18.628  0.00  0.00    +0.000 N 
ATOM      9  C   UNL     1      21.684  18.637  19.158  0.00  0.00    +0.000 C 
ATOM     10  O   UNL     1      20.497  18.697  19.456  0.00  0.00    +0.000 OA
ATOM     11  H   UNL     1      23.315  17.652  18.365  0.00  0.00    +0.000 HD
BRANCH   9  12
ATOM     12  C   UNL     1      22.539  19.860  19.313  0.00  0.00    +0.000 C 
ATOM     13  C   UNL     1      23.181  20.395  18.117  0.00  0.00    +0.000 C 
ATOM     14  C   UNL     1      23.981  19.696  19.157  0.00  0.00    +0.000 C 
BRANCH  12  15
ATOM     15  C   UNL     1      22.045  20.848  20.326  0.00  0.00    +0.000 C 
ATOM     16  O   UNL     1      21.757  21.981  19.956  0.00  0.00    +0.000 OA
ATOM     17  N   UNL     1      21.912  20.346  21.610  0.00  0.00    +0.000 N 
ATOM     18  H   UNL     1      22.135  19.368  21.763  0.00  0.00    +0.000 HD
BRANCH  17  19
ATOM     19  C   UNL     1      21.456  21.071  22.726  0.00  0.00    +0.000 A 
ATOM     20  C   UNL     1      20.081  21.288  22.842  0.00  0.00    +0.000 A 
ATOM     21  C   UNL     1      19.568  21.998  23.925  0.00  0.00    +0.000 A 
ATOM     22  C   UNL     1      20.439  22.488  24.891  0.00  0.00    +0.000 A 
ATOM     23  F   UNL     1      19.948  23.169  25.935  0.00  0.00    +0.000 F 
ATOM     24  C   UNL     1      21.810  22.279  24.794  0.00  0.00    +0.000 A 
ATOM     25  C   UNL     1      22.314  21.569  23.708  0.00  0.00    +0.000 A 
ENDBRANCH  17  19
ENDBRANCH  12  15
ENDBRANCH   9  12
ENDBRANCH   2   8
BRANCH   7  26
ATOM     26  O   UNL     1      19.909  12.686  17.375  0.00  0.00    +0.000 OA
BRANCH  26  27
ATOM     27  C   UNL     1      20.679  11.591  17.037  0.00  0.00    +0.000 A 
ATOM     28  C   UNL     1      20.490  10.401  17.757  0.00  0.00    +0.000 A 
ATOM     29  C   UNL     1      21.236   9.275  17.370  0.00  0.00    +0.000 A 
ATOM     30  C   UNL     1      19.598  10.308  18.837  0.00  0.00    +0.000 A 
ATOM     31  N   UNL     1      22.099   9.304  16.342  0.00  0.00    +0.000 NA
ATOM     32  C   UNL     1      21.058   8.099  18.083  0.00  0.00    +0.000 A 
ATOM     33  C   UNL     1      22.243  10.465  15.666  0.00  0.00    +0.000 A 
ATOM     34  C   UNL     1      21.558  11.626  15.960  0.00  0.00    +0.000 A 
ATOM     35  C   UNL     1      20.169   7.998  19.160  0.00  0.00    +0.000 A 
ATOM     36  C   UNL     1      19.429   9.117  19.545  0.00  0.00    +0.000 A 
BRANCH  36  37
ATOM     37  O   UNL     1      18.575   8.970  20.613  0.00  0.00    +0.000 OA
ATOM     38  C   UNL     1      17.209   8.985  20.303  0.00  0.00    +0.000 C 
ENDBRANCH  36  37
BRANCH  35  39
ATOM     39  O   UNL     1      19.984   6.841  19.880  0.00  0.00    +0.000 OA
BRANCH  39  40
ATOM     40  C   UNL     1      19.162   5.956  19.322  0.00  0.00    +0.000 C 
ATOM     41  C   UNL     1      18.220   4.925  18.691  0.00  0.00    +0.000 C 
BRANCH  41  42
ATOM     42  C   UNL     1      17.276   3.892  18.067  0.00  0.00    +0.000 C 
BRANCH  42  43
ATOM     43  N   UNL     1      16.378   2.911  17.473  0.00  0.00    +0.000 N 
ATOM     44  C   UNL     1      16.537   1.650  18.259  0.00  0.00    +0.000 C 
ATOM     45  C   UNL     1      15.526   0.971  19.239  0.00  0.00    +0.000 C 
ATOM     46  O   UNL     1      14.283   1.266  19.676  0.00  0.00    +0.000 OA
ATOM     47  C   UNL     1      14.140   2.407  18.972  0.00  0.00    +0.000 C 
ATOM     48  C   UNL     1      15.005   3.229  17.969  0.00  0.00    +0.000 C 
ENDBRANCH  42  43
ENDBRANCH  41  42
ENDBRANCH  39  40
ENDBRANCH  35  39
ENDBRANCH  26  27
ENDBRANCH   7  26
TORSDOF 11
ENDMDL
MODEL 3
REMARK VINA RESULT:      -7.8      4.622     14.412
REMARK  Name = Foretinib.pdbqt.pdb
REMARK  11 active torsions:
REMARK  status: ('A' for Active; 'I' for Inactive)
REMARK    1  A    between atoms: C_2  and  N_31
REMARK    2  A    between atoms: C_7  and  O_8
REMARK    3  A    between atoms: O_8  and  C_9
REMARK    4  A    between atoms: C_17  and  O_19
REMARK    5  A    between atoms: C_18  and  O_29
REMARK    6  A    between atoms: O_19  and  C_20
REMARK    7  A    between atoms: C_21  and  C_22
REMARK    8  A    between atoms: C_22  and  N_23
REMARK    9  A    between atoms: C_32  and  C_35
REMARK   10  A    between atoms: C_35  and  C_38
REMARK   11  A    between atoms: N_40  and  C_42
REMARK                            x       y       z     vdW  Elec       q    Type
REMARK                         _______ _______ _______ _____ _____    ______ ____
ROOT
ATOM      1  F   UNL     1      21.858  -0.765  10.921  0.00  0.00    +0.000 F 
ATOM      2  C   UNL     1      22.310  -0.650   7.323  0.00  0.00    +0.000 A 
ATOM      3  C   UNL     1      22.563  -0.517   8.688  0.00  0.00    +0.000 A 
ATOM      4  C   UNL     1      21.096  -1.196   6.898  0.00  0.00    +0.000 A 
ATOM      5  C   UNL     1      21.611  -0.932   9.613  0.00  0.00    +0.000 A 
ATOM      6  C   UNL     1      20.142  -1.611   7.825  0.00  0.00    +0.000 A 
ATOM      7  C   UNL     1      20.410  -1.501   9.187  0.00  0.00    +0.000 A 
ENDROOT
BRANCH   2   8
ATOM      8  N   UNL     1      23.227  -0.250   6.333  0.00  0.00    +0.000 N 
ATOM      9  C   UNL     1      24.213  -1.051   5.781  0.00  0.00    +0.000 C 
ATOM     10  O   UNL     1      24.456  -2.213   6.083  0.00  0.00    +0.000 OA
ATOM     11  H   UNL     1      23.182   0.719   6.034  0.00  0.00    +0.000 HD
BRANCH   9  12
ATOM     12  C   UNL     1      25.073  -0.365   4.760  0.00  0.00    +0.000 C 
ATOM     13  C   UNL     1      24.488   0.743   4.013  0.00  0.00    +0.000 C 
ATOM     14  C   UNL     1      24.737  -0.566   3.355  0.00  0.00    +0.000 C 
BRANCH  12  15
ATOM     15  C   UNL     1      26.521  -0.253   5.133  0.00  0.00    +0.000 C 
ATOM     16  O   UNL     1      26.828  -0.262   6.320  0.00  0.00    +0.000 OA
ATOM     17  N   UNL     1      27.395  -0.200   4.060  0.00  0.00    +0.000 N 
ATOM     18  H   UNL     1      27.003  -0.258   3.125  0.00  0.00    +0.000 HD
BRANCH  17  19
ATOM     19  C   UNL     1      28.795  -0.107   4.152  0.00  0.00    +0.000 A 
ATOM     20  C   UNL     1      29.523  -1.298   4.203  0.00  0.00    +0.000 A 
ATOM     21  C   UNL     1      30.913  -1.272   4.294  0.00  0.00    +0.000 A 
ATOM     22  C   UNL     1      31.569  -0.047   4.332  0.00  0.00    +0.000 A 
ATOM     23  F   UNL     1      32.906  -0.019   4.418  0.00  0.00    +0.000 F 
ATOM     24  C   UNL     1      30.862   1.148   4.280  0.00  0.00    +0.000 A 
ATOM     25  C   UNL     1      29.472   1.113   4.190  0.00  0.00    +0.000 A 
ENDBRANCH  17  19
ENDBRANCH  12  15
ENDBRANCH   9  12
ENDBRANCH   2   8
BRANCH   7  26
ATOM     26  O   UNL     1      19.409  -1.864  10.054  0.00  0.00    +0.000 OA
BRANCH  26  27
ATOM     27  C   UNL     1      18.547  -0.870  10.476  0.00  0.00    +0.000 A 
ATOM     28  C   UNL     1      17.890  -1.042  11.704  0.00  0.00    +0.000 A 
ATOM     29  C   UNL     1      17.059  -0.002  12.154  0.00  0.00    +0.000 A 
ATOM     30  C   UNL     1      18.032  -2.205  12.479  0.00  0.00    +0.000 A 
ATOM     31  N   UNL     1      16.890   1.134  11.459  0.00  0.00    +0.000 NA
ATOM     32  C   UNL     1      16.401  -0.170  13.364  0.00  0.00    +0.000 A 
ATOM     33  C   UNL     1      17.550   1.266  10.287  0.00  0.00    +0.000 A 
ATOM     34  C   UNL     1      18.392   0.310   9.757  0.00  0.00    +0.000 A 
ATOM     35  C   UNL     1      16.540  -1.326  14.142  0.00  0.00    +0.000 A 
ATOM     36  C   UNL     1      17.364  -2.359  13.694  0.00  0.00    +0.000 A 
BRANCH  36  37
ATOM     37  O   UNL     1      17.461  -3.476  14.490  0.00  0.00    +0.000 OA
ATOM     38  C   UNL     1      16.769  -4.607  14.035  0.00  0.00    +0.000 C 
ENDBRANCH  36  37
BRANCH  35  39
ATOM     39  O   UNL     1      15.891  -1.510  15.341  0.00  0.00    +0.000 OA
BRANCH  39  40
ATOM     40  C   UNL     1      16.026  -0.513  16.212  0.00  0.00    +0.000 C 
ATOM     41  C   UNL     1      16.165   0.640  17.212  0.00  0.00    +0.000 C 
BRANCH  41  42
ATOM     42  C   UNL     1      16.298   1.792  18.214  0.00  0.00    +0.000 C 
BRANCH  42  43
ATOM     43  N   UNL     1      16.425   2.885  19.167  0.00  0.00    +0.000 N 
ATOM     44  C   UNL     1      17.708   2.668  19.904  0.00  0.00    +0.000 C 
ATOM     45  C   UNL     1      19.035   3.491  19.825  0.00  0.00    +0.000 C 
ATOM     46  O   UNL     1      19.441   4.573  19.126  0.00  0.00    +0.000 OA
ATOM     47  C   UNL     1      18.287   4.766  18.457  0.00  0.00    +0.000 C 
ATOM     48  C   UNL     1      16.889   4.077  18.396  0.00  0.00    +0.000 C 
ENDBRANCH  42  43
ENDBRANCH  41  42
ENDBRANCH  39  40
ENDBRANCH  35  39
ENDBRANCH  26  27
ENDBRANCH   7  26
TORSDOF 11
ENDMDL
MODEL 4
REMARK VINA RESULT:      -7.8     16.796     22.269
REMARK  Name = Foretinib.pdbqt.pdb
REMARK  11 active torsions:
REMARK  status: ('A' for Active; 'I' for Inactive)
REMARK    1  A    between atoms: C_2  and  N_31
REMARK    2  A    between atoms: C_7  and  O_8
REMARK    3  A    between atoms: O_8  and  C_9
REMARK    4  A    between atoms: C_17  and  O_19
REMARK    5  A    between atoms: C_18  and  O_29
REMARK    6  A    between atoms: O_19  and  C_20
REMARK    7  A    between atoms: C_21  and  C_22
REMARK    8  A    between atoms: C_22  and  N_23
REMARK    9  A    between atoms: C_32  and  C_35
REMARK   10  A    between atoms: C_35  and  C_38
REMARK   11  A    between atoms: N_40  and  C_42
REMARK                            x       y       z     vdW  Elec       q    Type
REMARK                         _______ _______ _______ _____ _____    ______ ____
ROOT
ATOM      1  F   UNL     1      20.417  14.757  15.013  0.00  0.00    +0.000 F 
ATOM      2  C   UNL     1      21.699  16.039  18.155  0.00  0.00    +0.000 A 
ATOM      3  C   UNL     1      21.336  15.969  16.810  0.00  0.00    +0.000 A 
ATOM      4  C   UNL     1      21.452  14.949  18.993  0.00  0.00    +0.000 A 
ATOM      5  C   UNL     1      20.728  14.820  16.316  0.00  0.00    +0.000 A 
ATOM      6  C   UNL     1      20.844  13.798  18.497  0.00  0.00    +0.000 A 
ATOM      7  C   UNL     1      20.459  13.742  17.159  0.00  0.00    +0.000 A 
ENDROOT
BRANCH   2   8
ATOM      8  N   UNL     1      22.317  17.170  18.721  0.00  0.00    +0.000 N 
ATOM      9  C   UNL     1      21.697  18.382  18.977  0.00  0.00    +0.000 C 
ATOM     10  O   UNL     1      20.532  18.665  18.730  0.00  0.00    +0.000 OA
ATOM     11  H   UNL     1      23.311  17.096  18.917  0.00  0.00    +0.000 HD
BRANCH   9  12
ATOM     12  C   UNL     1      22.597  19.430  19.563  0.00  0.00    +0.000 C 
ATOM     13  C   UNL     1      22.899  19.347  20.988  0.00  0.00    +0.000 C 
ATOM     14  C   UNL     1      21.995  20.404  20.466  0.00  0.00    +0.000 C 
BRANCH  12  15
ATOM     15  C   UNL     1      23.697  19.892  18.654  0.00  0.00    +0.000 C 
ATOM     16  O   UNL     1      23.829  19.349  17.564  0.00  0.00    +0.000 OA
ATOM     17  N   UNL     1      24.441  20.955  19.137  0.00  0.00    +0.000 N 
ATOM     18  H   UNL     1      24.183  21.345  20.039  0.00  0.00    +0.000 HD
BRANCH  17  19
ATOM     19  C   UNL     1      25.512  21.573  18.467  0.00  0.00    +0.000 A 
ATOM     20  C   UNL     1      25.208  22.430  17.407  0.00  0.00    +0.000 A 
ATOM     21  C   UNL     1      26.225  23.071  16.704  0.00  0.00    +0.000 A 
ATOM     22  C   UNL     1      27.548  22.850  17.069  0.00  0.00    +0.000 A 
ATOM     23  F   UNL     1      28.528  23.467  16.396  0.00  0.00    +0.000 F 
ATOM     24  C   UNL     1      27.870  22.002  18.123  0.00  0.00    +0.000 A 
ATOM     25  C   UNL     1      26.847  21.364  18.819  0.00  0.00    +0.000 A 
ENDBRANCH  17  19
ENDBRANCH  12  15
ENDBRANCH   9  12
ENDBRANCH   2   8
BRANCH   7  26
ATOM     26  O   UNL     1      19.924  12.559  16.711  0.00  0.00    +0.000 OA
BRANCH  26  27
ATOM     27  C   UNL     1      20.779  11.480  16.604  0.00  0.00    +0.000 A 
ATOM     28  C   UNL     1      20.551  10.372  17.436  0.00  0.00    +0.000 A 
ATOM     29  C   UNL     1      21.390   9.254  17.282  0.00  0.00    +0.000 A 
ATOM     30  C   UNL     1      19.534  10.351  18.403  0.00  0.00    +0.000 A 
ATOM     31  N   UNL     1      22.375   9.216  16.372  0.00  0.00    +0.000 NA
ATOM     32  C   UNL     1      21.175   8.160  18.107  0.00  0.00    +0.000 A 
ATOM     33  C   UNL     1      22.553  10.298  15.581  0.00  0.00    +0.000 A 
ATOM     34  C   UNL     1      21.785  11.442  15.646  0.00  0.00    +0.000 A 
ATOM     35  C   UNL     1      20.161   8.132  19.072  0.00  0.00    +0.000 A 
ATOM     36  C   UNL     1      19.329   9.243  19.224  0.00  0.00    +0.000 A 
BRANCH  36  37
ATOM     37  O   UNL     1      18.353   9.169  20.191  0.00  0.00    +0.000 OA
ATOM     38  C   UNL     1      18.287  10.258  21.070  0.00  0.00    +0.000 C 
ENDBRANCH  36  37
BRANCH  35  39
ATOM     39  O   UNL     1      19.937   7.057  19.900  0.00  0.00    +0.000 OA
BRANCH  39  40
ATOM     40  C   UNL     1      19.227   6.070  19.361  0.00  0.00    +0.000 C 
ATOM     41  C   UNL     1      18.396   4.935  18.751  0.00  0.00    +0.000 C 
BRANCH  41  42
ATOM     42  C   UNL     1      17.560   3.804  18.143  0.00  0.00    +0.000 C 
BRANCH  42  43
ATOM     43  N   UNL     1      16.766   2.729  17.565  0.00  0.00    +0.000 N 
ATOM     44  C   UNL     1      16.482   1.762  18.670  0.00  0.00    +0.000 C 
ATOM     45  C   UNL     1      15.124   1.459  19.383  0.00  0.00    +0.000 C 
ATOM     46  O   UNL     1      13.863   1.928  19.262  0.00  0.00    +0.000 OA
ATOM     47  C   UNL     1      14.119   2.804  18.270  0.00  0.00    +0.000 C 
ATOM     48  C   UNL     1      15.368   3.242  17.446  0.00  0.00    +0.000 C 
ENDBRANCH  42  43
ENDBRANCH  41  42
ENDBRANCH  39  40
ENDBRANCH  35  39
ENDBRANCH  26  27
ENDBRANCH   7  26
TORSDOF 11
ENDMDL
MODEL 5
REMARK VINA RESULT:      -7.6      4.225     13.997
REMARK  Name = Foretinib.pdbqt.pdb
REMARK  11 active torsions:
REMARK  status: ('A' for Active; 'I' for Inactive)
REMARK    1  A    between atoms: C_2  and  N_31
REMARK    2  A    between atoms: C_7  and  O_8
REMARK    3  A    between atoms: O_8  and  C_9
REMARK    4  A    between atoms: C_17  and  O_19
REMARK    5  A    between atoms: C_18  and  O_29
REMARK    6  A    between atoms: O_19  and  C_20
REMARK    7  A    between atoms: C_21  and  C_22
REMARK    8  A    between atoms: C_22  and  N_23
REMARK    9  A    between atoms: C_32  and  C_35
REMARK   10  A    between atoms: C_35  and  C_38
REMARK   11  A    between atoms: N_40  and  C_42
REMARK                            x       y       z     vdW  Elec       q    Type
REMARK                         _______ _______ _______ _____ _____    ______ ____
ROOT
ATOM      1  F   UNL     1      19.271   0.508   4.831  0.00  0.00    +0.000 F 
ATOM      2  C   UNL     1      22.710   1.197   5.761  0.00  0.00    +0.000 A 
ATOM      3  C   UNL     1      21.516   1.189   5.040  0.00  0.00    +0.000 A 
ATOM      4  C   UNL     1      22.775   0.542   6.993  0.00  0.00    +0.000 A 
ATOM      5  C   UNL     1      20.401   0.534   5.554  0.00  0.00    +0.000 A 
ATOM      6  C   UNL     1      21.658  -0.115   7.506  0.00  0.00    +0.000 A 
ATOM      7  C   UNL     1      20.460  -0.098   6.796  0.00  0.00    +0.000 A 
ENDROOT
BRANCH   2   8
ATOM      8  N   UNL     1      23.875   1.838   5.300  0.00  0.00    +0.000 N 
ATOM      9  C   UNL     1      25.001   1.200   4.806  0.00  0.00    +0.000 C 
ATOM     10  O   UNL     1      25.168  -0.010   4.719  0.00  0.00    +0.000 OA
ATOM     11  H   UNL     1      23.899   2.851   5.376  0.00  0.00    +0.000 HD
BRANCH   9  12
ATOM     12  C   UNL     1      26.114   2.123   4.404  0.00  0.00    +0.000 C 
ATOM     13  C   UNL     1      25.852   3.558   4.440  0.00  0.00    +0.000 C 
ATOM     14  C   UNL     1      25.969   2.842   3.143  0.00  0.00    +0.000 C 
BRANCH  12  15
ATOM     15  C   UNL     1      27.484   1.665   4.805  0.00  0.00    +0.000 C 
ATOM     16  O   UNL     1      27.876   1.899   5.943  0.00  0.00    +0.000 OA
ATOM     17  N   UNL     1      28.168   0.957   3.831  0.00  0.00    +0.000 N 
ATOM     18  H   UNL     1      27.697   0.788   2.948  0.00  0.00    +0.000 HD
BRANCH  17  19
ATOM     19  C   UNL     1      29.458   0.414   3.971  0.00  0.00    +0.000 A 
ATOM     20  C   UNL     1      30.535   1.301   4.015  0.00  0.00    +0.000 A 
ATOM     21  C   UNL     1      31.837   0.825   4.152  0.00  0.00    +0.000 A 
ATOM     22  C   UNL     1      32.053  -0.545   4.247  0.00  0.00    +0.000 A 
ATOM     23  F   UNL     1      33.303  -1.007   4.381  0.00  0.00    +0.000 F 
ATOM     24  C   UNL     1      30.993  -1.444   4.208  0.00  0.00    +0.000 A 
ATOM     25  C   UNL     1      29.695  -0.959   4.070  0.00  0.00    +0.000 A 
ENDBRANCH  17  19
ENDBRANCH  12  15
ENDBRANCH   9  12
ENDBRANCH   2   8
BRANCH   7  26
ATOM     26  O   UNL     1      19.412  -0.815   7.319  0.00  0.00    +0.000 OA
BRANCH  26  27
ATOM     27  C   UNL     1      18.624  -0.184   8.261  0.00  0.00    +0.000 A 
ATOM     28  C   UNL     1      18.639  -0.680   9.574  0.00  0.00    +0.000 A 
ATOM     29  C   UNL     1      17.879   0.001  10.541  0.00  0.00    +0.000 A 
ATOM     30  C   UNL     1      19.373  -1.819   9.941  0.00  0.00    +0.000 A 
ATOM     31  N   UNL     1      17.162   1.098  10.249  0.00  0.00    +0.000 NA
ATOM     32  C   UNL     1      17.884  -0.489  11.838  0.00  0.00    +0.000 A 
ATOM     33  C   UNL     1      17.184   1.551   8.975  0.00  0.00    +0.000 A 
ATOM     34  C   UNL     1      17.899   0.961   7.953  0.00  0.00    +0.000 A 
ATOM     35  C   UNL     1      18.615  -1.624  12.211  0.00  0.00    +0.000 A 
ATOM     36  C   UNL     1      19.369  -2.300  11.251  0.00  0.00    +0.000 A 
BRANCH  36  37
ATOM     37  O   UNL     1      20.063  -3.412  11.666  0.00  0.00    +0.000 OA
ATOM     38  C   UNL     1      19.713  -4.615  11.037  0.00  0.00    +0.000 C 
ENDBRANCH  36  37
BRANCH  35  39
ATOM     39  O   UNL     1      18.628  -2.125  13.492  0.00  0.00    +0.000 OA
BRANCH  39  40
ATOM     40  C   UNL     1      17.924  -1.424  14.377  0.00  0.00    +0.000 C 
ATOM     41  C   UNL     1      17.117  -0.602  15.389  0.00  0.00    +0.000 C 
BRANCH  41  42
ATOM     42  C   UNL     1      16.308   0.224  16.394  0.00  0.00    +0.000 C 
BRANCH  42  43
ATOM     43  N   UNL     1      15.539   1.010  17.349  0.00  0.00    +0.000 N 
ATOM     44  C   UNL     1      15.739   0.376  18.689  0.00  0.00    +0.000 C 
ATOM     45  C   UNL     1      16.534   0.919  19.921  0.00  0.00    +0.000 C 
ATOM     46  O   UNL     1      17.250   2.036  20.173  0.00  0.00    +0.000 OA
ATOM     47  C   UNL     1      17.075   2.606  18.963  0.00  0.00    +0.000 C 
ATOM     48  C   UNL     1      16.338   2.238  17.639  0.00  0.00    +0.000 C 
ENDBRANCH  42  43
ENDBRANCH  41  42
ENDBRANCH  39  40
ENDBRANCH  35  39
ENDBRANCH  26  27
ENDBRANCH   7  26
TORSDOF 11
ENDMDL
MODEL 6
REMARK VINA RESULT:      -7.4      6.118     16.180
REMARK  Name = Foretinib.pdbqt.pdb
REMARK  11 active torsions:
REMARK  status: ('A' for Active; 'I' for Inactive)
REMARK    1  A    between atoms: C_2  and  N_31
REMARK    2  A    between atoms: C_7  and  O_8
REMARK    3  A    between atoms: O_8  and  C_9
REMARK    4  A    between atoms: C_17  and  O_19
REMARK    5  A    between atoms: C_18  and  O_29
REMARK    6  A    between atoms: O_19  and  C_20
REMARK    7  A    between atoms: C_21  and  C_22
REMARK    8  A    between atoms: C_22  and  N_23
REMARK    9  A    between atoms: C_32  and  C_35
REMARK   10  A    between atoms: C_35  and  C_38
REMARK   11  A    between atoms: N_40  and  C_42
REMARK                            x       y       z     vdW  Elec       q    Type
REMARK                         _______ _______ _______ _____ _____    ______ ____
ROOT
ATOM      1  F   UNL     1      17.922  -0.306  10.244  0.00  0.00    +0.000 F 
ATOM      2  C   UNL     1      21.145  -1.707   9.339  0.00  0.00    +0.000 A 
ATOM      3  C   UNL     1      19.875  -1.139   9.226  0.00  0.00    +0.000 A 
ATOM      4  C   UNL     1      21.678  -1.954  10.606  0.00  0.00    +0.000 A 
ATOM      5  C   UNL     1      19.154  -0.820  10.372  0.00  0.00    +0.000 A 
ATOM      6  C   UNL     1      20.955  -1.634  11.753  0.00  0.00    +0.000 A 
ATOM      7  C   UNL     1      19.700  -1.043  11.637  0.00  0.00    +0.000 A 
ENDROOT
BRANCH   2   8
ATOM      8  N   UNL     1      21.927  -2.056   8.222  0.00  0.00    +0.000 N 
ATOM      9  C   UNL     1      22.633  -1.168   7.427  0.00  0.00    +0.000 C 
ATOM     10  O   UNL     1      22.666   0.049   7.554  0.00  0.00    +0.000 OA
ATOM     11  H   UNL     1      21.936  -3.037   7.960  0.00  0.00    +0.000 HD
BRANCH   9  12
ATOM     12  C   UNL     1      23.367  -1.805   6.283  0.00  0.00    +0.000 C 
ATOM     13  C   UNL     1      22.632  -2.747   5.445  0.00  0.00    +0.000 C 
ATOM     14  C   UNL     1      23.674  -3.226   6.390  0.00  0.00    +0.000 C 
BRANCH  12  15
ATOM     15  C   UNL     1      24.363  -0.914   5.603  0.00  0.00    +0.000 C 
ATOM     16  O   UNL     1      23.970  -0.148   4.730  0.00  0.00    +0.000 OA
ATOM     17  N   UNL     1      25.657  -1.016   6.083  0.00  0.00    +0.000 N 
ATOM     18  H   UNL     1      25.829  -1.656   6.853  0.00  0.00    +0.000 HD
BRANCH  17  19
ATOM     19  C   UNL     1      26.761  -0.278   5.619  0.00  0.00    +0.000 A 
ATOM     20  C   UNL     1      27.722  -0.953   4.864  0.00  0.00    +0.000 A 
ATOM     21  C   UNL     1      28.838  -0.277   4.376  0.00  0.00    +0.000 A 
ATOM     22  C   UNL     1      28.985   1.078   4.648  0.00  0.00    +0.000 A 
ATOM     23  F   UNL     1      30.056   1.731   4.178  0.00  0.00    +0.000 F 
ATOM     24  C   UNL     1      28.037   1.767   5.396  0.00  0.00    +0.000 A 
ATOM     25  C   UNL     1      26.925   1.083   5.881  0.00  0.00    +0.000 A 
ENDBRANCH  17  19
ENDBRANCH  12  15
ENDBRANCH   9  12
ENDBRANCH   2   8
BRANCH   7  26
ATOM     26  O   UNL     1      19.006  -0.810  12.799  0.00  0.00    +0.000 OA
BRANCH  26  27
ATOM     27  C   UNL     1      18.105  -1.776  13.201  0.00  0.00    +0.000 A 
ATOM     28  C   UNL     1      17.135  -1.421  14.152  0.00  0.00    +0.000 A 
ATOM     29  C   UNL     1      16.186  -2.393  14.514  0.00  0.00    +0.000 A 
ATOM     30  C   UNL     1      17.092  -0.150  14.745  0.00  0.00    +0.000 A 
ATOM     31  N   UNL     1      16.176  -3.622  13.976  0.00  0.00    +0.000 NA
ATOM     32  C   UNL     1      15.231  -2.050  15.459  0.00  0.00    +0.000 A 
ATOM     33  C   UNL     1      17.119  -3.921  13.054  0.00  0.00    +0.000 A 
ATOM     34  C   UNL     1      18.092  -3.042  12.625  0.00  0.00    +0.000 A 
ATOM     35  C   UNL     1      15.181  -0.783  16.054  0.00  0.00    +0.000 A 
ATOM     36  C   UNL     1      16.124   0.181  15.694  0.00  0.00    +0.000 A 
BRANCH  36  37
ATOM     37  O   UNL     1      16.037   1.407  16.312  0.00  0.00    +0.000 OA
ATOM     38  C   UNL     1      15.484   2.437  15.539  0.00  0.00    +0.000 C 
ENDBRANCH  36  37
BRANCH  35  39
ATOM     39  O   UNL     1      14.243  -0.428  16.995  0.00  0.00    +0.000 OA
BRANCH  39  40
ATOM     40  C   UNL     1      13.982  -1.361  17.909  0.00  0.00    +0.000 C 
ATOM     41  C   UNL     1      13.689  -2.423  18.973  0.00  0.00    +0.000 C 
BRANCH  41  42
ATOM     42  C   UNL     1      13.392  -3.481  20.042  0.00  0.00    +0.000 C 
BRANCH  42  43
ATOM     43  N   UNL     1      13.110  -4.485  21.058  0.00  0.00    +0.000 N 
ATOM     44  C   UNL     1      12.929  -5.784  20.341  0.00  0.00    +0.000 C 
ATOM     45  C   UNL     1      13.861  -7.040  20.335  0.00  0.00    +0.000 C 
ATOM     46  O   UNL     1      15.040  -7.350  20.916  0.00  0.00    +0.000 OA
ATOM     47  C   UNL     1      15.208  -6.176  21.559  0.00  0.00    +0.000 C 
ATOM     48  C   UNL     1      14.417  -4.838  21.689  0.00  0.00    +0.000 C 
ENDBRANCH  42  43
ENDBRANCH  41  42
ENDBRANCH  39  40
ENDBRANCH  35  39
ENDBRANCH  26  27
ENDBRANCH   7  26
TORSDOF 11
ENDMDL
MODEL 7
REMARK VINA RESULT:      -7.4     13.516     20.223
REMARK  Name = Foretinib.pdbqt.pdb
REMARK  11 active torsions:
REMARK  status: ('A' for Active; 'I' for Inactive)
REMARK    1  A    between atoms: C_2  and  N_31
REMARK    2  A    between atoms: C_7  and  O_8
REMARK    3  A    between atoms: O_8  and  C_9
REMARK    4  A    between atoms: C_17  and  O_19
REMARK    5  A    between atoms: C_18  and  O_29
REMARK    6  A    between atoms: O_19  and  C_20
REMARK    7  A    between atoms: C_21  and  C_22
REMARK    8  A    between atoms: C_22  and  N_23
REMARK    9  A    between atoms: C_32  and  C_35
REMARK   10  A    between atoms: C_35  and  C_38
REMARK   11  A    between atoms: N_40  and  C_42
REMARK                            x       y       z     vdW  Elec       q    Type
REMARK                         _______ _______ _______ _____ _____    ______ ____
ROOT
ATOM      1  F   UNL     1      42.678  -0.106  11.478  0.00  0.00    +0.000 F 
ATOM      2  C   UNL     1      44.691  -2.342   9.450  0.00  0.00    +0.000 A 
ATOM      3  C   UNL     1      44.127  -1.722  10.566  0.00  0.00    +0.000 A 
ATOM      4  C   UNL     1      44.307  -1.938   8.170  0.00  0.00    +0.000 A 
ATOM      5  C   UNL     1      43.184  -0.713  10.395  0.00  0.00    +0.000 A 
ATOM      6  C   UNL     1      43.364  -0.926   8.000  0.00  0.00    +0.000 A 
ATOM      7  C   UNL     1      42.783  -0.329   9.115  0.00  0.00    +0.000 A 
ENDROOT
BRANCH   2   8
ATOM      8  N   UNL     1      45.650  -3.367   9.551  0.00  0.00    +0.000 N 
ATOM      9  C   UNL     1      45.669  -4.358  10.519  0.00  0.00    +0.000 C 
ATOM     10  O   UNL     1      44.877  -4.480  11.445  0.00  0.00    +0.000 OA
ATOM     11  H   UNL     1      46.410  -3.349   8.877  0.00  0.00    +0.000 HD
BRANCH   9  12
ATOM     12  C   UNL     1      46.820  -5.314  10.409  0.00  0.00    +0.000 C 
ATOM     13  C   UNL     1      46.690  -6.611  11.065  0.00  0.00    +0.000 C 
ATOM     14  C   UNL     1      47.599  -5.571  11.615  0.00  0.00    +0.000 C 
BRANCH  12  15
ATOM     15  C   UNL     1      47.541  -5.280   9.095  0.00  0.00    +0.000 C 
ATOM     16  O   UNL     1      48.766  -5.232   9.094  0.00  0.00    +0.000 OA
ATOM     17  N   UNL     1      46.723  -5.359   7.981  0.00  0.00    +0.000 N 
ATOM     18  H   UNL     1      45.723  -5.451   8.131  0.00  0.00    +0.000 HD
BRANCH  17  19
ATOM     19  C   UNL     1      47.161  -5.359   6.644  0.00  0.00    +0.000 A 
ATOM     20  C   UNL     1      47.487  -4.129   6.067  0.00  0.00    +0.000 A 
ATOM     21  C   UNL     1      47.927  -4.064   4.747  0.00  0.00    +0.000 A 
ATOM     22  C   UNL     1      48.040  -5.237   4.009  0.00  0.00    +0.000 A 
ATOM     23  F   UNL     1      48.466  -5.177   2.740  0.00  0.00    +0.000 F 
ATOM     24  C   UNL     1      47.723  -6.470   4.567  0.00  0.00    +0.000 A 
ATOM     25  C   UNL     1      47.283  -6.526   5.887  0.00  0.00    +0.000 A 
ENDBRANCH  17  19
ENDBRANCH  12  15
ENDBRANCH   9  12
ENDBRANCH   2   8
BRANCH   7  26
ATOM     26  O   UNL     1      41.908   0.706   8.888  0.00  0.00    +0.000 OA
BRANCH  26  27
ATOM     27  C   UNL     1      40.569   0.463   9.120  0.00  0.00    +0.000 A 
ATOM     28  C   UNL     1      39.884   1.316   9.999  0.00  0.00    +0.000 A 
ATOM     29  C   UNL     1      38.509   1.098  10.187  0.00  0.00    +0.000 A 
ATOM     30  C   UNL     1      40.524   2.358  10.689  0.00  0.00    +0.000 A 
ATOM     31  N   UNL     1      37.843   0.121   9.551  0.00  0.00    +0.000 NA
ATOM     32  C   UNL     1      37.829   1.934  11.060  0.00  0.00    +0.000 A 
ATOM     33  C   UNL     1      38.536  -0.672   8.702  0.00  0.00    +0.000 A 
ATOM     34  C   UNL     1      39.885  -0.541   8.443  0.00  0.00    +0.000 A 
ATOM     35  C   UNL     1      38.461   2.976  11.750  0.00  0.00    +0.000 A 
ATOM     36  C   UNL     1      39.827   3.192  11.564  0.00  0.00    +0.000 A 
BRANCH  36  37
ATOM     37  O   UNL     1      40.402   4.223  12.270  0.00  0.00    +0.000 OA
ATOM     38  C   UNL     1      41.216   3.842  13.345  0.00  0.00    +0.000 C 
ENDBRANCH  36  37
BRANCH  35  39
ATOM     39  O   UNL     1      37.803   3.811  12.623  0.00  0.00    +0.000 OA
BRANCH  39  40
ATOM     40  C   UNL     1      37.248   3.205  13.670  0.00  0.00    +0.000 C 
ATOM     41  C   UNL     1      36.608   2.493  14.867  0.00  0.00    +0.000 C 
BRANCH  41  42
ATOM     42  C   UNL     1      35.972   1.776  16.062  0.00  0.00    +0.000 C 
BRANCH  42  43
ATOM     43  N   UNL     1      35.366   1.094  17.197  0.00  0.00    +0.000 N 
ATOM     44  C   UNL     1      34.305   0.198  16.645  0.00  0.00    +0.000 C 
ATOM     45  C   UNL     1      34.281  -1.364  16.568  0.00  0.00    +0.000 C 
ATOM     46  O   UNL     1      35.134  -2.345  16.933  0.00  0.00    +0.000 OA
ATOM     47  C   UNL     1      36.095  -1.538  17.426  0.00  0.00    +0.000 C 
ATOM     48  C   UNL     1      36.303  -0.002  17.591  0.00  0.00    +0.000 C 
ENDBRANCH  42  43
ENDBRANCH  41  42
ENDBRANCH  39  40
ENDBRANCH  35  39
ENDBRANCH  26  27
ENDBRANCH   7  26
TORSDOF 11
ENDMDL
MODEL 8
REMARK VINA RESULT:      -7.1     19.297     26.294
REMARK  Name = Foretinib.pdbqt.pdb
REMARK  11 active torsions:
REMARK  status: ('A' for Active; 'I' for Inactive)
REMARK    1  A    between atoms: C_2  and  N_31
REMARK    2  A    between atoms: C_7  and  O_8
REMARK    3  A    between atoms: O_8  and  C_9
REMARK    4  A    between atoms: C_17  and  O_19
REMARK    5  A    between atoms: C_18  and  O_29
REMARK    6  A    between atoms: O_19  and  C_20
REMARK    7  A    between atoms: C_21  and  C_22
REMARK    8  A    between atoms: C_22  and  N_23
REMARK    9  A    between atoms: C_32  and  C_35
REMARK   10  A    between atoms: C_35  and  C_38
REMARK   11  A    between atoms: N_40  and  C_42
REMARK                            x       y       z     vdW  Elec       q    Type
REMARK                         _______ _______ _______ _____ _____    ______ ____
ROOT
ATOM      1  F   UNL     1      13.847  13.823  25.083  0.00  0.00    +0.000 F 
ATOM      2  C   UNL     1      17.368  13.227  24.442  0.00  0.00    +0.000 A 
ATOM      3  C   UNL     1      15.997  13.376  24.232  0.00  0.00    +0.000 A 
ATOM      4  C   UNL     1      17.895  13.418  25.721  0.00  0.00    +0.000 A 
ATOM      5  C   UNL     1      15.167  13.717  25.295  0.00  0.00    +0.000 A 
ATOM      6  C   UNL     1      17.063  13.759  26.786  0.00  0.00    +0.000 A 
ATOM      7  C   UNL     1      15.698  13.933  26.567  0.00  0.00    +0.000 A 
ENDROOT
BRANCH   2   8
ATOM      8  N   UNL     1      18.264  12.882  23.412  0.00  0.00    +0.000 N 
ATOM      9  C   UNL     1      18.202  11.730  22.645  0.00  0.00    +0.000 C 
ATOM     10  O   UNL     1      17.381  10.828  22.759  0.00  0.00    +0.000 OA
ATOM     11  H   UNL     1      19.042  13.516  23.252  0.00  0.00    +0.000 HD
BRANCH   9  12
ATOM     12  C   UNL     1      19.298  11.598  21.630  0.00  0.00    +0.000 C 
ATOM     13  C   UNL     1      20.344  12.615  21.623  0.00  0.00    +0.000 C 
ATOM     14  C   UNL     1      19.327  12.568  20.541  0.00  0.00    +0.000 C 
BRANCH  12  15
ATOM     15  C   UNL     1      19.711  10.187  21.332  0.00  0.00    +0.000 C 
ATOM     16  O   UNL     1      20.616   9.685  21.988  0.00  0.00    +0.000 OA
ATOM     17  N   UNL     1      18.967   9.560  20.347  0.00  0.00    +0.000 N 
ATOM     18  H   UNL     1      18.205  10.081  19.923  0.00  0.00    +0.000 HD
BRANCH  17  19
ATOM     19  C   UNL     1      19.151   8.239  19.901  0.00  0.00    +0.000 A 
ATOM     20  C   UNL     1      18.462   7.225  20.570  0.00  0.00    +0.000 A 
ATOM     21  C   UNL     1      18.603   5.897  20.176  0.00  0.00    +0.000 A 
ATOM     22  C   UNL     1      19.438   5.589  19.108  0.00  0.00    +0.000 A 
ATOM     23  F   UNL     1      19.574   4.313  18.725  0.00  0.00    +0.000 F 
ATOM     24  C   UNL     1      20.130   6.585  18.428  0.00  0.00    +0.000 A 
ATOM     25  C   UNL     1      19.984   7.910  18.830  0.00  0.00    +0.000 A 
ENDBRANCH  17  19
ENDBRANCH  12  15
ENDBRANCH   9  12
ENDBRANCH   2   8
BRANCH   7  26
ATOM     26  O   UNL     1      14.918  14.205  27.664  0.00  0.00    +0.000 OA
BRANCH  26  27
ATOM     27  C   UNL     1      15.242  13.565  28.844  0.00  0.00    +0.000 A 
ATOM     28  C   UNL     1      15.120  12.167  28.893  0.00  0.00    +0.000 A 
ATOM     29  C   UNL     1      15.506  11.517  30.078  0.00  0.00    +0.000 A 
ATOM     30  C   UNL     1      14.626  11.415  27.815  0.00  0.00    +0.000 A 
ATOM     31  N   UNL     1      15.990  12.183  31.138  0.00  0.00    +0.000 NA
ATOM     32  C   UNL     1      15.381  10.137  30.135  0.00  0.00    +0.000 A 
ATOM     33  C   UNL     1      16.104  13.527  31.046  0.00  0.00    +0.000 A 
ATOM     34  C   UNL     1      15.759  14.261  29.931  0.00  0.00    +0.000 A 
ATOM     35  C   UNL     1      14.891   9.380  29.062  0.00  0.00    +0.000 A 
ATOM     36  C   UNL     1      14.507  10.027  27.886  0.00  0.00    +0.000 A 
BRANCH  36  37
ATOM     37  O   UNL     1      14.025   9.241  26.866  0.00  0.00    +0.000 OA
ATOM     38  C   UNL     1      14.043   9.824  25.592  0.00  0.00    +0.000 C 
ENDBRANCH  36  37
BRANCH  35  39
ATOM     39  O   UNL     1      14.756   8.013  29.104  0.00  0.00    +0.000 OA
BRANCH  39  40
ATOM     40  C   UNL     1      15.280   7.428  30.178  0.00  0.00    +0.000 C 
ATOM     41  C   UNL     1      15.898   6.766  31.415  0.00  0.00    +0.000 C 
BRANCH  41  42
ATOM     42  C   UNL     1      16.517   6.110  32.653  0.00  0.00    +0.000 C 
BRANCH  42  43
ATOM     43  N   UNL     1      17.106   5.485  33.830  0.00  0.00    +0.000 N 
ATOM     44  C   UNL     1      18.296   4.713  33.358  0.00  0.00    +0.000 C 
ATOM     45  C   UNL     1      19.813   5.006  33.598  0.00  0.00    +0.000 C 
ATOM     46  O   UNL     1      20.503   5.969  34.247  0.00  0.00    +0.000 OA
ATOM     47  C   UNL     1      19.430   6.670  34.669  0.00  0.00    +0.000 C 
ATOM     48  C   UNL     1      17.881   6.547  34.539  0.00  0.00    +0.000 C 
ENDBRANCH  42  43
ENDBRANCH  41  42
ENDBRANCH  39  40
ENDBRANCH  35  39
ENDBRANCH  26  27
ENDBRANCH   7  26
TORSDOF 11
ENDMDL
MODEL 9
REMARK VINA RESULT:      -7.0     13.820     21.293
REMARK  Name = Foretinib.pdbqt.pdb
REMARK  11 active torsions:
REMARK  status: ('A' for Active; 'I' for Inactive)
REMARK    1  A    between atoms: C_2  and  N_31
REMARK    2  A    between atoms: C_7  and  O_8
REMARK    3  A    between atoms: O_8  and  C_9
REMARK    4  A    between atoms: C_17  and  O_19
REMARK    5  A    between atoms: C_18  and  O_29
REMARK    6  A    between atoms: O_19  and  C_20
REMARK    7  A    between atoms: C_21  and  C_22
REMARK    8  A    between atoms: C_22  and  N_23
REMARK    9  A    between atoms: C_32  and  C_35
REMARK   10  A    between atoms: C_35  and  C_38
REMARK   11  A    between atoms: N_40  and  C_42
REMARK                            x       y       z     vdW  Elec       q    Type
REMARK                         _______ _______ _______ _____ _____    ______ ____
ROOT
ATOM      1  F   UNL     1      42.414  -0.154  12.243  0.00  0.00    +0.000 F 
ATOM      2  C   UNL     1      45.485  -1.793  11.218  0.00  0.00    +0.000 A 
ATOM      3  C   UNL     1      44.294  -1.529  11.895  0.00  0.00    +0.000 A 
ATOM      4  C   UNL     1      45.911  -0.926  10.210  0.00  0.00    +0.000 A 
ATOM      5  C   UNL     1      43.539  -0.410  11.559  0.00  0.00    +0.000 A 
ATOM      6  C   UNL     1      45.154   0.196   9.874  0.00  0.00    +0.000 A 
ATOM      7  C   UNL     1      43.953   0.441  10.534  0.00  0.00    +0.000 A 
ENDROOT
BRANCH   2   8
ATOM      8  N   UNL     1      46.298  -2.905  11.509  0.00  0.00    +0.000 N 
ATOM      9  C   UNL     1      46.525  -3.977  10.662  0.00  0.00    +0.000 C 
ATOM     10  O   UNL     1      46.039  -4.136   9.549  0.00  0.00    +0.000 OA
ATOM     11  H   UNL     1      46.716  -2.935  12.434  0.00  0.00    +0.000 HD
BRANCH   9  12
ATOM     12  C   UNL     1      47.416  -5.042  11.231  0.00  0.00    +0.000 C 
ATOM     13  C   UNL     1      47.274  -5.361  12.647  0.00  0.00    +0.000 C 
ATOM     14  C   UNL     1      48.464  -4.620  12.153  0.00  0.00    +0.000 C 
BRANCH  12  15
ATOM     15  C   UNL     1      47.710  -6.179  10.298  0.00  0.00    +0.000 C 
ATOM     16  O   UNL     1      47.001  -7.178  10.343  0.00  0.00    +0.000 OA
ATOM     17  N   UNL     1      48.755  -5.953   9.419  0.00  0.00    +0.000 N 
ATOM     18  H   UNL     1      49.222  -5.052   9.456  0.00  0.00    +0.000 HD
BRANCH  17  19
ATOM     19  C   UNL     1      49.210  -6.858   8.443  0.00  0.00    +0.000 A 
ATOM     20  C   UNL     1      50.127  -7.834   8.839  0.00  0.00    +0.000 A 
ATOM     21  C   UNL     1      50.615  -8.759   7.919  0.00  0.00    +0.000 A 
ATOM     22  C   UNL     1      50.178  -8.701   6.600  0.00  0.00    +0.000 A 
ATOM     23  F   UNL     1      50.644  -9.591   5.714  0.00  0.00    +0.000 F 
ATOM     24  C   UNL     1      49.264  -7.739   6.188  0.00  0.00    +0.000 A 
ATOM     25  C   UNL     1      48.782  -6.817   7.114  0.00  0.00    +0.000 A 
ENDBRANCH  17  19
ENDBRANCH  12  15
ENDBRANCH   9  12
ENDBRANCH   2   8
BRANCH   7  26
ATOM     26  O   UNL     1      43.282   1.594  10.206  0.00  0.00    +0.000 OA
BRANCH  26  27
ATOM     27  C   UNL     1      41.924   1.492   9.980  0.00  0.00    +0.000 A 
ATOM     28  C   UNL     1      41.062   2.279  10.760  0.00  0.00    +0.000 A 
ATOM     29  C   UNL     1      39.685   2.212  10.486  0.00  0.00    +0.000 A 
ATOM     30  C   UNL     1      41.527   3.109  11.792  0.00  0.00    +0.000 A 
ATOM     31  N   UNL     1      39.184   1.440   9.508  0.00  0.00    +0.000 NA
ATOM     32  C   UNL     1      38.828   2.981  11.259  0.00  0.00    +0.000 A 
ATOM     33  C   UNL     1      40.048   0.708   8.770  0.00  0.00    +0.000 A 
ATOM     34  C   UNL     1      41.416   0.703   8.954  0.00  0.00    +0.000 A 
ATOM     35  C   UNL     1      39.286   3.813  12.289  0.00  0.00    +0.000 A 
ATOM     36  C   UNL     1      40.653   3.878  12.562  0.00  0.00    +0.000 A 
BRANCH  36  37
ATOM     37  O   UNL     1      41.051   4.703  13.587  0.00  0.00    +0.000 OA
ATOM     38  C   UNL     1      41.347   4.064  14.799  0.00  0.00    +0.000 C 
ENDBRANCH  36  37
BRANCH  35  39
ATOM     39  O   UNL     1      38.450   4.578  13.068  0.00  0.00    +0.000 OA
BRANCH  39  40
ATOM     40  C   UNL     1      37.692   3.893  13.921  0.00  0.00    +0.000 C 
ATOM     41  C   UNL     1      36.826   3.089  14.897  0.00  0.00    +0.000 C 
BRANCH  41  42
ATOM     42  C   UNL     1      35.966   2.282  15.875  0.00  0.00    +0.000 C 
BRANCH  42  43
ATOM     43  N   UNL     1      35.148   1.514  16.804  0.00  0.00    +0.000 N 
ATOM     44  C   UNL     1      34.333   0.570  15.980  0.00  0.00    +0.000 C 
ATOM     45  C   UNL     1      34.450  -0.985  15.867  0.00  0.00    +0.000 C 
ATOM     46  O   UNL     1      35.256  -1.919  16.416  0.00  0.00    +0.000 OA
ATOM     47  C   UNL     1      35.997  -1.068  17.155  0.00  0.00    +0.000 C 
ATOM     48  C   UNL     1      36.037   0.471  17.400  0.00  0.00    +0.000 C 
ENDBRANCH  42  43
ENDBRANCH  41  42
ENDBRANCH  39  40
ENDBRANCH  35  39
ENDBRANCH  26  27
ENDBRANCH   7  26
TORSDOF 11
ENDMDL
