REMARK  Name = 
REMARK  7 active torsions:
REMARK  status: ('A' for Active; 'I' for Inactive)
REMARK    1  A    between atoms: S_1  and  O_3
REMARK    2  A    between atoms: S_1  and  O_6
REMARK    3  A    between atoms: O_3  and  C_9
REMARK    4  A    between atoms: O_4  and  C_10
REMARK    5  A    between atoms: O_5  and  C_11
REMARK    6  A    between atoms: C_12  and  C_14
REMARK    7  A    between atoms: C_13  and  C_15
REMARK                            x       y       z     vdW  Elec       q    Type
REMARK                         _______ _______ _______ _____ _____    ______ ____
ROOT
ATOM      1  O   UNL     1      -1.700  -1.290  -0.512  0.00  0.00    +0.000 OA
ATOM      2  C   UNL     1       0.227  -0.423   0.732  0.00  0.00    +0.000 C 
ATOM      3  C   UNL     1      -0.598   0.813   1.118  0.00  0.00    +0.000 C 
ATOM      4  C   UNL     1      -1.702   1.084   0.086  0.00  0.00    +0.000 C 
ATOM      5  C   UNL     1      -0.723  -1.610   0.487  0.00  0.00    +0.000 C 
ATOM      6  C   UNL     1      -2.536  -0.184  -0.143  0.00  0.00    +0.000 C 
ATOM      7  C   UNL     1       0.024  -2.849   0.007  0.00  0.00    +0.000 C 
ATOM      8  C   UNL     1      -3.556   0.012  -1.259  0.00  0.00    +0.000 C 
ENDROOT
BRANCH   3   9
ATOM      9  O   UNL     1       0.195   2.004   1.234  0.00  0.00    +0.000 OA
ATOM     10  H   UNL     1       1.059   1.776   1.636  0.00  0.00    +0.000 HD
ENDBRANCH   3   9
BRANCH   4  11
ATOM     11  O   UNL     1      -2.521   2.157   0.562  0.00  0.00    +0.000 OA
ATOM     12  H   UNL     1      -1.890   2.864   0.809  0.00  0.00    +0.000 HD
ENDBRANCH   4  11
BRANCH   2  13
ATOM     13  O   UNL     1       0.969  -0.149  -0.458  0.00  0.00    +0.000 OA
BRANCH  13  14
ATOM     14  S   UNL     1       2.525   0.281  -0.318  0.00  0.00    +0.000 S 
ATOM     15  O   UNL     1       2.951   0.854  -1.573  0.00  0.00    +0.000 OA
ATOM     16  O   UNL     1       2.713   0.954   0.949  0.00  0.00    +0.000 OA
BRANCH  14  17
ATOM     17  O   UNL     1       3.254  -1.150  -0.229  0.00  0.00    +0.000 OA
ATOM     18  H   UNL     1       3.442  -1.434  -1.148  0.00  0.00    +0.000 HD
ENDBRANCH  14  17
ENDBRANCH  13  14
ENDBRANCH   2  13
TORSDOF 5
