MODEL 1
REMARK VINA RESULT:      -7.1      0.000      0.000
REMARK  Name = Fulvestrant.pdbqt.pdb
REMARK  12 active torsions:
REMARK  status: ('A' for Active; 'I' for Inactive)
REMARK    1  A    between atoms: C_6  and  O_40
REMARK    2  A    between atoms: C_8  and  C_19
REMARK    3  A    between atoms: C_18  and  O_42
REMARK    4  A    between atoms: C_20  and  C_21
REMARK    5  A    between atoms: C_22  and  C_23
REMARK    6  A    between atoms: C_23  and  C_24
REMARK    7  A    between atoms: C_25  and  C_26
REMARK    8  A    between atoms: C_27  and  S_28
REMARK    9  A    between atoms: S_28  and  C_30
REMARK   10  A    between atoms: C_30  and  C_31
REMARK   11  A    between atoms: C_32  and  C_33
REMARK   12  A    between atoms: C_33  and  C_36
REMARK                            x       y       z     vdW  Elec       q    Type
REMARK                         _______ _______ _______ _____ _____    ______ ____
ROOT
ATOM      1  C   UNL     1      26.829   0.999   4.559  0.00  0.00    +0.000 C 
ATOM      2  C   UNL     1      26.569  -0.456   5.184  0.00  0.00    +0.000 C 
ATOM      3  C   UNL     1      28.188   1.521   4.202  0.00  0.00    +0.000 A 
ATOM      4  C   UNL     1      29.392   0.573   4.022  0.00  0.00    +0.000 A 
ATOM      5  C   UNL     1      27.750  -1.246   4.852  0.00  0.00    +0.000 C 
ATOM      6  C   UNL     1      25.292  -0.923   4.451  0.00  0.00    +0.000 C 
ATOM      7  C   UNL     1      25.716   1.282   3.703  0.00  0.00    +0.000 C 
ATOM      8  C   UNL     1      28.442   2.970   3.987  0.00  0.00    +0.000 A 
ATOM      9  C   UNL     1      29.074  -0.773   4.321  0.00  0.00    +0.000 C 
ATOM     10  C   UNL     1      24.782   0.104   3.612  0.00  0.00    +0.000 C 
ATOM     11  C   UNL     1      26.306  -0.304   6.703  0.00  0.00    +0.000 C 
ATOM     12  C   UNL     1      30.752   1.036   3.629  0.00  0.00    +0.000 A 
ATOM     13  C   UNL     1      29.788   3.202   3.613  0.00  0.00    +0.000 A 
ATOM     14  C   UNL     1      30.954   2.420   3.413  0.00  0.00    +0.000 A 
ATOM     15  C   UNL     1      31.830   0.169   3.467  0.00  0.00    +0.000 A 
ATOM     16  C   UNL     1      32.186   2.939   3.047  0.00  0.00    +0.000 A 
ATOM     17  C   UNL     1      33.078   0.676   3.098  0.00  0.00    +0.000 A 
ATOM     18  C   UNL     1      33.243   2.047   2.894  0.00  0.00    +0.000 A 
ENDROOT
BRANCH   8  19
ATOM     19  C   UNL     1      27.508   3.986   4.301  0.00  0.00    +0.000 C 
ATOM     20  C   UNL     1      26.492   5.075   4.660  0.00  0.00    +0.000 C 
BRANCH  20  21
ATOM     21  C   UNL     1      25.468   6.148   5.041  0.00  0.00    +0.000 C 
ATOM     22  C   UNL     1      24.459   7.225   5.451  0.00  0.00    +0.000 C 
BRANCH  22  23
ATOM     23  C   UNL     1      23.465   8.304   5.891  0.00  0.00    +0.000 C 
BRANCH  23  24
ATOM     24  C   UNL     1      22.468   9.367   6.364  0.00  0.00    +0.000 C 
ATOM     25  C   UNL     1      21.483  10.451   6.811  0.00  0.00    +0.000 C 
BRANCH  25  26
ATOM     26  C   UNL     1      20.513  11.559   7.237  0.00  0.00    +0.000 C 
ATOM     27  C   UNL     1      19.516  12.645   7.650  0.00  0.00    +0.000 C 
BRANCH  27  28
ATOM     28  S   UNL     1      18.344  13.875   8.112  0.00  0.00    +0.000 S 
ATOM     29  O   UNL     1      17.225  12.875   8.151  0.00  0.00    +0.000 OA
BRANCH  28  30
ATOM     30  C   UNL     1      18.655  13.688   9.835  0.00  0.00    +0.000 C 
BRANCH  30  31
ATOM     31  C   UNL     1      18.949  13.517  11.330  0.00  0.00    +0.000 C 
ATOM     32  C   UNL     1      19.262  13.348  12.820  0.00  0.00    +0.000 C 
BRANCH  32  33
ATOM     33  C   UNL     1      19.570  13.186  14.244  0.00  0.00    +0.000 C 
ATOM     34  F   UNL     1      18.430  13.429  14.950  0.00  0.00    +0.000 F 
ATOM     35  F   UNL     1      20.444  14.169  14.595  0.00  0.00    +0.000 F 
BRANCH  33  36
ATOM     36  C   UNL     1      20.138  11.805  14.587  0.00  0.00    +0.000 C 
ATOM     37  F   UNL     1      19.580  11.290  15.713  0.00  0.00    +0.000 F 
ATOM     38  F   UNL     1      21.478  11.839  14.792  0.00  0.00    +0.000 F 
ATOM     39  F   UNL     1      19.915  10.907  13.594  0.00  0.00    +0.000 F 
ENDBRANCH  33  36
ENDBRANCH  32  33
ENDBRANCH  30  31
ENDBRANCH  28  30
ENDBRANCH  27  28
ENDBRANCH  25  26
ENDBRANCH  23  24
ENDBRANCH  22  23
ENDBRANCH  20  21
ENDBRANCH   8  19
BRANCH   6  40
ATOM     40  O   UNL     1      24.989  -2.253   4.254  0.00  0.00    +0.000 OA
ATOM     41  H   UNL     1      25.408  -2.604   3.448  0.00  0.00    +0.000 HD
ENDBRANCH   6  40
BRANCH  18  42
ATOM     42  O   UNL     1      34.482   2.498   2.535  0.00  0.00    +0.000 OA
ATOM     43  H   UNL     1      34.372   3.226   1.898  0.00  0.00    +0.000 HD
ENDBRANCH  18  42
TORSDOF 12
ENDMDL
MODEL 2
REMARK VINA RESULT:      -6.6      8.772     11.555
REMARK  Name = Fulvestrant.pdbqt.pdb
REMARK  12 active torsions:
REMARK  status: ('A' for Active; 'I' for Inactive)
REMARK    1  A    between atoms: C_6  and  O_40
REMARK    2  A    between atoms: C_8  and  C_19
REMARK    3  A    between atoms: C_18  and  O_42
REMARK    4  A    between atoms: C_20  and  C_21
REMARK    5  A    between atoms: C_22  and  C_23
REMARK    6  A    between atoms: C_23  and  C_24
REMARK    7  A    between atoms: C_25  and  C_26
REMARK    8  A    between atoms: C_27  and  S_28
REMARK    9  A    between atoms: S_28  and  C_30
REMARK   10  A    between atoms: C_30  and  C_31
REMARK   11  A    between atoms: C_32  and  C_33
REMARK   12  A    between atoms: C_33  and  C_36
REMARK                            x       y       z     vdW  Elec       q    Type
REMARK                         _______ _______ _______ _____ _____    ______ ____
ROOT
ATOM      1  C   UNL     1      22.392  -1.658   4.760  0.00  0.00    +0.000 C 
ATOM      2  C   UNL     1      23.881  -1.131   4.476  0.00  0.00    +0.000 C 
ATOM      3  C   UNL     1      21.322  -1.733   3.713  0.00  0.00    +0.000 A 
ATOM      4  C   UNL     1      21.666  -1.701   2.209  0.00  0.00    +0.000 A 
ATOM      5  C   UNL     1      24.075  -1.247   3.035  0.00  0.00    +0.000 C 
ATOM      6  C   UNL     1      24.754  -2.107   5.295  0.00  0.00    +0.000 C 
ATOM      7  C   UNL     1      22.506  -2.706   5.731  0.00  0.00    +0.000 C 
ATOM      8  C   UNL     1      19.884  -1.860   4.066  0.00  0.00    +0.000 A 
ATOM      9  C   UNL     1      23.046  -1.502   1.970  0.00  0.00    +0.000 C 
ATOM     10  C   UNL     1      23.949  -3.004   6.047  0.00  0.00    +0.000 C 
ATOM     11  C   UNL     1      24.010   0.313   5.025  0.00  0.00    +0.000 C 
ATOM     12  C   UNL     1      20.645  -1.813   1.129  0.00  0.00    +0.000 A 
ATOM     13  C   UNL     1      19.080  -1.962   2.905  0.00  0.00    +0.000 A 
ATOM     14  C   UNL     1      19.286  -1.952   1.502  0.00  0.00    +0.000 A 
ATOM     15  C   UNL     1      20.968  -1.785  -0.225  0.00  0.00    +0.000 A 
ATOM     16  C   UNL     1      18.271  -2.060   0.565  0.00  0.00    +0.000 A 
ATOM     17  C   UNL     1      19.956  -1.894  -1.181  0.00  0.00    +0.000 A 
ATOM     18  C   UNL     1      18.626  -2.029  -0.780  0.00  0.00    +0.000 A 
ENDROOT
BRANCH   8  19
ATOM     19  C   UNL     1      19.382  -1.707   5.381  0.00  0.00    +0.000 C 
ATOM     20  C   UNL     1      18.822  -1.555   6.799  0.00  0.00    +0.000 C 
BRANCH  20  21
ATOM     21  C   UNL     1      18.240  -1.419   8.208  0.00  0.00    +0.000 C 
ATOM     22  C   UNL     1      17.647  -1.254   9.611  0.00  0.00    +0.000 C 
BRANCH  22  23
ATOM     23  C   UNL     1      17.047  -1.056  11.007  0.00  0.00    +0.000 C 
BRANCH  23  24
ATOM     24  C   UNL     1      16.421  -0.883  12.394  0.00  0.00    +0.000 C 
ATOM     25  C   UNL     1      15.772  -0.734  13.774  0.00  0.00    +0.000 C 
BRANCH  25  26
ATOM     26  C   UNL     1      15.098  -0.610  15.144  0.00  0.00    +0.000 C 
ATOM     27  C   UNL     1      14.411  -0.520  16.510  0.00  0.00    +0.000 C 
BRANCH  27  28
ATOM     28  S   UNL     1      13.606  -0.447  18.074  0.00  0.00    +0.000 S 
ATOM     29  O   UNL     1      14.387  -1.617  18.594  0.00  0.00    +0.000 OA
BRANCH  28  30
ATOM     30  C   UNL     1      14.760   0.702  18.742  0.00  0.00    +0.000 C 
BRANCH  30  31
ATOM     31  C   UNL     1      15.766   1.713  19.303  0.00  0.00    +0.000 C 
ATOM     32  C   UNL     1      16.782   2.710  19.871  0.00  0.00    +0.000 C 
BRANCH  32  33
ATOM     33  C   UNL     1      17.758   3.656  20.420  0.00  0.00    +0.000 C 
ATOM     34  F   UNL     1      18.135   3.205  21.649  0.00  0.00    +0.000 F 
ATOM     35  F   UNL     1      17.115   4.838  20.637  0.00  0.00    +0.000 F 
BRANCH  33  36
ATOM     36  C   UNL     1      18.979   3.859  19.517  0.00  0.00    +0.000 C 
ATOM     37  F   UNL     1      20.031   3.091  19.902  0.00  0.00    +0.000 F 
ATOM     38  F   UNL     1      19.409   5.146  19.518  0.00  0.00    +0.000 F 
ATOM     39  F   UNL     1      18.710   3.537  18.226  0.00  0.00    +0.000 F 
ENDBRANCH  33  36
ENDBRANCH  32  33
ENDBRANCH  30  31
ENDBRANCH  28  30
ENDBRANCH  27  28
ENDBRANCH  25  26
ENDBRANCH  23  24
ENDBRANCH  22  23
ENDBRANCH  20  21
ENDBRANCH   8  19
BRANCH   6  40
ATOM     40  O   UNL     1      26.063  -2.392   4.968  0.00  0.00    +0.000 OA
ATOM     41  H   UNL     1      26.404  -1.789   4.283  0.00  0.00    +0.000 HD
ENDBRANCH   6  40
BRANCH  18  42
ATOM     42  O   UNL     1      17.670  -2.131  -1.752  0.00  0.00    +0.000 OA
ATOM     43  H   UNL     1      17.995  -1.679  -2.550  0.00  0.00    +0.000 HD
ENDBRANCH  18  42
TORSDOF 12
ENDMDL
MODEL 3
REMARK VINA RESULT:      -6.5     25.505     32.291
REMARK  Name = Fulvestrant.pdbqt.pdb
REMARK  12 active torsions:
REMARK  status: ('A' for Active; 'I' for Inactive)
REMARK    1  A    between atoms: C_6  and  O_40
REMARK    2  A    between atoms: C_8  and  C_19
REMARK    3  A    between atoms: C_18  and  O_42
REMARK    4  A    between atoms: C_20  and  C_21
REMARK    5  A    between atoms: C_22  and  C_23
REMARK    6  A    between atoms: C_23  and  C_24
REMARK    7  A    between atoms: C_25  and  C_26
REMARK    8  A    between atoms: C_27  and  S_28
REMARK    9  A    between atoms: S_28  and  C_30
REMARK   10  A    between atoms: C_30  and  C_31
REMARK   11  A    between atoms: C_32  and  C_33
REMARK   12  A    between atoms: C_33  and  C_36
REMARK                            x       y       z     vdW  Elec       q    Type
REMARK                         _______ _______ _______ _____ _____    ______ ____
ROOT
ATOM      1  C   UNL     1      47.091  -4.743   7.779  0.00  0.00    +0.000 C 
ATOM      2  C   UNL     1      47.314  -4.122   6.317  0.00  0.00    +0.000 C 
ATOM      3  C   UNL     1      46.202  -4.128   8.817  0.00  0.00    +0.000 A 
ATOM      4  C   UNL     1      45.122  -3.093   8.439  0.00  0.00    +0.000 A 
ATOM      5  C   UNL     1      46.174  -3.244   6.080  0.00  0.00    +0.000 C 
ATOM      6  C   UNL     1      47.325  -5.373   5.410  0.00  0.00    +0.000 C 
ATOM      7  C   UNL     1      47.125  -6.167   7.631  0.00  0.00    +0.000 C 
ATOM      8  C   UNL     1      46.300  -4.495  10.255  0.00  0.00    +0.000 A 
ATOM      9  C   UNL     1      45.153  -2.750   7.067  0.00  0.00    +0.000 C 
ATOM     10  C   UNL     1      47.244  -6.563   6.182  0.00  0.00    +0.000 C 
ATOM     11  C   UNL     1      48.690  -3.409   6.283  0.00  0.00    +0.000 C 
ATOM     12  C   UNL     1      44.186  -2.483   9.425  0.00  0.00    +0.000 A 
ATOM     13  C   UNL     1      45.322  -3.817  11.022  0.00  0.00    +0.000 A 
ATOM     14  C   UNL     1      44.294  -2.870  10.782  0.00  0.00    +0.000 A 
ATOM     15  C   UNL     1      43.213  -1.551   9.071  0.00  0.00    +0.000 A 
ATOM     16  C   UNL     1      43.467  -2.352  11.766  0.00  0.00    +0.000 A 
ATOM     17  C   UNL     1      42.372  -1.021  10.051  0.00  0.00    +0.000 A 
ATOM     18  C   UNL     1      42.506  -1.423  11.381  0.00  0.00    +0.000 A 
ENDROOT
BRANCH   8  19
ATOM     19  C   UNL     1      47.353  -5.270  10.797  0.00  0.00    +0.000 C 
ATOM     20  C   UNL     1      48.486  -6.104  11.404  0.00  0.00    +0.000 C 
BRANCH  20  21
ATOM     21  C   UNL     1      49.609  -6.929  12.037  0.00  0.00    +0.000 C 
ATOM     22  C   UNL     1      50.712  -7.775  12.682  0.00  0.00    +0.000 C 
BRANCH  22  23
ATOM     23  C   UNL     1      51.790  -8.639  13.343  0.00  0.00    +0.000 C 
BRANCH  23  24
ATOM     24  C   UNL     1      52.848  -9.533  13.998  0.00  0.00    +0.000 C 
ATOM     25  C   UNL     1      53.920 -10.398  14.669  0.00  0.00    +0.000 C 
BRANCH  25  26
ATOM     26  C   UNL     1      55.007 -11.233  15.352  0.00  0.00    +0.000 C 
ATOM     27  C   UNL     1      56.119 -12.055  16.011  0.00  0.00    +0.000 C 
BRANCH  27  28
ATOM     28  S   UNL     1      57.419 -12.990  16.743  0.00  0.00    +0.000 S 
ATOM     29  O   UNL     1      57.599 -11.986  17.843  0.00  0.00    +0.000 OA
BRANCH  28  30
ATOM     30  C   UNL     1      56.323 -13.961  17.722  0.00  0.00    +0.000 C 
BRANCH  30  31
ATOM     31  C   UNL     1      55.389 -14.814  18.587  0.00  0.00    +0.000 C 
ATOM     32  C   UNL     1      54.469 -15.680  19.454  0.00  0.00    +0.000 C 
BRANCH  32  33
ATOM     33  C   UNL     1      53.595 -16.515  20.283  0.00  0.00    +0.000 C 
ATOM     34  F   UNL     1      52.996 -15.709  21.205  0.00  0.00    +0.000 F 
ATOM     35  F   UNL     1      54.386 -17.369  20.992  0.00  0.00    +0.000 F 
BRANCH  33  36
ATOM     36  C   UNL     1      52.549 -17.288  19.474  0.00  0.00    +0.000 C 
ATOM     37  F   UNL     1      51.549 -17.765  20.259  0.00  0.00    +0.000 F 
ATOM     38  F   UNL     1      53.086 -18.353  18.829  0.00  0.00    +0.000 F 
ATOM     39  F   UNL     1      51.966 -16.508  18.528  0.00  0.00    +0.000 F 
ENDBRANCH  33  36
ENDBRANCH  32  33
ENDBRANCH  30  31
ENDBRANCH  28  30
ENDBRANCH  27  28
ENDBRANCH  25  26
ENDBRANCH  23  24
ENDBRANCH  22  23
ENDBRANCH  20  21
ENDBRANCH   8  19
BRANCH   6  40
ATOM     40  O   UNL     1      46.965  -5.333   4.079  0.00  0.00    +0.000 OA
ATOM     41  H   UNL     1      47.511  -4.703   3.576  0.00  0.00    +0.000 HD
ENDBRANCH   6  40
BRANCH  18  42
ATOM     42  O   UNL     1      41.661  -0.876  12.305  0.00  0.00    +0.000 OA
ATOM     43  H   UNL     1      40.749  -1.124  12.072  0.00  0.00    +0.000 HD
ENDBRANCH  18  42
TORSDOF 12
ENDMDL
MODEL 4
REMARK VINA RESULT:      -6.4     31.811     39.741
REMARK  Name = Fulvestrant.pdbqt.pdb
REMARK  12 active torsions:
REMARK  status: ('A' for Active; 'I' for Inactive)
REMARK    1  A    between atoms: C_6  and  O_40
REMARK    2  A    between atoms: C_8  and  C_19
REMARK    3  A    between atoms: C_18  and  O_42
REMARK    4  A    between atoms: C_20  and  C_21
REMARK    5  A    between atoms: C_22  and  C_23
REMARK    6  A    between atoms: C_23  and  C_24
REMARK    7  A    between atoms: C_25  and  C_26
REMARK    8  A    between atoms: C_27  and  S_28
REMARK    9  A    between atoms: S_28  and  C_30
REMARK   10  A    between atoms: C_30  and  C_31
REMARK   11  A    between atoms: C_32  and  C_33
REMARK   12  A    between atoms: C_33  and  C_36
REMARK                            x       y       z     vdW  Elec       q    Type
REMARK                         _______ _______ _______ _____ _____    ______ ____
ROOT
ATOM      1  C   UNL     1      16.341   3.092  48.912  0.00  0.00    +0.000 C 
ATOM      2  C   UNL     1      17.105   3.899  50.069  0.00  0.00    +0.000 C 
ATOM      3  C   UNL     1      15.793   1.708  49.085  0.00  0.00    +0.000 A 
ATOM      4  C   UNL     1      15.555   1.108  50.487  0.00  0.00    +0.000 A 
ATOM      5  C   UNL     1      16.707   3.268  51.322  0.00  0.00    +0.000 C 
ATOM      6  C   UNL     1      16.561   5.336  49.904  0.00  0.00    +0.000 C 
ATOM      7  C   UNL     1      15.596   4.059  48.161  0.00  0.00    +0.000 C 
ATOM      8  C   UNL     1      15.435   0.852  47.923  0.00  0.00    +0.000 A 
ATOM      9  C   UNL     1      15.994   1.961  51.527  0.00  0.00    +0.000 C 
ATOM     10  C   UNL     1      15.705   5.431  48.774  0.00  0.00    +0.000 C 
ATOM     11  C   UNL     1      18.628   3.853  49.784  0.00  0.00    +0.000 C 
ATOM     12  C   UNL     1      14.974  -0.246  50.714  0.00  0.00    +0.000 A 
ATOM     13  C   UNL     1      14.894  -0.385  48.349  0.00  0.00    +0.000 A 
ATOM     14  C   UNL     1      14.627  -1.026  49.585  0.00  0.00    +0.000 A 
ATOM     15  C   UNL     1      14.762  -0.775  51.985  0.00  0.00    +0.000 A 
ATOM     16  C   UNL     1      14.084  -2.295  49.703  0.00  0.00    +0.000 A 
ATOM     17  C   UNL     1      14.215  -2.053  52.120  0.00  0.00    +0.000 A 
ATOM     18  C   UNL     1      13.885  -2.797  50.986  0.00  0.00    +0.000 A 
ENDROOT
BRANCH   8  19
ATOM     19  C   UNL     1      15.770   1.166  46.584  0.00  0.00    +0.000 C 
ATOM     20  C   UNL     1      16.116   1.496  45.129  0.00  0.00    +0.000 C 
BRANCH  20  21
ATOM     21  C   UNL     1      16.438   1.808  43.665  0.00  0.00    +0.000 C 
ATOM     22  C   UNL     1      16.759   2.152  42.207  0.00  0.00    +0.000 C 
BRANCH  22  23
ATOM     23  C   UNL     1      17.075   2.529  40.757  0.00  0.00    +0.000 C 
BRANCH  23  24
ATOM     24  C   UNL     1      17.360   2.925  39.304  0.00  0.00    +0.000 C 
ATOM     25  C   UNL     1      17.628   3.351  37.858  0.00  0.00    +0.000 C 
BRANCH  25  26
ATOM     26  C   UNL     1      17.876   3.807  36.416  0.00  0.00    +0.000 C 
ATOM     27  C   UNL     1      18.135   4.295  34.987  0.00  0.00    +0.000 C 
BRANCH  27  28
ATOM     28  S   UNL     1      18.440   4.888  33.358  0.00  0.00    +0.000 S 
ATOM     29  O   UNL     1      17.013   5.317  33.186  0.00  0.00    +0.000 OA
BRANCH  28  30
ATOM     30  C   UNL     1      18.922   6.490  33.908  0.00  0.00    +0.000 C 
BRANCH  30  31
ATOM     31  C   UNL     1      19.329   7.880  34.408  0.00  0.00    +0.000 C 
ATOM     32  C   UNL     1      19.734   9.277  34.890  0.00  0.00    +0.000 C 
BRANCH  32  33
ATOM     33  C   UNL     1      20.122  10.616  35.342  0.00  0.00    +0.000 C 
ATOM     34  F   UNL     1      21.140  10.479  36.237  0.00  0.00    +0.000 F 
ATOM     35  F   UNL     1      19.076  11.138  36.043  0.00  0.00    +0.000 F 
BRANCH  33  36
ATOM     36  C   UNL     1      20.527  11.549  34.196  0.00  0.00    +0.000 C 
ATOM     37  F   UNL     1      19.509  12.366  33.820  0.00  0.00    +0.000 F 
ATOM     38  F   UNL     1      20.912  10.865  33.091  0.00  0.00    +0.000 F 
ATOM     39  F   UNL     1      21.566  12.352  34.543  0.00  0.00    +0.000 F 
ENDBRANCH  33  36
ENDBRANCH  32  33
ENDBRANCH  30  31
ENDBRANCH  28  30
ENDBRANCH  27  28
ENDBRANCH  25  26
ENDBRANCH  23  24
ENDBRANCH  22  23
ENDBRANCH  20  21
ENDBRANCH   8  19
BRANCH   6  40
ATOM     40  O   UNL     1      16.506   6.237  50.947  0.00  0.00    +0.000 OA
ATOM     41  H   UNL     1      17.156   6.026  51.641  0.00  0.00    +0.000 HD
ENDBRANCH   6  40
BRANCH  18  42
ATOM     42  O   UNL     1      13.353  -4.042  51.168  0.00  0.00    +0.000 OA
ATOM     43  H   UNL     1      13.873  -4.678  50.644  0.00  0.00    +0.000 HD
ENDBRANCH  18  42
TORSDOF 12
ENDMDL
MODEL 5
REMARK VINA RESULT:      -6.3     37.554     40.056
REMARK  Name = Fulvestrant.pdbqt.pdb
REMARK  12 active torsions:
REMARK  status: ('A' for Active; 'I' for Inactive)
REMARK    1  A    between atoms: C_6  and  O_40
REMARK    2  A    between atoms: C_8  and  C_19
REMARK    3  A    between atoms: C_18  and  O_42
REMARK    4  A    between atoms: C_20  and  C_21
REMARK    5  A    between atoms: C_22  and  C_23
REMARK    6  A    between atoms: C_23  and  C_24
REMARK    7  A    between atoms: C_25  and  C_26
REMARK    8  A    between atoms: C_27  and  S_28
REMARK    9  A    between atoms: S_28  and  C_30
REMARK   10  A    between atoms: C_30  and  C_31
REMARK   11  A    between atoms: C_32  and  C_33
REMARK   12  A    between atoms: C_33  and  C_36
REMARK                            x       y       z     vdW  Elec       q    Type
REMARK                         _______ _______ _______ _____ _____    ______ ____
ROOT
ATOM      1  C   UNL     1      50.741  -0.354  30.838  0.00  0.00    +0.000 C 
ATOM      2  C   UNL     1      51.668  -0.961  29.678  0.00  0.00    +0.000 C 
ATOM      3  C   UNL     1      50.378   1.096  30.940  0.00  0.00    +0.000 A 
ATOM      4  C   UNL     1      50.518   2.047  29.733  0.00  0.00    +0.000 A 
ATOM      5  C   UNL     1      51.624   0.007  28.588  0.00  0.00    +0.000 C 
ATOM      6  C   UNL     1      50.970  -2.297  29.342  0.00  0.00    +0.000 C 
ATOM      7  C   UNL     1      49.759  -1.352  31.143  0.00  0.00    +0.000 C 
ATOM      8  C   UNL     1      49.848   1.688  32.198  0.00  0.00    +0.000 A 
ATOM      9  C   UNL     1      51.099   1.416  28.608  0.00  0.00    +0.000 C 
ATOM     10  C   UNL     1      49.876  -2.535  30.217  0.00  0.00    +0.000 C 
ATOM     11  C   UNL     1      53.085  -1.212  30.254  0.00  0.00    +0.000 C 
ATOM     12  C   UNL     1      50.133   3.486  29.770  0.00  0.00    +0.000 A 
ATOM     13  C   UNL     1      49.535   3.058  32.024  0.00  0.00    +0.000 A 
ATOM     14  C   UNL     1      49.614   4.012  30.977  0.00  0.00    +0.000 A 
ATOM     15  C   UNL     1      50.263   4.333  28.672  0.00  0.00    +0.000 A 
ATOM     16  C   UNL     1      49.233   5.338  31.102  0.00  0.00    +0.000 A 
ATOM     17  C   UNL     1      49.882   5.672  28.782  0.00  0.00    +0.000 A 
ATOM     18  C   UNL     1      49.375   6.159  29.988  0.00  0.00    +0.000 A 
ENDROOT
BRANCH   8  19
ATOM     19  C   UNL     1      49.842   1.013  33.441  0.00  0.00    +0.000 C 
ATOM     20  C   UNL     1      49.840   0.263  34.777  0.00  0.00    +0.000 C 
BRANCH  20  21
ATOM     21  C   UNL     1      49.843  -0.511  36.098  0.00  0.00    +0.000 C 
ATOM     22  C   UNL     1      49.868  -1.266  37.431  0.00  0.00    +0.000 C 
BRANCH  22  23
ATOM     23  C   UNL     1      49.918  -2.000  38.774  0.00  0.00    +0.000 C 
BRANCH  23  24
ATOM     24  C   UNL     1      49.996  -2.714  40.128  0.00  0.00    +0.000 C 
ATOM     25  C   UNL     1      50.046  -3.446  41.472  0.00  0.00    +0.000 C 
BRANCH  25  26
ATOM     26  C   UNL     1      50.065  -4.195  42.809  0.00  0.00    +0.000 C 
ATOM     27  C   UNL     1      50.059  -4.968  44.131  0.00  0.00    +0.000 C 
BRANCH  27  28
ATOM     28  S   UNL     1      50.028  -5.878  45.638  0.00  0.00    +0.000 S 
ATOM     29  O   UNL     1      49.706  -4.650  46.439  0.00  0.00    +0.000 OA
BRANCH  28  30
ATOM     30  C   UNL     1      48.325  -6.299  45.481  0.00  0.00    +0.000 C 
BRANCH  30  31
ATOM     31  C   UNL     1      46.840  -6.645  45.332  0.00  0.00    +0.000 C 
ATOM     32  C   UNL     1      45.350  -6.973  45.179  0.00  0.00    +0.000 C 
BRANCH  32  33
ATOM     33  C   UNL     1      43.924  -7.278  45.031  0.00  0.00    +0.000 C 
ATOM     34  F   UNL     1      43.306  -6.970  46.206  0.00  0.00    +0.000 F 
ATOM     35  F   UNL     1      43.800  -8.626  44.886  0.00  0.00    +0.000 F 
BRANCH  33  36
ATOM     36  C   UNL     1      43.266  -6.542  43.860  0.00  0.00    +0.000 C 
ATOM     37  F   UNL     1      43.598  -7.091  42.663  0.00  0.00    +0.000 F 
ATOM     38  F   UNL     1      43.627  -5.235  43.808  0.00  0.00    +0.000 F 
ATOM     39  F   UNL     1      41.911  -6.572  43.943  0.00  0.00    +0.000 F 
ENDBRANCH  33  36
ENDBRANCH  32  33
ENDBRANCH  30  31
ENDBRANCH  28  30
ENDBRANCH  27  28
ENDBRANCH  25  26
ENDBRANCH  23  24
ENDBRANCH  22  23
ENDBRANCH  20  21
ENDBRANCH   8  19
BRANCH   6  40
ATOM     40  O   UNL     1      51.068  -2.900  28.106  0.00  0.00    +0.000 OA
ATOM     41  H   UNL     1      50.376  -2.588  27.496  0.00  0.00    +0.000 HD
ENDBRANCH   6  40
BRANCH  18  42
ATOM     42  O   UNL     1      49.017   7.476  30.048  0.00  0.00    +0.000 OA
ATOM     43  H   UNL     1      49.110   7.779  30.969  0.00  0.00    +0.000 HD
ENDBRANCH  18  42
TORSDOF 12
ENDMDL
MODEL 6
REMARK VINA RESULT:      -6.3     23.206     26.226
REMARK  Name = Fulvestrant.pdbqt.pdb
REMARK  12 active torsions:
REMARK  status: ('A' for Active; 'I' for Inactive)
REMARK    1  A    between atoms: C_6  and  O_40
REMARK    2  A    between atoms: C_8  and  C_19
REMARK    3  A    between atoms: C_18  and  O_42
REMARK    4  A    between atoms: C_20  and  C_21
REMARK    5  A    between atoms: C_22  and  C_23
REMARK    6  A    between atoms: C_23  and  C_24
REMARK    7  A    between atoms: C_25  and  C_26
REMARK    8  A    between atoms: C_27  and  S_28
REMARK    9  A    between atoms: S_28  and  C_30
REMARK   10  A    between atoms: C_30  and  C_31
REMARK   11  A    between atoms: C_32  and  C_33
REMARK   12  A    between atoms: C_33  and  C_36
REMARK                            x       y       z     vdW  Elec       q    Type
REMARK                         _______ _______ _______ _____ _____    ______ ____
ROOT
ATOM      1  C   UNL     1      25.045 -20.702  14.470  0.00  0.00    +0.000 C 
ATOM      2  C   UNL     1      24.037 -21.322  13.386  0.00  0.00    +0.000 C 
ATOM      3  C   UNL     1      26.307 -21.377  14.915  0.00  0.00    +0.000 A 
ATOM      4  C   UNL     1      26.949 -22.508  14.086  0.00  0.00    +0.000 A 
ATOM      5  C   UNL     1      24.816 -22.301  12.635  0.00  0.00    +0.000 C 
ATOM      6  C   UNL     1      23.629 -20.089  12.550  0.00  0.00    +0.000 C 
ATOM      7  C   UNL     1      25.032 -19.283  14.278  0.00  0.00    +0.000 C 
ATOM      8  C   UNL     1      27.013 -20.981  16.163  0.00  0.00    +0.000 A 
ATOM      9  C   UNL     1      26.170 -22.868  12.960  0.00  0.00    +0.000 C 
ATOM     10  C   UNL     1      24.187 -18.899  13.090  0.00  0.00    +0.000 C 
ATOM     11  C   UNL     1      22.811 -21.912  14.127  0.00  0.00    +0.000 C 
ATOM     12  C   UNL     1      28.223 -23.183  14.461  0.00  0.00    +0.000 A 
ATOM     13  C   UNL     1      28.202 -21.731  16.335  0.00  0.00    +0.000 A 
ATOM     14  C   UNL     1      28.879 -22.768  15.645  0.00  0.00    +0.000 A 
ATOM     15  C   UNL     1      28.794 -24.202  13.702  0.00  0.00    +0.000 A 
ATOM     16  C   UNL     1      30.066 -23.342  16.072  0.00  0.00    +0.000 A 
ATOM     17  C   UNL     1      29.990 -24.789  14.119  0.00  0.00    +0.000 A 
ATOM     18  C   UNL     1      30.611 -24.357  15.292  0.00  0.00    +0.000 A 
ENDROOT
BRANCH   8  19
ATOM     19  C   UNL     1      26.463 -20.109  17.132  0.00  0.00    +0.000 C 
ATOM     20  C   UNL     1      25.849 -19.169  18.174  0.00  0.00    +0.000 C 
BRANCH  20  21
ATOM     21  C   UNL     1      25.208 -18.235  19.204  0.00  0.00    +0.000 C 
ATOM     22  C   UNL     1      24.539 -17.305  20.221  0.00  0.00    +0.000 C 
BRANCH  22  23
ATOM     23  C   UNL     1      23.840 -16.378  21.221  0.00  0.00    +0.000 C 
BRANCH  23  24
ATOM     24  C   UNL     1      23.171 -15.451  22.240  0.00  0.00    +0.000 C 
ATOM     25  C   UNL     1      22.513 -14.495  23.241  0.00  0.00    +0.000 C 
BRANCH  25  26
ATOM     26  C   UNL     1      21.870 -13.512  24.224  0.00  0.00    +0.000 C 
ATOM     27  C   UNL     1      21.197 -12.528  25.186  0.00  0.00    +0.000 C 
BRANCH  27  28
ATOM     28  S   UNL     1      20.396 -11.394  26.269  0.00  0.00    +0.000 S 
ATOM     29  O   UNL     1      21.342 -10.289  25.904  0.00  0.00    +0.000 OA
BRANCH  28  30
ATOM     30  C   UNL     1      19.229 -10.881  25.054  0.00  0.00    +0.000 C 
BRANCH  30  31
ATOM     31  C   UNL     1      18.202 -10.456  23.998  0.00  0.00    +0.000 C 
ATOM     32  C   UNL     1      17.174 -10.014  22.951  0.00  0.00    +0.000 C 
BRANCH  32  33
ATOM     33  C   UNL     1      16.190  -9.583  21.955  0.00  0.00    +0.000 C 
ATOM     34  F   UNL     1      15.054  -9.223  22.616  0.00  0.00    +0.000 F 
ATOM     35  F   UNL     1      15.856 -10.670  21.203  0.00  0.00    +0.000 F 
BRANCH  33  36
ATOM     36  C   UNL     1      16.688  -8.440  21.066  0.00  0.00    +0.000 C 
ATOM     37  F   UNL     1      17.646  -8.851  20.196  0.00  0.00    +0.000 F 
ATOM     38  F   UNL     1      17.221  -7.424  21.789  0.00  0.00    +0.000 F 
ATOM     39  F   UNL     1      15.686  -7.907  20.321  0.00  0.00    +0.000 F 
ENDBRANCH  33  36
ENDBRANCH  32  33
ENDBRANCH  30  31
ENDBRANCH  28  30
ENDBRANCH  27  28
ENDBRANCH  25  26
ENDBRANCH  23  24
ENDBRANCH  22  23
ENDBRANCH  20  21
ENDBRANCH   8  19
BRANCH   6  40
ATOM     40  O   UNL     1      23.223 -20.180  11.235  0.00  0.00    +0.000 OA
ATOM     41  H   UNL     1      23.810 -19.680  10.640  0.00  0.00    +0.000 HD
ENDBRANCH   6  40
BRANCH  18  42
ATOM     42  O   UNL     1      31.779 -24.962  15.660  0.00  0.00    +0.000 OA
ATOM     43  H   UNL     1      32.322 -24.314  16.142  0.00  0.00    +0.000 HD
ENDBRANCH  18  42
TORSDOF 12
ENDMDL
MODEL 7
REMARK VINA RESULT:      -6.1     38.068     40.429
REMARK  Name = Fulvestrant.pdbqt.pdb
REMARK  12 active torsions:
REMARK  status: ('A' for Active; 'I' for Inactive)
REMARK    1  A    between atoms: C_6  and  O_40
REMARK    2  A    between atoms: C_8  and  C_19
REMARK    3  A    between atoms: C_18  and  O_42
REMARK    4  A    between atoms: C_20  and  C_21
REMARK    5  A    between atoms: C_22  and  C_23
REMARK    6  A    between atoms: C_23  and  C_24
REMARK    7  A    between atoms: C_25  and  C_26
REMARK    8  A    between atoms: C_27  and  S_28
REMARK    9  A    between atoms: S_28  and  C_30
REMARK   10  A    between atoms: C_30  and  C_31
REMARK   11  A    between atoms: C_32  and  C_33
REMARK   12  A    between atoms: C_33  and  C_36
REMARK                            x       y       z     vdW  Elec       q    Type
REMARK                         _______ _______ _______ _____ _____    ______ ____
ROOT
ATOM      1  C   UNL     1      50.433  -0.312  31.149  0.00  0.00    +0.000 C 
ATOM      2  C   UNL     1      51.256  -1.041  29.980  0.00  0.00    +0.000 C 
ATOM      3  C   UNL     1      50.156   1.160  31.178  0.00  0.00    +0.000 A 
ATOM      4  C   UNL     1      50.278   2.027  29.907  0.00  0.00    +0.000 A 
ATOM      5  C   UNL     1      51.202  -0.140  28.835  0.00  0.00    +0.000 C 
ATOM      6  C   UNL     1      50.467  -2.352  29.769  0.00  0.00    +0.000 C 
ATOM      7  C   UNL     1      49.418  -1.231  31.570  0.00  0.00    +0.000 C 
ATOM      8  C   UNL     1      49.734   1.857  32.422  0.00  0.00    +0.000 A 
ATOM      9  C   UNL     1      50.757   1.296  28.793  0.00  0.00    +0.000 C 
ATOM     10  C   UNL     1      49.415  -2.473  30.716  0.00  0.00    +0.000 C 
ATOM     11  C   UNL     1      52.688  -1.339  30.493  0.00  0.00    +0.000 C 
ATOM     12  C   UNL     1      49.975   3.485  29.872  0.00  0.00    +0.000 A 
ATOM     13  C   UNL     1      49.486   3.230  32.178  0.00  0.00    +0.000 A 
ATOM     14  C   UNL     1      49.557   4.112  31.070  0.00  0.00    +0.000 A 
ATOM     15  C   UNL     1      50.086   4.255  28.717  0.00  0.00    +0.000 A 
ATOM     16  C   UNL     1      49.257   5.464  31.130  0.00  0.00    +0.000 A 
ATOM     17  C   UNL     1      49.787   5.618  28.762  0.00  0.00    +0.000 A 
ATOM     18  C   UNL     1      49.378   6.206  29.960  0.00  0.00    +0.000 A 
ENDROOT
BRANCH   8  19
ATOM     19  C   UNL     1      49.764   1.260  33.704  0.00  0.00    +0.000 C 
ATOM     20  C   UNL     1      49.800   0.594  35.084  0.00  0.00    +0.000 C 
BRANCH  20  21
ATOM     21  C   UNL     1      49.840  -0.097  36.449  0.00  0.00    +0.000 C 
ATOM     22  C   UNL     1      49.859  -0.767  37.827  0.00  0.00    +0.000 C 
BRANCH  22  23
ATOM     23  C   UNL     1      49.858  -1.412  39.216  0.00  0.00    +0.000 C 
BRANCH  23  24
ATOM     24  C   UNL     1      49.834  -2.031  40.618  0.00  0.00    +0.000 C 
ATOM     25  C   UNL     1      49.834  -2.675  42.007  0.00  0.00    +0.000 C 
BRANCH  25  26
ATOM     26  C   UNL     1      49.852  -3.346  43.384  0.00  0.00    +0.000 C 
ATOM     27  C   UNL     1      49.903  -4.034  44.752  0.00  0.00    +0.000 C 
BRANCH  27  28
ATOM     28  S   UNL     1      49.989  -4.843  46.313  0.00  0.00    +0.000 S 
ATOM     29  O   UNL     1      51.005  -3.866  46.828  0.00  0.00    +0.000 OA
BRANCH  28  30
ATOM     30  C   UNL     1      48.657  -3.914  46.996  0.00  0.00    +0.000 C 
BRANCH  30  31
ATOM     31  C   UNL     1      47.505  -3.087  47.576  0.00  0.00    +0.000 C 
ATOM     32  C   UNL     1      46.361  -2.244  48.150  0.00  0.00    +0.000 C 
BRANCH  32  33
ATOM     33  C   UNL     1      45.272  -1.430  48.697  0.00  0.00    +0.000 C 
ATOM     34  F   UNL     1      45.619  -1.060  49.962  0.00  0.00    +0.000 F 
ATOM     35  F   UNL     1      44.179  -2.232  48.829  0.00  0.00    +0.000 F 
BRANCH  33  36
ATOM     36  C   UNL     1      44.944  -0.202  47.841  0.00  0.00    +0.000 C 
ATOM     37  F   UNL     1      43.883   0.491  48.330  0.00  0.00    +0.000 F 
ATOM     38  F   UNL     1      44.642  -0.535  46.562  0.00  0.00    +0.000 F 
ATOM     39  F   UNL     1      45.987   0.666  47.785  0.00  0.00    +0.000 F 
ENDBRANCH  33  36
ENDBRANCH  32  33
ENDBRANCH  30  31
ENDBRANCH  28  30
ENDBRANCH  27  28
ENDBRANCH  25  26
ENDBRANCH  23  24
ENDBRANCH  22  23
ENDBRANCH  20  21
ENDBRANCH   8  19
BRANCH   6  40
ATOM     40  O   UNL     1      50.460  -3.034  28.570  0.00  0.00    +0.000 OA
ATOM     41  H   UNL     1      49.596  -2.972  28.125  0.00  0.00    +0.000 HD
ENDBRANCH   6  40
BRANCH  18  42
ATOM     42  O   UNL     1      49.097   7.543  29.955  0.00  0.00    +0.000 OA
ATOM     43  H   UNL     1      49.260   7.895  30.848  0.00  0.00    +0.000 HD
ENDBRANCH  18  42
TORSDOF 12
ENDMDL
MODEL 8
REMARK VINA RESULT:      -5.9      6.277      8.507
REMARK  Name = Fulvestrant.pdbqt.pdb
REMARK  12 active torsions:
REMARK  status: ('A' for Active; 'I' for Inactive)
REMARK    1  A    between atoms: C_6  and  O_40
REMARK    2  A    between atoms: C_8  and  C_19
REMARK    3  A    between atoms: C_18  and  O_42
REMARK    4  A    between atoms: C_20  and  C_21
REMARK    5  A    between atoms: C_22  and  C_23
REMARK    6  A    between atoms: C_23  and  C_24
REMARK    7  A    between atoms: C_25  and  C_26
REMARK    8  A    between atoms: C_27  and  S_28
REMARK    9  A    between atoms: S_28  and  C_30
REMARK   10  A    between atoms: C_30  and  C_31
REMARK   11  A    between atoms: C_32  and  C_33
REMARK   12  A    between atoms: C_33  and  C_36
REMARK                            x       y       z     vdW  Elec       q    Type
REMARK                         _______ _______ _______ _____ _____    ______ ____
ROOT
ATOM      1  C   UNL     1      33.928   3.048   1.352  0.00  0.00    +0.000 C 
ATOM      2  C   UNL     1      34.729   2.529   0.062  0.00  0.00    +0.000 C 
ATOM      3  C   UNL     1      32.915   2.226   2.088  0.00  0.00    +0.000 A 
ATOM      4  C   UNL     1      32.852   0.693   1.926  0.00  0.00    +0.000 A 
ATOM      5  C   UNL     1      34.650   1.073   0.104  0.00  0.00    +0.000 C 
ATOM      6  C   UNL     1      36.155   3.074   0.299  0.00  0.00    +0.000 C 
ATOM      7  C   UNL     1      34.831   3.882   2.087  0.00  0.00    +0.000 C 
ATOM      8  C   UNL     1      31.933   2.838   3.022  0.00  0.00    +0.000 A 
ATOM      9  C   UNL     1      33.769   0.209   0.963  0.00  0.00    +0.000 C 
ATOM     10  C   UNL     1      36.203   3.886   1.464  0.00  0.00    +0.000 C 
ATOM     11  C   UNL     1      34.102   3.168  -1.203  0.00  0.00    +0.000 C 
ATOM     12  C   UNL     1      31.892  -0.175   2.665  0.00  0.00    +0.000 A 
ATOM     13  C   UNL     1      31.121   1.850   3.628  0.00  0.00    +0.000 A 
ATOM     14  C   UNL     1      30.985   0.440   3.561  0.00  0.00    +0.000 A 
ATOM     15  C   UNL     1      31.847  -1.558   2.511  0.00  0.00    +0.000 A 
ATOM     16  C   UNL     1      30.056  -0.289   4.287  0.00  0.00    +0.000 A 
ATOM     17  C   UNL     1      30.918  -2.306   3.237  0.00  0.00    +0.000 A 
ATOM     18  C   UNL     1      30.036  -1.669   4.112  0.00  0.00    +0.000 A 
ENDROOT
BRANCH   8  19
ATOM     19  C   UNL     1      31.724   4.233   3.137  0.00  0.00    +0.000 C 
ATOM     20  C   UNL     1      31.496   5.741   3.282  0.00  0.00    +0.000 C 
BRANCH  20  21
ATOM     21  C   UNL     1      31.264   7.244   3.456  0.00  0.00    +0.000 C 
ATOM     22  C   UNL     1      31.043   8.747   3.660  0.00  0.00    +0.000 C 
BRANCH  22  23
ATOM     23  C   UNL     1      30.832  10.245   3.897  0.00  0.00    +0.000 C 
BRANCH  23  24
ATOM     24  C   UNL     1      30.622  11.738   4.169  0.00  0.00    +0.000 C 
ATOM     25  C   UNL     1      30.429  13.238   4.411  0.00  0.00    +0.000 C 
BRANCH  25  26
ATOM     26  C   UNL     1      30.256  14.746   4.624  0.00  0.00    +0.000 C 
ATOM     27  C   UNL     1      30.049  16.251   4.819  0.00  0.00    +0.000 C 
BRANCH  27  28
ATOM     28  S   UNL     1      29.784  17.979   5.023  0.00  0.00    +0.000 S 
ATOM     29  O   UNL     1      28.630  17.973   4.065  0.00  0.00    +0.000 OA
BRANCH  28  30
ATOM     30  C   UNL     1      28.717  17.768   6.408  0.00  0.00    +0.000 C 
BRANCH  30  31
ATOM     31  C   UNL     1      27.785  17.560   7.607  0.00  0.00    +0.000 C 
ATOM     32  C   UNL     1      26.840  17.364   8.797  0.00  0.00    +0.000 C 
BRANCH  32  33
ATOM     33  C   UNL     1      25.930  17.183   9.932  0.00  0.00    +0.000 C 
ATOM     34  F   UNL     1      24.688  16.920   9.436  0.00  0.00    +0.000 F 
ATOM     35  F   UNL     1      25.829  18.378  10.578  0.00  0.00    +0.000 F 
BRANCH  33  36
ATOM     36  C   UNL     1      26.377  16.080  10.897  0.00  0.00    +0.000 C 
ATOM     37  F   UNL     1      27.725  15.913  10.891  0.00  0.00    +0.000 F 
ATOM     38  F   UNL     1      25.830  14.878  10.588  0.00  0.00    +0.000 F 
ATOM     39  F   UNL     1      26.022  16.356  12.178  0.00  0.00    +0.000 F 
ENDBRANCH  33  36
ENDBRANCH  32  33
ENDBRANCH  30  31
ENDBRANCH  28  30
ENDBRANCH  27  28
ENDBRANCH  25  26
ENDBRANCH  23  24
ENDBRANCH  22  23
ENDBRANCH  20  21
ENDBRANCH   8  19
BRANCH   6  40
ATOM     40  O   UNL     1      37.280   2.476  -0.228  0.00  0.00    +0.000 OA
ATOM     41  H   UNL     1      37.139   2.187  -1.147  0.00  0.00    +0.000 HD
ENDBRANCH   6  40
BRANCH  18  42
ATOM     42  O   UNL     1      29.144  -2.442   4.800  0.00  0.00    +0.000 OA
ATOM     43  H   UNL     1      29.514  -3.339   4.882  0.00  0.00    +0.000 HD
ENDBRANCH  18  42
TORSDOF 12
ENDMDL
MODEL 9
REMARK VINA RESULT:      -5.9     44.623     47.761
REMARK  Name = Fulvestrant.pdbqt.pdb
REMARK  12 active torsions:
REMARK  status: ('A' for Active; 'I' for Inactive)
REMARK    1  A    between atoms: C_6  and  O_40
REMARK    2  A    between atoms: C_8  and  C_19
REMARK    3  A    between atoms: C_18  and  O_42
REMARK    4  A    between atoms: C_20  and  C_21
REMARK    5  A    between atoms: C_22  and  C_23
REMARK    6  A    between atoms: C_23  and  C_24
REMARK    7  A    between atoms: C_25  and  C_26
REMARK    8  A    between atoms: C_27  and  S_28
REMARK    9  A    between atoms: S_28  and  C_30
REMARK   10  A    between atoms: C_30  and  C_31
REMARK   11  A    between atoms: C_32  and  C_33
REMARK   12  A    between atoms: C_33  and  C_36
REMARK                            x       y       z     vdW  Elec       q    Type
REMARK                         _______ _______ _______ _____ _____    ______ ____
ROOT
ATOM      1  C   UNL     1      48.008  10.213  43.894  0.00  0.00    +0.000 C 
ATOM      2  C   UNL     1      46.630  10.144  44.712  0.00  0.00    +0.000 C 
ATOM      3  C   UNL     1      48.973   9.070  43.790  0.00  0.00    +0.000 A 
ATOM      4  C   UNL     1      48.542   7.623  44.109  0.00  0.00    +0.000 A 
ATOM      5  C   UNL     1      46.321   8.725  44.851  0.00  0.00    +0.000 C 
ATOM      6  C   UNL     1      45.646  10.901  43.793  0.00  0.00    +0.000 C 
ATOM      7  C   UNL     1      47.765  11.039  42.749  0.00  0.00    +0.000 C 
ATOM      8  C   UNL     1      50.382   9.267  43.360  0.00  0.00    +0.000 A 
ATOM      9  C   UNL     1      47.210   7.543  44.582  0.00  0.00    +0.000 C 
ATOM     10  C   UNL     1      46.317  11.445  42.665  0.00  0.00    +0.000 C 
ATOM     11  C   UNL     1      46.812  10.894  46.057  0.00  0.00    +0.000 C 
ATOM     12  C   UNL     1      49.448   6.448  43.983  0.00  0.00    +0.000 A 
ATOM     13  C   UNL     1      51.072   8.032  43.295  0.00  0.00    +0.000 A 
ATOM     14  C   UNL     1      50.778   6.669  43.552  0.00  0.00    +0.000 A 
ATOM     15  C   UNL     1      49.046   5.146  44.272  0.00  0.00    +0.000 A 
ATOM     16  C   UNL     1      51.690   5.635  43.409  0.00  0.00    +0.000 A 
ATOM     17  C   UNL     1      49.953   4.094  44.131  0.00  0.00    +0.000 A 
ATOM     18  C   UNL     1      51.258   4.346  43.705  0.00  0.00    +0.000 A 
ENDROOT
BRANCH   8  19
ATOM     19  C   UNL     1      50.991  10.537  43.222  0.00  0.00    +0.000 C 
ATOM     20  C   UNL     1      51.669  11.903  43.078  0.00  0.00    +0.000 C 
BRANCH  20  21
ATOM     21  C   UNL     1      52.371  13.257  42.944  0.00  0.00    +0.000 C 
ATOM     22  C   UNL     1      53.083  14.610  42.841  0.00  0.00    +0.000 C 
BRANCH  22  23
ATOM     23  C   UNL     1      53.802  15.960  42.771  0.00  0.00    +0.000 C 
BRANCH  23  24
ATOM     24  C   UNL     1      54.501  17.320  42.673  0.00  0.00    +0.000 C 
ATOM     25  C   UNL     1      55.203  18.675  42.540  0.00  0.00    +0.000 C 
BRANCH  25  26
ATOM     26  C   UNL     1      55.910  20.024  42.372  0.00  0.00    +0.000 C 
ATOM     27  C   UNL     1      56.619  21.366  42.167  0.00  0.00    +0.000 C 
BRANCH  27  28
ATOM     28  S   UNL     1      57.440  22.900  41.898  0.00  0.00    +0.000 S 
ATOM     29  O   UNL     1      58.100  22.848  43.244  0.00  0.00    +0.000 OA
BRANCH  28  30
ATOM     30  C   UNL     1      58.829  22.151  41.117  0.00  0.00    +0.000 C 
BRANCH  30  31
ATOM     31  C   UNL     1      60.044  21.521  40.429  0.00  0.00    +0.000 C 
ATOM     32  C   UNL     1      61.251  20.894  39.723  0.00  0.00    +0.000 C 
BRANCH  32  33
ATOM     33  C   UNL     1      62.401  20.294  39.039  0.00  0.00    +0.000 C 
ATOM     34  F   UNL     1      62.058  20.097  37.735  0.00  0.00    +0.000 F 
ATOM     35  F   UNL     1      62.597  19.053  39.566  0.00  0.00    +0.000 F 
BRANCH  33  36
ATOM     36  C   UNL     1      63.676  21.137  39.145  0.00  0.00    +0.000 C 
ATOM     37  F   UNL     1      64.263  21.021  40.364  0.00  0.00    +0.000 F 
ATOM     38  F   UNL     1      63.435  22.457  38.948  0.00  0.00    +0.000 F 
ATOM     39  F   UNL     1      64.603  20.766  38.226  0.00  0.00    +0.000 F 
ENDBRANCH  33  36
ENDBRANCH  32  33
ENDBRANCH  30  31
ENDBRANCH  28  30
ENDBRANCH  27  28
ENDBRANCH  25  26
ENDBRANCH  23  24
ENDBRANCH  22  23
ENDBRANCH  20  21
ENDBRANCH   8  19
BRANCH   6  40
ATOM     40  O   UNL     1      44.287  10.662  43.797  0.00  0.00    +0.000 OA
ATOM     41  H   UNL     1      43.973  10.376  44.673  0.00  0.00    +0.000 HD
ENDBRANCH   6  40
BRANCH  18  42
ATOM     42  O   UNL     1      52.110   3.285  43.584  0.00  0.00    +0.000 OA
ATOM     43  H   UNL     1      52.936   3.599  43.175  0.00  0.00    +0.000 HD
ENDBRANCH  18  42
TORSDOF 12
ENDMDL
