MODEL 1
REMARK VINA RESULT:      -6.8      0.000      0.000
REMARK  Name = Gefitinib.pdbqt.pdb
REMARK  6 active torsions:
REMARK  status: ('A' for Active; 'I' for Inactive)
REMARK    1  A    between atoms: C_3  and  O_11
REMARK    2  A    between atoms: C_6  and  O_21
REMARK    3  A    between atoms: O_11  and  C_12
REMARK    4  A    between atoms: C_13  and  C_14
REMARK    5  A    between atoms: C_14  and  N_15
REMARK    6  A    between atoms: N_23  and  C_25
REMARK                            x       y       z     vdW  Elec       q    Type
REMARK                         _______ _______ _______ _____ _____    ______ ____
ROOT
ATOM      1  N   UNL     1      46.830   9.865  20.493  0.00  0.00    +0.000 NA
ATOM      2  N   UNL     1      44.501   9.386  20.344  0.00  0.00    +0.000 NA
ATOM      3  C   UNL     1      47.676   5.893  21.394  0.00  0.00    +0.000 A 
ATOM      4  C   UNL     1      46.048   7.633  20.846  0.00  0.00    +0.000 A 
ATOM      5  C   UNL     1      46.362   6.299  21.159  0.00  0.00    +0.000 A 
ATOM      6  C   UNL     1      48.699   6.838  21.311  0.00  0.00    +0.000 A 
ATOM      7  C   UNL     1      47.069   8.584  20.773  0.00  0.00    +0.000 A 
ATOM      8  C   UNL     1      48.373   8.165  21.004  0.00  0.00    +0.000 A 
ATOM      9  C   UNL     1      44.746   8.093  20.608  0.00  0.00    +0.000 A 
ATOM     10  C   UNL     1      45.552  10.213  20.296  0.00  0.00    +0.000 A 
ATOM     11  N   UNL     1      43.666   7.177  20.692  0.00  0.00    +0.000 N 
ATOM     12  H   UNL     1      43.877   6.318  20.192  0.00  0.00    +0.000 HD
ENDROOT
BRANCH  11  13
ATOM     13  C   UNL     1      42.283   7.463  20.689  0.00  0.00    +0.000 A 
ATOM     14  C   UNL     1      41.623   7.599  19.462  0.00  0.00    +0.000 A 
ATOM     15  C   UNL     1      40.243   7.777  19.407  0.00  0.00    +0.000 A 
ATOM     16 CL   UNL     1      39.492   7.972  17.874  0.00  0.00    +0.000 Cl
ATOM     17  C   UNL     1      39.500   7.792  20.583  0.00  0.00    +0.000 A 
ATOM     18  F   UNL     1      38.170   7.963  20.551  0.00  0.00    +0.000 F 
ATOM     19  C   UNL     1      40.126   7.620  21.810  0.00  0.00    +0.000 A 
ATOM     20  C   UNL     1      41.507   7.440  21.853  0.00  0.00    +0.000 A 
ENDBRANCH  11  13
BRANCH   6  21
ATOM     21  O   UNL     1      49.979   6.396  21.550  0.00  0.00    +0.000 OA
ATOM     22  C   UNL     1      50.538   6.791  22.772  0.00  0.00    +0.000 C 
ENDBRANCH   6  21
BRANCH   3  23
ATOM     23  O   UNL     1      48.022   4.599  21.701  0.00  0.00    +0.000 OA
BRANCH  23  24
ATOM     24  C   UNL     1      48.568   3.916  20.697  0.00  0.00    +0.000 C 
ATOM     25  C   UNL     1      49.199   3.145  19.533  0.00  0.00    +0.000 C 
BRANCH  25  26
ATOM     26  C   UNL     1      49.841   2.405  18.354  0.00  0.00    +0.000 C 
BRANCH  26  27
ATOM     27  N   UNL     1      50.462   1.700  17.242  0.00  0.00    +0.000 N 
ATOM     28  C   UNL     1      49.762   0.384  17.126  0.00  0.00    +0.000 C 
ATOM     29  C   UNL     1      48.785  -0.111  16.010  0.00  0.00    +0.000 C 
ATOM     30  O   UNL     1      48.281   0.433  14.880  0.00  0.00    +0.000 OA
ATOM     31  C   UNL     1      48.911   1.619  14.985  0.00  0.00    +0.000 C 
ATOM     32  C   UNL     1      49.896   2.288  15.991  0.00  0.00    +0.000 C 
ENDBRANCH  26  27
ENDBRANCH  25  26
ENDBRANCH  23  24
ENDBRANCH   3  23
TORSDOF 6
ENDMDL
MODEL 2
REMARK VINA RESULT:      -6.7     25.958     29.259
REMARK  Name = Gefitinib.pdbqt.pdb
REMARK  6 active torsions:
REMARK  status: ('A' for Active; 'I' for Inactive)
REMARK    1  A    between atoms: C_3  and  O_11
REMARK    2  A    between atoms: C_6  and  O_21
REMARK    3  A    between atoms: O_11  and  C_12
REMARK    4  A    between atoms: C_13  and  C_14
REMARK    5  A    between atoms: C_14  and  N_15
REMARK    6  A    between atoms: N_23  and  C_25
REMARK                            x       y       z     vdW  Elec       q    Type
REMARK                         _______ _______ _______ _____ _____    ______ ____
ROOT
ATOM      1  N   UNL     1      21.367   8.725  17.315  0.00  0.00    +0.000 NA
ATOM      2  N   UNL     1      20.255   6.898  18.365  0.00  0.00    +0.000 NA
ATOM      3  C   UNL     1      18.646  11.423  18.934  0.00  0.00    +0.000 A 
ATOM      4  C   UNL     1      19.446   9.127  18.681  0.00  0.00    +0.000 A 
ATOM      5  C   UNL     1      18.537  10.060  19.210  0.00  0.00    +0.000 A 
ATOM      6  C   UNL     1      19.688  11.865  18.117  0.00  0.00    +0.000 A 
ATOM      7  C   UNL     1      20.483   9.565  17.854  0.00  0.00    +0.000 A 
ATOM      8  C   UNL     1      20.583  10.925  17.593  0.00  0.00    +0.000 A 
ATOM      9  C   UNL     1      19.377   7.748  18.921  0.00  0.00    +0.000 A 
ATOM     10  C   UNL     1      21.211   7.424  17.590  0.00  0.00    +0.000 A 
ATOM     11  N   UNL     1      18.330   7.243  19.736  0.00  0.00    +0.000 N 
ATOM     12  H   UNL     1      18.227   7.795  20.582  0.00  0.00    +0.000 HD
ENDROOT
BRANCH  11  13
ATOM     13  C   UNL     1      17.962   5.895  19.937  0.00  0.00    +0.000 A 
ATOM     14  C   UNL     1      17.511   5.145  18.844  0.00  0.00    +0.000 A 
ATOM     15  C   UNL     1      17.236   3.786  18.972  0.00  0.00    +0.000 A 
ATOM     16 CL   UNL     1      16.654   2.926  17.604  0.00  0.00    +0.000 Cl
ATOM     17  C   UNL     1      17.437   3.151  20.193  0.00  0.00    +0.000 A 
ATOM     18  F   UNL     1      17.178   1.843  20.336  0.00  0.00    +0.000 F 
ATOM     19  C   UNL     1      17.920   3.864  21.283  0.00  0.00    +0.000 A 
ATOM     20  C   UNL     1      18.195   5.222  21.142  0.00  0.00    +0.000 A 
ENDBRANCH  11  13
BRANCH   6  21
ATOM     21  O   UNL     1      19.758  13.216  17.870  0.00  0.00    +0.000 OA
ATOM     22  C   UNL     1      19.596  13.597  16.533  0.00  0.00    +0.000 C 
ENDBRANCH   6  21
BRANCH   3  23
ATOM     23  O   UNL     1      17.779  12.366  19.432  0.00  0.00    +0.000 OA
BRANCH  23  24
ATOM     24  C   UNL     1      17.787  12.484  20.758  0.00  0.00    +0.000 C 
ATOM     25  C   UNL     1      17.813  12.613  22.284  0.00  0.00    +0.000 C 
BRANCH  25  26
ATOM     26  C   UNL     1      17.873  12.734  23.811  0.00  0.00    +0.000 C 
BRANCH  26  27
ATOM     27  N   UNL     1      17.929  12.863  25.260  0.00  0.00    +0.000 N 
ATOM     28  C   UNL     1      17.663  14.300  25.572  0.00  0.00    +0.000 C 
ATOM     29  C   UNL     1      16.404  14.942  26.241  0.00  0.00    +0.000 C 
ATOM     30  O   UNL     1      15.233  14.463  26.715  0.00  0.00    +0.000 OA
ATOM     31  C   UNL     1      15.471  13.166  26.433  0.00  0.00    +0.000 C 
ATOM     32  C   UNL     1      16.629  12.347  25.787  0.00  0.00    +0.000 C 
ENDBRANCH  26  27
ENDBRANCH  25  26
ENDBRANCH  23  24
ENDBRANCH   3  23
TORSDOF 6
ENDMDL
MODEL 3
REMARK VINA RESULT:      -6.3     23.438     27.073
REMARK  Name = Gefitinib.pdbqt.pdb
REMARK  6 active torsions:
REMARK  status: ('A' for Active; 'I' for Inactive)
REMARK    1  A    between atoms: C_3  and  O_11
REMARK    2  A    between atoms: C_6  and  O_21
REMARK    3  A    between atoms: O_11  and  C_12
REMARK    4  A    between atoms: C_13  and  C_14
REMARK    5  A    between atoms: C_14  and  N_15
REMARK    6  A    between atoms: N_23  and  C_25
REMARK                            x       y       z     vdW  Elec       q    Type
REMARK                         _______ _______ _______ _____ _____    ______ ____
ROOT
ATOM      1  N   UNL     1      49.325 -16.508  14.501  0.00  0.00    +0.000 NA
ATOM      2  N   UNL     1      48.107 -18.519  14.112  0.00  0.00    +0.000 NA
ATOM      3  C   UNL     1      51.044 -18.112  17.933  0.00  0.00    +0.000 A 
ATOM      4  C   UNL     1      49.566 -18.356  16.001  0.00  0.00    +0.000 A 
ATOM      5  C   UNL     1      50.156 -18.870  17.168  0.00  0.00    +0.000 A 
ATOM      6  C   UNL     1      51.351 -16.815  17.521  0.00  0.00    +0.000 A 
ATOM      7  C   UNL     1      49.864 -17.053  15.592  0.00  0.00    +0.000 A 
ATOM      8  C   UNL     1      50.753 -16.313  16.359  0.00  0.00    +0.000 A 
ATOM      9  C   UNL     1      48.664 -19.072  15.201  0.00  0.00    +0.000 A 
ATOM     10  C   UNL     1      48.463 -17.265  13.810  0.00  0.00    +0.000 A 
ATOM     11  N   UNL     1      48.307 -20.391  15.580  0.00  0.00    +0.000 N 
ATOM     12  H   UNL     1      49.128 -20.935  15.830  0.00  0.00    +0.000 HD
ENDROOT
BRANCH  11  13
ATOM     13  C   UNL     1      47.282 -21.201  15.042  0.00  0.00    +0.000 A 
ATOM     14  C   UNL     1      47.502 -21.846  13.819  0.00  0.00    +0.000 A 
ATOM     15  C   UNL     1      46.564 -22.736  13.301  0.00  0.00    +0.000 A 
ATOM     16 CL   UNL     1      46.873 -23.473  11.780  0.00  0.00    +0.000 Cl
ATOM     17  C   UNL     1      45.404 -23.014  14.016  0.00  0.00    +0.000 A 
ATOM     18  F   UNL     1      44.490 -23.868  13.534  0.00  0.00    +0.000 F 
ATOM     19  C   UNL     1      45.181 -22.416  15.250  0.00  0.00    +0.000 A 
ATOM     20  C   UNL     1      46.127 -21.530  15.760  0.00  0.00    +0.000 A 
ENDBRANCH  11  13
BRANCH   6  21
ATOM     21  O   UNL     1      52.229 -16.103  18.304  0.00  0.00    +0.000 OA
ATOM     22  C   UNL     1      52.799 -14.974  17.703  0.00  0.00    +0.000 C 
ENDBRANCH   6  21
BRANCH   3  23
ATOM     23  O   UNL     1      51.641 -18.580  19.079  0.00  0.00    +0.000 OA
BRANCH  23  24
ATOM     24  C   UNL     1      50.839 -19.280  19.878  0.00  0.00    +0.000 C 
ATOM     25  C   UNL     1      49.915 -20.072  20.809  0.00  0.00    +0.000 C 
BRANCH  25  26
ATOM     26  C   UNL     1      48.983 -20.834  21.757  0.00  0.00    +0.000 C 
BRANCH  26  27
ATOM     27  N   UNL     1      48.088 -21.559  22.648  0.00  0.00    +0.000 N 
ATOM     28  C   UNL     1      48.471 -23.001  22.560  0.00  0.00    +0.000 C 
ATOM     29  C   UNL     1      49.169 -23.897  23.634  0.00  0.00    +0.000 C 
ATOM     30  O   UNL     1      49.628 -23.693  24.889  0.00  0.00    +0.000 OA
ATOM     31  C   UNL     1      49.283 -22.392  24.969  0.00  0.00    +0.000 C 
ATOM     32  C   UNL     1      48.600 -21.347  24.036  0.00  0.00    +0.000 C 
ENDBRANCH  26  27
ENDBRANCH  25  26
ENDBRANCH  23  24
ENDBRANCH   3  23
TORSDOF 6
ENDMDL
MODEL 4
REMARK VINA RESULT:      -6.3     24.188     25.885
REMARK  Name = Gefitinib.pdbqt.pdb
REMARK  6 active torsions:
REMARK  status: ('A' for Active; 'I' for Inactive)
REMARK    1  A    between atoms: C_3  and  O_11
REMARK    2  A    between atoms: C_6  and  O_21
REMARK    3  A    between atoms: O_11  and  C_12
REMARK    4  A    between atoms: C_13  and  C_14
REMARK    5  A    between atoms: C_14  and  N_15
REMARK    6  A    between atoms: N_23  and  C_25
REMARK                            x       y       z     vdW  Elec       q    Type
REMARK                         _______ _______ _______ _____ _____    ______ ____
ROOT
ATOM      1  N   UNL     1      27.889   6.744   1.933  0.00  0.00    +0.000 NA
ATOM      2  N   UNL     1      25.882   7.372   3.053  0.00  0.00    +0.000 NA
ATOM      3  C   UNL     1      28.345   3.441   4.420  0.00  0.00    +0.000 A 
ATOM      4  C   UNL     1      27.067   5.412   3.741  0.00  0.00    +0.000 A 
ATOM      5  C   UNL     1      27.249   4.292   4.571  0.00  0.00    +0.000 A 
ATOM      6  C   UNL     1      29.275   3.711   3.416  0.00  0.00    +0.000 A 
ATOM      7  C   UNL     1      28.003   5.691   2.742  0.00  0.00    +0.000 A 
ATOM      8  C   UNL     1      29.085   4.832   2.599  0.00  0.00    +0.000 A 
ATOM      9  C   UNL     1      25.990   6.301   3.855  0.00  0.00    +0.000 A 
ATOM     10  C   UNL     1      26.833   7.545   2.128  0.00  0.00    +0.000 A 
ATOM     11  N   UNL     1      25.020   6.080   4.867  0.00  0.00    +0.000 N 
ATOM     12  H   UNL     1      24.731   5.107   4.889  0.00  0.00    +0.000 HD
ENDROOT
BRANCH  11  13
ATOM     13  C   UNL     1      23.985   6.948   5.280  0.00  0.00    +0.000 A 
ATOM     14  C   UNL     1      24.268   7.931   6.236  0.00  0.00    +0.000 A 
ATOM     15  C   UNL     1      23.310   8.875   6.597  0.00  0.00    +0.000 A 
ATOM     16 CL   UNL     1      23.704  10.037   7.800  0.00  0.00    +0.000 Cl
ATOM     17  C   UNL     1      22.062   8.864   5.984  0.00  0.00    +0.000 A 
ATOM     18  F   UNL     1      21.126   9.764   6.319  0.00  0.00    +0.000 F 
ATOM     19  C   UNL     1      21.770   7.923   5.005  0.00  0.00    +0.000 A 
ATOM     20  C   UNL     1      22.737   6.986   4.649  0.00  0.00    +0.000 A 
ENDBRANCH  11  13
BRANCH   6  21
ATOM     21  O   UNL     1      30.340   2.848   3.302  0.00  0.00    +0.000 OA
ATOM     22  C   UNL     1      30.344   2.037   2.161  0.00  0.00    +0.000 C 
ENDBRANCH   6  21
BRANCH   3  23
ATOM     23  O   UNL     1      28.557   2.338   5.211  0.00  0.00    +0.000 OA
BRANCH  23  24
ATOM     24  C   UNL     1      27.459   1.645   5.506  0.00  0.00    +0.000 C 
ATOM     25  C   UNL     1      26.197   0.853   5.862  0.00  0.00    +0.000 C 
BRANCH  25  26
ATOM     26  C   UNL     1      24.936   0.074   6.252  0.00  0.00    +0.000 C 
BRANCH  26  27
ATOM     27  N   UNL     1      23.730  -0.654   6.621  0.00  0.00    +0.000 N 
ATOM     28  C   UNL     1      22.830  -0.623   5.429  0.00  0.00    +0.000 C 
ATOM     29  C   UNL     1      22.428  -1.793   4.473  0.00  0.00    +0.000 C 
ATOM     30  O   UNL     1      22.735  -3.107   4.400  0.00  0.00    +0.000 OA
ATOM     31  C   UNL     1      23.548  -3.136   5.475  0.00  0.00    +0.000 C 
ATOM     32  C   UNL     1      24.060  -2.107   6.528  0.00  0.00    +0.000 C 
ENDBRANCH  26  27
ENDBRANCH  25  26
ENDBRANCH  23  24
ENDBRANCH   3  23
TORSDOF 6
ENDMDL
MODEL 5
REMARK VINA RESULT:      -5.8     22.448     24.916
REMARK  Name = Gefitinib.pdbqt.pdb
REMARK  6 active torsions:
REMARK  status: ('A' for Active; 'I' for Inactive)
REMARK    1  A    between atoms: C_3  and  O_11
REMARK    2  A    between atoms: C_6  and  O_21
REMARK    3  A    between atoms: O_11  and  C_12
REMARK    4  A    between atoms: C_13  and  C_14
REMARK    5  A    between atoms: C_14  and  N_15
REMARK    6  A    between atoms: N_23  and  C_25
REMARK                            x       y       z     vdW  Elec       q    Type
REMARK                         _______ _______ _______ _____ _____    ______ ____
ROOT
ATOM      1  N   UNL     1      39.475  23.172  39.291  0.00  0.00    +0.000 NA
ATOM      2  N   UNL     1      41.106  21.593  40.016  0.00  0.00    +0.000 NA
ATOM      3  C   UNL     1      41.103  23.224  35.463  0.00  0.00    +0.000 A 
ATOM      4  C   UNL     1      41.119  22.366  37.752  0.00  0.00    +0.000 A 
ATOM      5  C   UNL     1      41.653  22.408  36.453  0.00  0.00    +0.000 A 
ATOM      6  C   UNL     1      39.994  24.011  35.777  0.00  0.00    +0.000 A 
ATOM      7  C   UNL     1      40.016  23.161  38.073  0.00  0.00    +0.000 A 
ATOM      8  C   UNL     1      39.476  23.964  37.076  0.00  0.00    +0.000 A 
ATOM      9  C   UNL     1      41.637  21.571  38.783  0.00  0.00    +0.000 A 
ATOM     10  C   UNL     1      40.049  22.390  40.214  0.00  0.00    +0.000 A 
ATOM     11  N   UNL     1      42.771  20.759  38.522  0.00  0.00    +0.000 N 
ATOM     12  H   UNL     1      42.664  20.251  37.650  0.00  0.00    +0.000 HD
ENDROOT
BRANCH  11  13
ATOM     13  C   UNL     1      43.562  20.049  39.452  0.00  0.00    +0.000 A 
ATOM     14  C   UNL     1      44.775  20.607  39.874  0.00  0.00    +0.000 A 
ATOM     15  C   UNL     1      45.538  19.995  40.866  0.00  0.00    +0.000 A 
ATOM     16 CL   UNL     1      47.034  20.709  41.319  0.00  0.00    +0.000 Cl
ATOM     17  C   UNL     1      45.080  18.829  41.471  0.00  0.00    +0.000 A 
ATOM     18  F   UNL     1      45.801  18.226  42.427  0.00  0.00    +0.000 F 
ATOM     19  C   UNL     1      43.862  18.277  41.097  0.00  0.00    +0.000 A 
ATOM     20  C   UNL     1      43.106  18.899  40.106  0.00  0.00    +0.000 A 
ENDBRANCH  11  13
BRANCH   6  21
ATOM     21  O   UNL     1      39.484  24.800  34.773  0.00  0.00    +0.000 OA
ATOM     22  C   UNL     1      39.752  26.170  34.884  0.00  0.00    +0.000 C 
ENDBRANCH   6  21
BRANCH   3  23
ATOM     23  O   UNL     1      41.595  23.292  34.182  0.00  0.00    +0.000 OA
BRANCH  23  24
ATOM     24  C   UNL     1      42.853  22.878  34.047  0.00  0.00    +0.000 C 
ATOM     25  C   UNL     1      44.304  22.403  33.909  0.00  0.00    +0.000 C 
BRANCH  25  26
ATOM     26  C   UNL     1      45.757  21.929  33.806  0.00  0.00    +0.000 C 
BRANCH  26  27
ATOM     27  N   UNL     1      47.142  21.487  33.720  0.00  0.00    +0.000 N 
ATOM     28  C   UNL     1      47.933  22.653  33.223  0.00  0.00    +0.000 C 
ATOM     29  C   UNL     1      48.971  23.533  33.992  0.00  0.00    +0.000 C 
ATOM     30  O   UNL     1      49.457  23.544  35.253  0.00  0.00    +0.000 OA
ATOM     31  C   UNL     1      48.743  22.493  35.702  0.00  0.00    +0.000 C 
ATOM     32  C   UNL     1      47.687  21.511  35.110  0.00  0.00    +0.000 C 
ENDBRANCH  26  27
ENDBRANCH  25  26
ENDBRANCH  23  24
ENDBRANCH   3  23
TORSDOF 6
ENDMDL
MODEL 6
REMARK VINA RESULT:      -5.8     30.764     36.475
REMARK  Name = Gefitinib.pdbqt.pdb
REMARK  6 active torsions:
REMARK  status: ('A' for Active; 'I' for Inactive)
REMARK    1  A    between atoms: C_3  and  O_11
REMARK    2  A    between atoms: C_6  and  O_21
REMARK    3  A    between atoms: O_11  and  C_12
REMARK    4  A    between atoms: C_13  and  C_14
REMARK    5  A    between atoms: C_14  and  N_15
REMARK    6  A    between atoms: N_23  and  C_25
REMARK                            x       y       z     vdW  Elec       q    Type
REMARK                         _______ _______ _______ _____ _____    ______ ____
ROOT
ATOM      1  N   UNL     1      41.234 -21.372  -8.462  0.00  0.00    +0.000 NA
ATOM      2  N   UNL     1      43.203 -20.086  -8.845  0.00  0.00    +0.000 NA
ATOM      3  C   UNL     1      41.610 -20.881  -4.348  0.00  0.00    +0.000 A 
ATOM      4  C   UNL     1      42.430 -20.446  -6.610  0.00  0.00    +0.000 A 
ATOM      5  C   UNL     1      42.537 -20.302  -5.216  0.00  0.00    +0.000 A 
ATOM      6  C   UNL     1      40.552 -21.616  -4.885  0.00  0.00    +0.000 A 
ATOM      7  C   UNL     1      41.378 -21.191  -7.149  0.00  0.00    +0.000 A 
ATOM      8  C   UNL     1      40.460 -21.757  -6.275  0.00  0.00    +0.000 A 
ATOM      9  C   UNL     1      43.337 -19.891  -7.523  0.00  0.00    +0.000 A 
ATOM     10  C   UNL     1      42.158 -20.815  -9.255  0.00  0.00    +0.000 A 
ATOM     11  N   UNL     1      44.438 -19.144  -7.032  0.00  0.00    +0.000 N 
ATOM     12  H   UNL     1      44.142 -18.482  -6.321  0.00  0.00    +0.000 HD
ENDROOT
BRANCH  11  13
ATOM     13  C   UNL     1      45.560 -18.678  -7.751  0.00  0.00    +0.000 A 
ATOM     14  C   UNL     1      45.872 -17.314  -7.710  0.00  0.00    +0.000 A 
ATOM     15  C   UNL     1      47.026 -16.824  -8.317  0.00  0.00    +0.000 A 
ATOM     16 CL   UNL     1      47.339 -15.136  -8.261  0.00  0.00    +0.000 Cl
ATOM     17  C   UNL     1      47.901 -17.701  -8.949  0.00  0.00    +0.000 A 
ATOM     18  F   UNL     1      49.017 -17.248  -9.539  0.00  0.00    +0.000 F 
ATOM     19  C   UNL     1      47.634 -19.063  -8.971  0.00  0.00    +0.000 A 
ATOM     20  C   UNL     1      46.478 -19.543  -8.358  0.00  0.00    +0.000 A 
ENDBRANCH  11  13
BRANCH   6  21
ATOM     21  O   UNL     1      39.663 -22.171  -3.995  0.00  0.00    +0.000 OA
ATOM     22  C   UNL     1      39.583 -23.569  -4.008  0.00  0.00    +0.000 C 
ENDBRANCH   6  21
BRANCH   3  23
ATOM     23  O   UNL     1      41.680 -20.763  -2.981  0.00  0.00    +0.000 OA
BRANCH  23  24
ATOM     24  C   UNL     1      41.794 -19.513  -2.536  0.00  0.00    +0.000 C 
ATOM     25  C   UNL     1      41.919 -18.080  -2.009  0.00  0.00    +0.000 C 
BRANCH  25  26
ATOM     26  C   UNL     1      42.037 -16.659  -1.448  0.00  0.00    +0.000 C 
BRANCH  26  27
ATOM     27  N   UNL     1      42.133 -15.307  -0.915  0.00  0.00    +0.000 N 
ATOM     28  C   UNL     1      43.187 -14.608  -1.712  0.00  0.00    +0.000 C 
ATOM     29  C   UNL     1      43.023 -13.457  -2.758  0.00  0.00    +0.000 C 
ATOM     30  O   UNL     1      41.972 -12.771  -3.258  0.00  0.00    +0.000 OA
ATOM     31  C   UNL     1      41.021 -13.402  -2.540  0.00  0.00    +0.000 C 
ATOM     32  C   UNL     1      40.981 -14.541  -1.477  0.00  0.00    +0.000 C 
ENDBRANCH  26  27
ENDBRANCH  25  26
ENDBRANCH  23  24
ENDBRANCH   3  23
TORSDOF 6
ENDMDL
MODEL 7
REMARK VINA RESULT:      -5.7     27.519     30.219
REMARK  Name = Gefitinib.pdbqt.pdb
REMARK  6 active torsions:
REMARK  status: ('A' for Active; 'I' for Inactive)
REMARK    1  A    between atoms: C_3  and  O_11
REMARK    2  A    between atoms: C_6  and  O_21
REMARK    3  A    between atoms: O_11  and  C_12
REMARK    4  A    between atoms: C_13  and  C_14
REMARK    5  A    between atoms: C_14  and  N_15
REMARK    6  A    between atoms: N_23  and  C_25
REMARK                            x       y       z     vdW  Elec       q    Type
REMARK                         _______ _______ _______ _____ _____    ______ ____
ROOT
ATOM      1  N   UNL     1      19.754  10.679  18.702  0.00  0.00    +0.000 NA
ATOM      2  N   UNL     1      19.055   8.470  19.255  0.00  0.00    +0.000 NA
ATOM      3  C   UNL     1      17.180  12.296  21.541  0.00  0.00    +0.000 A 
ATOM      4  C   UNL     1      18.122  10.341  20.417  0.00  0.00    +0.000 A 
ATOM      5  C   UNL     1      17.257  10.915  21.365  0.00  0.00    +0.000 A 
ATOM      6  C   UNL     1      17.987  13.122  20.759  0.00  0.00    +0.000 A 
ATOM      7  C   UNL     1      18.924  11.166  19.624  0.00  0.00    +0.000 A 
ATOM      8  C   UNL     1      18.841  12.539  19.815  0.00  0.00    +0.000 A 
ATOM      9  C   UNL     1      18.233   8.961  20.196  0.00  0.00    +0.000 A 
ATOM     10  C   UNL     1      19.779   9.349  18.553  0.00  0.00    +0.000 A 
ATOM     11  N   UNL     1      17.426   8.076  20.956  0.00  0.00    +0.000 N 
ATOM     12  H   UNL     1      17.447   8.318  21.942  0.00  0.00    +0.000 HD
ENDROOT
BRANCH  11  13
ATOM     13  C   UNL     1      17.234   6.691  20.758  0.00  0.00    +0.000 A 
ATOM     14  C   UNL     1      16.404   6.265  19.714  0.00  0.00    +0.000 A 
ATOM     15  C   UNL     1      16.268   4.912  19.414  0.00  0.00    +0.000 A 
ATOM     16 CL   UNL     1      15.209   4.448  18.143  0.00  0.00    +0.000 Cl
ATOM     17  C   UNL     1      16.984   3.967  20.139  0.00  0.00    +0.000 A 
ATOM     18  F   UNL     1      16.866   2.659  19.865  0.00  0.00    +0.000 F 
ATOM     19  C   UNL     1      17.844   4.365  21.154  0.00  0.00    +0.000 A 
ATOM     20  C   UNL     1      17.975   5.722  21.443  0.00  0.00    +0.000 A 
ENDBRANCH  11  13
BRANCH   6  21
ATOM     21  O   UNL     1      17.879  14.478  20.964  0.00  0.00    +0.000 OA
ATOM     22  C   UNL     1      19.063  15.134  21.321  0.00  0.00    +0.000 C 
ENDBRANCH   6  21
BRANCH   3  23
ATOM     23  O   UNL     1      16.347  12.895  22.457  0.00  0.00    +0.000 OA
BRANCH  23  24
ATOM     24  C   UNL     1      16.586  12.565  23.724  0.00  0.00    +0.000 C 
ATOM     25  C   UNL     1      16.877  12.186  25.180  0.00  0.00    +0.000 C 
BRANCH  25  26
ATOM     26  C   UNL     1      17.204  11.812  26.630  0.00  0.00    +0.000 C 
BRANCH  26  27
ATOM     27  N   UNL     1      17.518  11.444  28.003  0.00  0.00    +0.000 N 
ATOM     28  C   UNL     1      16.958  12.522  28.874  0.00  0.00    +0.000 C 
ATOM     29  C   UNL     1      15.739  12.459  29.851  0.00  0.00    +0.000 C 
ATOM     30  O   UNL     1      14.854  11.501  30.204  0.00  0.00    +0.000 OA
ATOM     31  C   UNL     1      15.358  10.528  29.418  0.00  0.00    +0.000 C 
ATOM     32  C   UNL     1      16.532  10.395  28.402  0.00  0.00    +0.000 C 
ENDBRANCH  26  27
ENDBRANCH  25  26
ENDBRANCH  23  24
ENDBRANCH   3  23
TORSDOF 6
ENDMDL
MODEL 8
REMARK VINA RESULT:      -5.6     24.556     26.684
REMARK  Name = Gefitinib.pdbqt.pdb
REMARK  6 active torsions:
REMARK  status: ('A' for Active; 'I' for Inactive)
REMARK    1  A    between atoms: C_3  and  O_11
REMARK    2  A    between atoms: C_6  and  O_21
REMARK    3  A    between atoms: O_11  and  C_12
REMARK    4  A    between atoms: C_13  and  C_14
REMARK    5  A    between atoms: C_14  and  N_15
REMARK    6  A    between atoms: N_23  and  C_25
REMARK                            x       y       z     vdW  Elec       q    Type
REMARK                         _______ _______ _______ _____ _____    ______ ____
ROOT
ATOM      1  N   UNL     1      45.032   2.551  47.001  0.00  0.00    +0.000 NA
ATOM      2  N   UNL     1      46.998   2.567  45.655  0.00  0.00    +0.000 NA
ATOM      3  C   UNL     1      44.315  -1.436  46.057  0.00  0.00    +0.000 A 
ATOM      4  C   UNL     1      45.702   0.566  45.848  0.00  0.00    +0.000 A 
ATOM      5  C   UNL     1      45.432  -0.779  45.541  0.00  0.00    +0.000 A 
ATOM      6  C   UNL     1      43.451  -0.737  46.902  0.00  0.00    +0.000 A 
ATOM      7  C   UNL     1      44.834   1.271  46.685  0.00  0.00    +0.000 A 
ATOM      8  C   UNL     1      43.729   0.603  47.196  0.00  0.00    +0.000 A 
ATOM      9  C   UNL     1      46.805   1.273  45.352  0.00  0.00    +0.000 A 
ATOM     10  C   UNL     1      46.106   3.146  46.466  0.00  0.00    +0.000 A 
ATOM     11  N   UNL     1      47.709   0.614  44.479  0.00  0.00    +0.000 N 
ATOM     12  H   UNL     1      47.959  -0.303  44.837  0.00  0.00    +0.000 HD
ENDROOT
BRANCH  11  13
ATOM     13  C   UNL     1      48.752   1.186  43.718  0.00  0.00    +0.000 A 
ATOM     14  C   UNL     1      48.731   1.043  42.325  0.00  0.00    +0.000 A 
ATOM     15  C   UNL     1      49.679   1.677  41.526  0.00  0.00    +0.000 A 
ATOM     16 CL   UNL     1      49.621   1.438  39.826  0.00  0.00    +0.000 Cl
ATOM     17  C   UNL     1      50.647   2.486  42.110  0.00  0.00    +0.000 A 
ATOM     18  F   UNL     1      51.568   3.105  41.357  0.00  0.00    +0.000 F 
ATOM     19  C   UNL     1      50.667   2.675  43.486  0.00  0.00    +0.000 A 
ATOM     20  C   UNL     1      49.711   2.039  44.276  0.00  0.00    +0.000 A 
ENDBRANCH  11  13
BRANCH   6  21
ATOM     21  O   UNL     1      42.362  -1.422  47.387  0.00  0.00    +0.000 OA
ATOM     22  C   UNL     1      41.150  -1.178  46.730  0.00  0.00    +0.000 C 
ENDBRANCH   6  21
BRANCH   3  23
ATOM     23  O   UNL     1      44.017  -2.749  45.781  0.00  0.00    +0.000 OA
BRANCH  23  24
ATOM     24  C   UNL     1      45.062  -3.494  45.428  0.00  0.00    +0.000 C 
ATOM     25  C   UNL     1      46.256  -4.358  45.008  0.00  0.00    +0.000 C 
BRANCH  25  26
ATOM     26  C   UNL     1      47.433  -5.230  44.558  0.00  0.00    +0.000 C 
BRANCH  26  27
ATOM     27  N   UNL     1      48.560  -6.047  44.129  0.00  0.00    +0.000 N 
ATOM     28  C   UNL     1      49.445  -5.160  43.314  0.00  0.00    +0.000 C 
ATOM     29  C   UNL     1      50.860  -4.596  43.668  0.00  0.00    +0.000 C 
ATOM     30  O   UNL     1      51.686  -4.702  44.732  0.00  0.00    +0.000 OA
ATOM     31  C   UNL     1      50.887  -5.501  45.468  0.00  0.00    +0.000 C 
ATOM     32  C   UNL     1      49.482  -6.154  45.299  0.00  0.00    +0.000 C 
ENDBRANCH  26  27
ENDBRANCH  25  26
ENDBRANCH  23  24
ENDBRANCH   3  23
TORSDOF 6
ENDMDL
MODEL 9
REMARK VINA RESULT:      -5.6     29.329     30.824
REMARK  Name = Gefitinib.pdbqt.pdb
REMARK  6 active torsions:
REMARK  status: ('A' for Active; 'I' for Inactive)
REMARK    1  A    between atoms: C_3  and  O_11
REMARK    2  A    between atoms: C_6  and  O_21
REMARK    3  A    between atoms: O_11  and  C_12
REMARK    4  A    between atoms: C_13  and  C_14
REMARK    5  A    between atoms: C_14  and  N_15
REMARK    6  A    between atoms: N_23  and  C_25
REMARK                            x       y       z     vdW  Elec       q    Type
REMARK                         _______ _______ _______ _____ _____    ______ ____
ROOT
ATOM      1  N   UNL     1      38.984 -13.652   0.183  0.00  0.00    +0.000 NA
ATOM      2  N   UNL     1      37.370 -12.836  -1.369  0.00  0.00    +0.000 NA
ATOM      3  C   UNL     1      41.673 -14.433  -2.893  0.00  0.00    +0.000 A 
ATOM      4  C   UNL     1      39.497 -13.601  -2.152  0.00  0.00    +0.000 A 
ATOM      5  C   UNL     1      40.422 -13.881  -3.173  0.00  0.00    +0.000 A 
ATOM      6  C   UNL     1      42.008 -14.706  -1.567  0.00  0.00    +0.000 A 
ATOM      7  C   UNL     1      39.826 -13.884  -0.824  0.00  0.00    +0.000 A 
ATOM      8  C   UNL     1      41.076 -14.428  -0.560  0.00  0.00    +0.000 A 
ATOM      9  C   UNL     1      38.226 -13.054  -2.379  0.00  0.00    +0.000 A 
ATOM     10  C   UNL     1      37.787 -13.142  -0.135  0.00  0.00    +0.000 A 
ATOM     11  N   UNL     1      37.829 -12.768  -3.711  0.00  0.00    +0.000 N 
ATOM     12  H   UNL     1      38.563 -12.278  -4.214  0.00  0.00    +0.000 HD
ENDROOT
BRANCH  11  13
ATOM     13  C   UNL     1      36.544 -12.411  -4.175  0.00  0.00    +0.000 A 
ATOM     14  C   UNL     1      36.316 -11.093  -4.590  0.00  0.00    +0.000 A 
ATOM     15  C   UNL     1      35.097 -10.720  -5.151  0.00  0.00    +0.000 A 
ATOM     16 CL   UNL     1      34.865  -9.081  -5.611  0.00  0.00    +0.000 Cl
ATOM     17  C   UNL     1      34.099 -11.670  -5.332  0.00  0.00    +0.000 A 
ATOM     18  F   UNL     1      32.919 -11.330  -5.871  0.00  0.00    +0.000 F 
ATOM     19  C   UNL     1      34.313 -12.992  -4.964  0.00  0.00    +0.000 A 
ATOM     20  C   UNL     1      35.537 -13.355  -4.406  0.00  0.00    +0.000 A 
ENDBRANCH  11  13
BRANCH   6  21
ATOM     21  O   UNL     1      43.250 -15.250  -1.336  0.00  0.00    +0.000 OA
ATOM     22  C   UNL     1      43.294 -16.647  -1.248  0.00  0.00    +0.000 C 
ENDBRANCH   6  21
BRANCH   3  23
ATOM     23  O   UNL     1      42.604 -14.720  -3.862  0.00  0.00    +0.000 OA
BRANCH  23  24
ATOM     24  C   UNL     1      43.066 -13.660  -4.521  0.00  0.00    +0.000 C 
ATOM     25  C   UNL     1      43.582 -12.431  -5.279  0.00  0.00    +0.000 C 
BRANCH  25  26
ATOM     26  C   UNL     1      44.067 -11.187  -6.030  0.00  0.00    +0.000 C 
BRANCH  26  27
ATOM     27  N   UNL     1      44.538 -10.002  -6.734  0.00  0.00    +0.000 N 
ATOM     28  C   UNL     1      45.342  -9.213  -5.753  0.00  0.00    +0.000 C 
ATOM     29  C   UNL     1      46.887  -8.977  -5.716  0.00  0.00    +0.000 C 
ATOM     30  O   UNL     1      47.927  -9.374  -6.483  0.00  0.00    +0.000 OA
ATOM     31  C   UNL     1      47.202 -10.086  -7.368  0.00  0.00    +0.000 C 
ATOM     32  C   UNL     1      45.696 -10.434  -7.572  0.00  0.00    +0.000 C 
ENDBRANCH  26  27
ENDBRANCH  25  26
ENDBRANCH  23  24
ENDBRANCH   3  23
TORSDOF 6
ENDMDL
