MODEL 1
REMARK VINA RESULT:      -7.9      0.000      0.000
REMARK  Name = Genistein.pdbqt.pdb
REMARK  4 active torsions:
REMARK  status: ('A' for Active; 'I' for Inactive)
REMARK    1  A    between atoms: C_4  and  C_12
REMARK    2  A    between atoms: C_7  and  O_20
REMARK    3  A    between atoms: C_11  and  O_22
REMARK    4  A    between atoms: C_17  and  O_18
REMARK                            x       y       z     vdW  Elec       q    Type
REMARK                         _______ _______ _______ _____ _____    ______ ____
ROOT
ATOM      1  O   UNL     1      35.070   1.037  13.645  0.00  0.00    +0.000 OA
ATOM      2  O   UNL     1      38.211  -1.501  14.739  0.00  0.00    +0.000 OA
ATOM      3  C   UNL     1      35.959  -0.805  15.051  0.00  0.00    +0.000 A 
ATOM      4  C   UNL     1      37.452   0.298  13.317  0.00  0.00    +0.000 A 
ATOM      5  C   UNL     1      34.917   0.080  14.646  0.00  0.00    +0.000 A 
ATOM      6  C   UNL     1      37.316  -0.740  14.391  0.00  0.00    +0.000 A 
ATOM      7  C   UNL     1      35.711  -1.734  16.066  0.00  0.00    +0.000 A 
ATOM      8  C   UNL     1      36.316   0.911  13.220  0.00  0.00    +0.000 A 
ATOM      9  C   UNL     1      33.666   0.021  15.256  0.00  0.00    +0.000 A 
ATOM     10  C   UNL     1      34.456  -1.787  16.672  0.00  0.00    +0.000 A 
ATOM     11  C   UNL     1      33.450  -0.914  16.263  0.00  0.00    +0.000 A 
ENDROOT
BRANCH   4  12
ATOM     12  C   UNL     1      38.643   0.581  12.518  0.00  0.00    +0.000 A 
ATOM     13  C   UNL     1      39.129  -0.347  11.593  0.00  0.00    +0.000 A 
ATOM     14  C   UNL     1      39.324   1.795  12.662  0.00  0.00    +0.000 A 
ATOM     15  C   UNL     1      40.264  -0.078  10.831  0.00  0.00    +0.000 A 
ATOM     16  C   UNL     1      40.461   2.077  11.906  0.00  0.00    +0.000 A 
ATOM     17  C   UNL     1      40.921   1.136  10.995  0.00  0.00    +0.000 A 
BRANCH  17  18
ATOM     18  O   UNL     1      42.035   1.430  10.263  0.00  0.00    +0.000 OA
ATOM     19  H   UNL     1      42.811   1.358  10.847  0.00  0.00    +0.000 HD
ENDBRANCH  17  18
ENDBRANCH   4  12
BRANCH   7  20
ATOM     20  O   UNL     1      36.648  -2.622  16.520  0.00  0.00    +0.000 OA
ATOM     21  H   UNL     1      36.231  -3.203  17.197  0.00  0.00    +0.000 HD
ENDBRANCH   7  20
BRANCH  11  22
ATOM     22  O   UNL     1      32.218  -0.958  16.848  0.00  0.00    +0.000 OA
ATOM     23  H   UNL     1      31.843  -0.059  16.834  0.00  0.00    +0.000 HD
ENDBRANCH  11  22
TORSDOF 4
ENDMDL
MODEL 2
REMARK VINA RESULT:      -7.7      2.077      2.279
REMARK  Name = Genistein.pdbqt.pdb
REMARK  4 active torsions:
REMARK  status: ('A' for Active; 'I' for Inactive)
REMARK    1  A    between atoms: C_4  and  C_12
REMARK    2  A    between atoms: C_7  and  O_20
REMARK    3  A    between atoms: C_11  and  O_22
REMARK    4  A    between atoms: C_17  and  O_18
REMARK                            x       y       z     vdW  Elec       q    Type
REMARK                         _______ _______ _______ _____ _____    ______ ____
ROOT
ATOM      1  O   UNL     1      34.221   2.224  13.933  0.00  0.00    +0.000 OA
ATOM      2  O   UNL     1      37.956   0.338  13.900  0.00  0.00    +0.000 OA
ATOM      3  C   UNL     1      35.694   0.353  14.634  0.00  0.00    +0.000 A 
ATOM      4  C   UNL     1      36.614   2.204  13.157  0.00  0.00    +0.000 A 
ATOM      5  C   UNL     1      34.439   1.030  14.618  0.00  0.00    +0.000 A 
ATOM      6  C   UNL     1      36.877   0.920  13.885  0.00  0.00    +0.000 A 
ATOM      7  C   UNL     1      35.817  -0.841  15.350  0.00  0.00    +0.000 A 
ATOM      8  C   UNL     1      35.376   2.524  13.364  0.00  0.00    +0.000 A 
ATOM      9  C   UNL     1      33.349   0.508  15.309  0.00  0.00    +0.000 A 
ATOM     10  C   UNL     1      34.721  -1.358  16.039  0.00  0.00    +0.000 A 
ATOM     11  C   UNL     1      33.503  -0.683  16.012  0.00  0.00    +0.000 A 
ENDROOT
BRANCH   4  12
ATOM     12  C   UNL     1      37.569   2.970  12.359  0.00  0.00    +0.000 A 
ATOM     13  C   UNL     1      37.742   2.712  10.996  0.00  0.00    +0.000 A 
ATOM     14  C   UNL     1      38.333   3.986  12.945  0.00  0.00    +0.000 A 
ATOM     15  C   UNL     1      38.651   3.442  10.234  0.00  0.00    +0.000 A 
ATOM     16  C   UNL     1      39.247   4.725  12.194  0.00  0.00    +0.000 A 
ATOM     17  C   UNL     1      39.397   4.445  10.842  0.00  0.00    +0.000 A 
BRANCH  17  18
ATOM     18  O   UNL     1      40.296   5.179  10.124  0.00  0.00    +0.000 OA
ATOM     19  H   UNL     1      40.075   6.121  10.231  0.00  0.00    +0.000 HD
ENDBRANCH  17  18
ENDBRANCH   4  12
BRANCH   7  20
ATOM     20  O   UNL     1      36.980  -1.559  15.422  0.00  0.00    +0.000 OA
ATOM     21  H   UNL     1      37.204  -1.889  14.522  0.00  0.00    +0.000 HD
ENDBRANCH   7  20
BRANCH  11  22
ATOM     22  O   UNL     1      32.422  -1.180  16.682  0.00  0.00    +0.000 OA
ATOM     23  H   UNL     1      31.638  -0.667  16.417  0.00  0.00    +0.000 HD
ENDBRANCH  11  22
TORSDOF 4
ENDMDL
MODEL 3
REMARK VINA RESULT:      -7.2      1.716      7.250
REMARK  Name = Genistein.pdbqt.pdb
REMARK  4 active torsions:
REMARK  status: ('A' for Active; 'I' for Inactive)
REMARK    1  A    between atoms: C_4  and  C_12
REMARK    2  A    between atoms: C_7  and  O_20
REMARK    3  A    between atoms: C_11  and  O_22
REMARK    4  A    between atoms: C_17  and  O_18
REMARK                            x       y       z     vdW  Elec       q    Type
REMARK                         _______ _______ _______ _____ _____    ______ ____
ROOT
ATOM      1  O   UNL     1      38.959  -0.352  12.497  0.00  0.00    +0.000 OA
ATOM      2  O   UNL     1      35.890   2.487  12.330  0.00  0.00    +0.000 OA
ATOM      3  C   UNL     1      38.019   1.749  11.568  0.00  0.00    +0.000 A 
ATOM      4  C   UNL     1      36.708   0.432  13.301  0.00  0.00    +0.000 A 
ATOM      5  C   UNL     1      39.040   0.757  11.658  0.00  0.00    +0.000 A 
ATOM      6  C   UNL     1      36.767   1.635  12.407  0.00  0.00    +0.000 A 
ATOM      7  C   UNL     1      38.188   2.828  10.695  0.00  0.00    +0.000 A 
ATOM      8  C   UNL     1      37.800  -0.242  13.122  0.00  0.00    +0.000 A 
ATOM      9  C   UNL     1      40.193   0.863  10.885  0.00  0.00    +0.000 A 
ATOM     10  C   UNL     1      39.345   2.927   9.925  0.00  0.00    +0.000 A 
ATOM     11  C   UNL     1      40.332   1.948  10.025  0.00  0.00    +0.000 A 
ENDROOT
BRANCH   4  12
ATOM     12  C   UNL     1      35.626   0.072  14.214  0.00  0.00    +0.000 A 
ATOM     13  C   UNL     1      35.841  -0.809  15.278  0.00  0.00    +0.000 A 
ATOM     14  C   UNL     1      34.343   0.606  14.043  0.00  0.00    +0.000 A 
ATOM     15  C   UNL     1      34.810  -1.152  16.149  0.00  0.00    +0.000 A 
ATOM     16  C   UNL     1      33.302   0.270  14.908  0.00  0.00    +0.000 A 
ATOM     17  C   UNL     1      33.546  -0.608  15.956  0.00  0.00    +0.000 A 
BRANCH  17  18
ATOM     18  O   UNL     1      32.514  -0.923  16.791  0.00  0.00    +0.000 OA
ATOM     19  H   UNL     1      31.695  -0.556  16.416  0.00  0.00    +0.000 HD
ENDBRANCH  17  18
ENDBRANCH   4  12
BRANCH   7  20
ATOM     20  O   UNL     1      37.263   3.825  10.543  0.00  0.00    +0.000 OA
ATOM     21  H   UNL     1      36.365   3.445  10.673  0.00  0.00    +0.000 HD
ENDBRANCH   7  20
BRANCH  11  22
ATOM     22  O   UNL     1      41.469   2.035   9.275  0.00  0.00    +0.000 OA
ATOM     23  H   UNL     1      41.954   2.833   9.550  0.00  0.00    +0.000 HD
ENDBRANCH  11  22
TORSDOF 4
ENDMDL
MODEL 4
REMARK VINA RESULT:      -7.0      2.009      3.154
REMARK  Name = Genistein.pdbqt.pdb
REMARK  4 active torsions:
REMARK  status: ('A' for Active; 'I' for Inactive)
REMARK    1  A    between atoms: C_4  and  C_12
REMARK    2  A    between atoms: C_7  and  O_20
REMARK    3  A    between atoms: C_11  and  O_22
REMARK    4  A    between atoms: C_17  and  O_18
REMARK                            x       y       z     vdW  Elec       q    Type
REMARK                         _______ _______ _______ _____ _____    ______ ____
ROOT
ATOM      1  O   UNL     1      37.268  -0.850  14.229  0.00  0.00    +0.000 OA
ATOM      2  O   UNL     1      35.269   2.531  12.788  0.00  0.00    +0.000 OA
ATOM      3  C   UNL     1      35.459   0.836  14.445  0.00  0.00    +0.000 A 
ATOM      4  C   UNL     1      37.064   0.945  12.479  0.00  0.00    +0.000 A 
ATOM      5  C   UNL     1      36.169  -0.314  14.899  0.00  0.00    +0.000 A 
ATOM      6  C   UNL     1      35.880   1.543  13.178  0.00  0.00    +0.000 A 
ATOM      7  C   UNL     1      34.368   1.301  15.184  0.00  0.00    +0.000 A 
ATOM      8  C   UNL     1      37.449  -0.081  13.170  0.00  0.00    +0.000 A 
ATOM      9  C   UNL     1      35.780  -0.966  16.066  0.00  0.00    +0.000 A 
ATOM     10  C   UNL     1      33.984   0.643  16.351  0.00  0.00    +0.000 A 
ATOM     11  C   UNL     1      34.691  -0.479  16.780  0.00  0.00    +0.000 A 
ENDROOT
BRANCH   4  12
ATOM     12  C   UNL     1      37.683   1.418  11.242  0.00  0.00    +0.000 A 
ATOM     13  C   UNL     1      38.697   2.380  11.264  0.00  0.00    +0.000 A 
ATOM     14  C   UNL     1      37.272   0.914  10.003  0.00  0.00    +0.000 A 
ATOM     15  C   UNL     1      39.288   2.831  10.086  0.00  0.00    +0.000 A 
ATOM     16  C   UNL     1      37.855   1.357   8.816  0.00  0.00    +0.000 A 
ATOM     17  C   UNL     1      38.860   2.314   8.869  0.00  0.00    +0.000 A 
BRANCH  17  18
ATOM     18  O   UNL     1      39.418   2.735   7.697  0.00  0.00    +0.000 OA
ATOM     19  H   UNL     1      39.449   1.977   7.085  0.00  0.00    +0.000 HD
ENDBRANCH  17  18
ENDBRANCH   4  12
BRANCH   7  20
ATOM     20  O   UNL     1      33.627   2.396  14.826  0.00  0.00    +0.000 OA
ATOM     21  H   UNL     1      33.578   2.435  13.844  0.00  0.00    +0.000 HD
ENDBRANCH   7  20
BRANCH  11  22
ATOM     22  O   UNL     1      34.325  -1.131  17.922  0.00  0.00    +0.000 OA
ATOM     23  H   UNL     1      34.268  -2.082  17.723  0.00  0.00    +0.000 HD
ENDBRANCH  11  22
TORSDOF 4
ENDMDL
MODEL 5
REMARK VINA RESULT:      -6.8     19.445     21.100
REMARK  Name = Genistein.pdbqt.pdb
REMARK  4 active torsions:
REMARK  status: ('A' for Active; 'I' for Inactive)
REMARK    1  A    between atoms: C_4  and  C_12
REMARK    2  A    between atoms: C_7  and  O_20
REMARK    3  A    between atoms: C_11  and  O_22
REMARK    4  A    between atoms: C_17  and  O_18
REMARK                            x       y       z     vdW  Elec       q    Type
REMARK                         _______ _______ _______ _____ _____    ______ ____
ROOT
ATOM      1  O   UNL     1      20.160   6.903  18.579  0.00  0.00    +0.000 OA
ATOM      2  O   UNL     1      18.208   8.449  21.942  0.00  0.00    +0.000 OA
ATOM      3  C   UNL     1      18.712   6.574  20.568  0.00  0.00    +0.000 A 
ATOM      4  C   UNL     1      19.626   8.884  20.035  0.00  0.00    +0.000 A 
ATOM      5  C   UNL     1      19.394   6.091  19.413  0.00  0.00    +0.000 A 
ATOM      6  C   UNL     1      18.795   8.034  20.949  0.00  0.00    +0.000 A 
ATOM      7  C   UNL     1      17.966   5.683  21.345  0.00  0.00    +0.000 A 
ATOM      8  C   UNL     1      20.088   8.116  19.099  0.00  0.00    +0.000 A 
ATOM      9  C   UNL     1      19.316   4.745  19.062  0.00  0.00    +0.000 A 
ATOM     10  C   UNL     1      17.893   4.338  20.987  0.00  0.00    +0.000 A 
ATOM     11  C   UNL     1      18.567   3.883  19.855  0.00  0.00    +0.000 A 
ENDROOT
BRANCH   4  12
ATOM     12  C   UNL     1      19.878  10.318  20.159  0.00  0.00    +0.000 A 
ATOM     13  C   UNL     1      20.036  10.917  21.412  0.00  0.00    +0.000 A 
ATOM     14  C   UNL     1      19.968  11.126  19.020  0.00  0.00    +0.000 A 
ATOM     15  C   UNL     1      20.277  12.284  21.532  0.00  0.00    +0.000 A 
ATOM     16  C   UNL     1      20.208  12.496  19.126  0.00  0.00    +0.000 A 
ATOM     17  C   UNL     1      20.361  13.063  20.384  0.00  0.00    +0.000 A 
BRANCH  17  18
ATOM     18  O   UNL     1      20.596  14.405  20.467  0.00  0.00    +0.000 OA
ATOM     19  H   UNL     1      20.238  14.827  19.665  0.00  0.00    +0.000 HD
ENDBRANCH  17  18
ENDBRANCH   4  12
BRANCH   7  20
ATOM     20  O   UNL     1      17.280   6.056  22.469  0.00  0.00    +0.000 OA
ATOM     21  H   UNL     1      17.164   5.266  23.045  0.00  0.00    +0.000 HD
ENDBRANCH   7  20
BRANCH  11  22
ATOM     22  O   UNL     1      18.503   2.568  19.496  0.00  0.00    +0.000 OA
ATOM     23  H   UNL     1      19.060   2.441  18.707  0.00  0.00    +0.000 HD
ENDBRANCH  11  22
TORSDOF 4
ENDMDL
MODEL 6
REMARK VINA RESULT:      -6.8      2.018      7.107
REMARK  Name = Genistein.pdbqt.pdb
REMARK  4 active torsions:
REMARK  status: ('A' for Active; 'I' for Inactive)
REMARK    1  A    between atoms: C_4  and  C_12
REMARK    2  A    between atoms: C_7  and  O_20
REMARK    3  A    between atoms: C_11  and  O_22
REMARK    4  A    between atoms: C_17  and  O_18
REMARK                            x       y       z     vdW  Elec       q    Type
REMARK                         _______ _______ _______ _____ _____    ______ ____
ROOT
ATOM      1  O   UNL     1      37.681   3.707  13.696  0.00  0.00    +0.000 OA
ATOM      2  O   UNL     1      36.955  -0.026  11.953  0.00  0.00    +0.000 OA
ATOM      3  C   UNL     1      38.147   2.031  11.926  0.00  0.00    +0.000 A 
ATOM      4  C   UNL     1      36.421   1.530  13.722  0.00  0.00    +0.000 A 
ATOM      5  C   UNL     1      38.362   3.293  12.553  0.00  0.00    +0.000 A 
ATOM      6  C   UNL     1      37.139   1.059  12.492  0.00  0.00    +0.000 A 
ATOM      7  C   UNL     1      38.880   1.703  10.781  0.00  0.00    +0.000 A 
ATOM      8  C   UNL     1      36.866   2.713  14.005  0.00  0.00    +0.000 A 
ATOM      9  C   UNL     1      39.291   4.190  12.030  0.00  0.00    +0.000 A 
ATOM     10  C   UNL     1      39.807   2.605  10.264  0.00  0.00    +0.000 A 
ATOM     11  C   UNL     1      40.005   3.834  10.890  0.00  0.00    +0.000 A 
ENDROOT
BRANCH   4  12
ATOM     12  C   UNL     1      35.402   0.802  14.474  0.00  0.00    +0.000 A 
ATOM     13  C   UNL     1      34.057   1.179  14.420  0.00  0.00    +0.000 A 
ATOM     14  C   UNL     1      35.752  -0.296  15.268  0.00  0.00    +0.000 A 
ATOM     15  C   UNL     1      33.085   0.486  15.137  0.00  0.00    +0.000 A 
ATOM     16  C   UNL     1      34.789  -0.999  15.991  0.00  0.00    +0.000 A 
ATOM     17  C   UNL     1      33.461  -0.601  15.918  0.00  0.00    +0.000 A 
BRANCH  17  18
ATOM     18  O   UNL     1      32.533  -1.301  16.632  0.00  0.00    +0.000 OA
ATOM     19  H   UNL     1      31.856  -0.677  16.947  0.00  0.00    +0.000 HD
ENDBRANCH  17  18
ENDBRANCH   4  12
BRANCH   7  20
ATOM     20  O   UNL     1      38.741   0.516  10.113  0.00  0.00    +0.000 OA
ATOM     21  H   UNL     1      38.746  -0.218  10.769  0.00  0.00    +0.000 HD
ENDBRANCH   7  20
BRANCH  11  22
ATOM     22  O   UNL     1      40.911   4.725  10.393  0.00  0.00    +0.000 OA
ATOM     23  H   UNL     1      41.586   4.228   9.898  0.00  0.00    +0.000 HD
ENDBRANCH  11  22
TORSDOF 4
ENDMDL
MODEL 7
REMARK VINA RESULT:      -6.8     11.842     14.011
REMARK  Name = Genistein.pdbqt.pdb
REMARK  4 active torsions:
REMARK  status: ('A' for Active; 'I' for Inactive)
REMARK    1  A    between atoms: C_4  and  C_12
REMARK    2  A    between atoms: C_7  and  O_20
REMARK    3  A    between atoms: C_11  and  O_22
REMARK    4  A    between atoms: C_17  and  O_18
REMARK                            x       y       z     vdW  Elec       q    Type
REMARK                         _______ _______ _______ _____ _____    ______ ____
ROOT
ATOM      1  O   UNL     1      45.097  10.206  20.305  0.00  0.00    +0.000 OA
ATOM      2  O   UNL     1      44.037   6.270  21.249  0.00  0.00    +0.000 OA
ATOM      3  C   UNL     1      45.650   8.016  21.333  0.00  0.00    +0.000 A 
ATOM      4  C   UNL     1      43.393   8.358  20.217  0.00  0.00    +0.000 A 
ATOM      5  C   UNL     1      45.969   9.363  20.991  0.00  0.00    +0.000 A 
ATOM      6  C   UNL     1      44.310   7.428  20.954  0.00  0.00    +0.000 A 
ATOM      7  C   UNL     1      46.589   7.245  22.024  0.00  0.00    +0.000 A 
ATOM      8  C   UNL     1      44.009   9.489  20.082  0.00  0.00    +0.000 A 
ATOM      9  C   UNL     1      47.203   9.904  21.340  0.00  0.00    +0.000 A 
ATOM     10  C   UNL     1      47.823   7.794  22.370  0.00  0.00    +0.000 A 
ATOM     11  C   UNL     1      48.117   9.112  22.027  0.00  0.00    +0.000 A 
ENDROOT
BRANCH   4  12
ATOM     12  C   UNL     1      42.048   8.058  19.731  0.00  0.00    +0.000 A 
ATOM     13  C   UNL     1      41.770   8.002  18.363  0.00  0.00    +0.000 A 
ATOM     14  C   UNL     1      41.003   7.818  20.631  0.00  0.00    +0.000 A 
ATOM     15  C   UNL     1      40.488   7.715  17.899  0.00  0.00    +0.000 A 
ATOM     16  C   UNL     1      39.715   7.531  20.181  0.00  0.00    +0.000 A 
ATOM     17  C   UNL     1      39.469   7.482  18.815  0.00  0.00    +0.000 A 
BRANCH  17  18
ATOM     18  O   UNL     1      38.203   7.199  18.393  0.00  0.00    +0.000 OA
ATOM     19  H   UNL     1      37.604   7.877  18.752  0.00  0.00    +0.000 HD
ENDBRANCH  17  18
ENDBRANCH   4  12
BRANCH   7  20
ATOM     20  O   UNL     1      46.372   5.946  22.395  0.00  0.00    +0.000 OA
ATOM     21  H   UNL     1      47.193   5.429  22.229  0.00  0.00    +0.000 HD
ENDBRANCH   7  20
BRANCH  11  22
ATOM     22  O   UNL     1      49.322   9.661  22.361  0.00  0.00    +0.000 OA
ATOM     23  H   UNL     1      49.344  10.574  22.025  0.00  0.00    +0.000 HD
ENDBRANCH  11  22
TORSDOF 4
ENDMDL
MODEL 8
REMARK VINA RESULT:      -6.4      2.691      7.521
REMARK  Name = Genistein.pdbqt.pdb
REMARK  4 active torsions:
REMARK  status: ('A' for Active; 'I' for Inactive)
REMARK    1  A    between atoms: C_4  and  C_12
REMARK    2  A    between atoms: C_7  and  O_20
REMARK    3  A    between atoms: C_11  and  O_22
REMARK    4  A    between atoms: C_17  and  O_18
REMARK                            x       y       z     vdW  Elec       q    Type
REMARK                         _______ _______ _______ _____ _____    ______ ____
ROOT
ATOM      1  O   UNL     1      40.084  -0.735  11.021  0.00  0.00    +0.000 OA
ATOM      2  O   UNL     1      36.457   1.108  10.047  0.00  0.00    +0.000 OA
ATOM      3  C   UNL     1      38.547   0.231   9.328  0.00  0.00    +0.000 A 
ATOM      4  C   UNL     1      37.872   0.193  11.777  0.00  0.00    +0.000 A 
ATOM      5  C   UNL     1      39.770  -0.398   9.706  0.00  0.00    +0.000 A 
ATOM      6  C   UNL     1      37.508   0.567  10.372  0.00  0.00    +0.000 A 
ATOM      7  C   UNL     1      38.320   0.532   7.982  0.00  0.00    +0.000 A 
ATOM      8  C   UNL     1      39.047  -0.353  11.744  0.00  0.00    +0.000 A 
ATOM      9  C   UNL     1      40.728  -0.707   8.744  0.00  0.00    +0.000 A 
ATOM     10  C   UNL     1      39.284   0.219   7.025  0.00  0.00    +0.000 A 
ATOM     11  C   UNL     1      40.473  -0.396   7.413  0.00  0.00    +0.000 A 
ENDROOT
BRANCH   4  12
ATOM     12  C   UNL     1      37.064   0.399  12.977  0.00  0.00    +0.000 A 
ATOM     13  C   UNL     1      36.144   1.449  13.056  0.00  0.00    +0.000 A 
ATOM     14  C   UNL     1      37.193  -0.455  14.078  0.00  0.00    +0.000 A 
ATOM     15  C   UNL     1      35.372   1.646  14.199  0.00  0.00    +0.000 A 
ATOM     16  C   UNL     1      36.427  -0.269  15.229  0.00  0.00    +0.000 A 
ATOM     17  C   UNL     1      35.521   0.782  15.278  0.00  0.00    +0.000 A 
BRANCH  17  18
ATOM     18  O   UNL     1      34.781   0.948  16.412  0.00  0.00    +0.000 OA
ATOM     19  H   UNL     1      35.195   0.429  17.125  0.00  0.00    +0.000 HD
ENDBRANCH  17  18
ENDBRANCH   4  12
BRANCH   7  20
ATOM     20  O   UNL     1      37.178   1.133   7.527  0.00  0.00    +0.000 OA
ATOM     21  H   UNL     1      36.415   0.536   7.703  0.00  0.00    +0.000 HD
ENDBRANCH   7  20
BRANCH  11  22
ATOM     22  O   UNL     1      41.424  -0.707   6.484  0.00  0.00    +0.000 OA
ATOM     23  H   UNL     1      41.030  -0.605   5.599  0.00  0.00    +0.000 HD
ENDBRANCH  11  22
TORSDOF 4
ENDMDL
MODEL 9
REMARK VINA RESULT:      -6.4     18.850     20.706
REMARK  Name = Genistein.pdbqt.pdb
REMARK  4 active torsions:
REMARK  status: ('A' for Active; 'I' for Inactive)
REMARK    1  A    between atoms: C_4  and  C_12
REMARK    2  A    between atoms: C_7  and  O_20
REMARK    3  A    between atoms: C_11  and  O_22
REMARK    4  A    between atoms: C_17  and  O_18
REMARK                            x       y       z     vdW  Elec       q    Type
REMARK                         _______ _______ _______ _____ _____    ______ ____
ROOT
ATOM      1  O   UNL     1      21.306   9.117  16.948  0.00  0.00    +0.000 OA
ATOM      2  O   UNL     1      19.499  11.341  19.997  0.00  0.00    +0.000 OA
ATOM      3  C   UNL     1      19.954   9.217  19.027  0.00  0.00    +0.000 A 
ATOM      4  C   UNL     1      20.823  11.362  17.976  0.00  0.00    +0.000 A 
ATOM      5  C   UNL     1      20.586   8.500  17.969  0.00  0.00    +0.000 A 
ATOM      6  C   UNL     1      20.042  10.725  19.087  0.00  0.00    +0.000 A 
ATOM      7  C   UNL     1      19.254   8.511  20.009  0.00  0.00    +0.000 A 
ATOM      8  C   UNL     1      21.248  10.413  17.203  0.00  0.00    +0.000 A 
ATOM      9  C   UNL     1      20.505   7.111  17.914  0.00  0.00    +0.000 A 
ATOM     10  C   UNL     1      19.176   7.121  19.947  0.00  0.00    +0.000 A 
ATOM     11  C   UNL     1      19.800   6.437  18.905  0.00  0.00    +0.000 A 
ENDROOT
BRANCH   4  12
ATOM     12  C   UNL     1      21.067  12.789  17.784  0.00  0.00    +0.000 A 
ATOM     13  C   UNL     1      20.628  13.449  16.633  0.00  0.00    +0.000 A 
ATOM     14  C   UNL     1      21.750  13.531  18.755  0.00  0.00    +0.000 A 
ATOM     15  C   UNL     1      20.860  14.811  16.450  0.00  0.00    +0.000 A 
ATOM     16  C   UNL     1      21.990  14.894  18.584  0.00  0.00    +0.000 A 
ATOM     17  C   UNL     1      21.541  15.523  17.430  0.00  0.00    +0.000 A 
BRANCH  17  18
ATOM     18  O   UNL     1      21.785  16.857  17.281  0.00  0.00    +0.000 OA
ATOM     19  H   UNL     1      20.937  17.304  17.111  0.00  0.00    +0.000 HD
ENDBRANCH  17  18
ENDBRANCH   4  12
BRANCH   7  20
ATOM     20  O   UNL     1      18.617   9.113  21.060  0.00  0.00    +0.000 OA
ATOM     21  H   UNL     1      17.849   9.623  20.714  0.00  0.00    +0.000 HD
ENDBRANCH   7  20
BRANCH  11  22
ATOM     22  O   UNL     1      19.732   5.075  18.834  0.00  0.00    +0.000 OA
ATOM     23  H   UNL     1      19.703   4.725  19.742  0.00  0.00    +0.000 HD
ENDBRANCH  11  22
TORSDOF 4
ENDMDL
