MODEL 1
REMARK VINA RESULT:      -6.1      0.000      0.000
REMARK  Name = Hyoscyamine.pdbqt.pdb
REMARK  6 active torsions:
REMARK  status: ('A' for Active; 'I' for Inactive)
REMARK    1  A    between atoms: C_2  and  O_3
REMARK    2  A    between atoms: C_2  and  C_13
REMARK    3  A    between atoms: O_3  and  C_4
REMARK    4  A    between atoms: C_13  and  C_14
REMARK    5  A    between atoms: C_13  and  C_20
REMARK    6  A    between atoms: C_20  and  O_21
REMARK                            x       y       z     vdW  Elec       q    Type
REMARK                         _______ _______ _______ _____ _____    ______ ____
ROOT
ATOM      1  O   UNL     1      19.221  11.930  17.717  0.00  0.00    +0.000 OA
ATOM      2  C   UNL     1      20.432  11.927  17.532  0.00  0.00    +0.000 C 
ENDROOT
BRANCH   2   3
ATOM      3  O   UNL     1      21.220  13.006  17.255  0.00  0.00    +0.000 OA
BRANCH   3   4
ATOM      4  C   UNL     1      20.930  14.112  18.054  0.00  0.00    +0.000 C 
ATOM      5  C   UNL     1      20.333  15.307  17.485  0.00  0.00    +0.000 C 
ATOM      6  C   UNL     1      20.672  16.699  17.806  0.00  0.00    +0.000 C 
ATOM      7  N   UNL     1      22.202  16.694  17.924  0.00  0.00    +0.000 NA
ATOM      8  C   UNL     1      20.216  17.107  19.124  0.00  0.00    +0.000 C 
ATOM      9  C   UNL     1      22.283  15.979  19.282  0.00  0.00    +0.000 C 
ATOM     10  C   UNL     1      22.740  18.061  18.003  0.00  0.00    +0.000 C 
ATOM     11  C   UNL     1      21.284  16.636  20.113  0.00  0.00    +0.000 C 
ATOM     12  C   UNL     1      21.949  14.580  18.972  0.00  0.00    +0.000 C 
ENDBRANCH   3   4
ENDBRANCH   2   3
BRANCH   2  13
ATOM     13  C   UNL     1      21.249  10.678  17.547  0.00  0.00    +0.000 C 
BRANCH  13  14
ATOM     14  C   UNL     1      20.801   9.412  18.157  0.00  0.00    +0.000 A 
ATOM     15  C   UNL     1      21.048   8.193  17.515  0.00  0.00    +0.000 A 
ATOM     16  C   UNL     1      20.599   6.992  18.062  0.00  0.00    +0.000 A 
ATOM     17  C   UNL     1      19.886   6.996  19.257  0.00  0.00    +0.000 A 
ATOM     18  C   UNL     1      19.623   8.200  19.902  0.00  0.00    +0.000 A 
ATOM     19  C   UNL     1      20.075   9.398  19.350  0.00  0.00    +0.000 A 
ENDBRANCH  13  14
BRANCH  13  20
ATOM     20  C   UNL     1      22.507  10.721  16.866  0.00  0.00    +0.000 C 
BRANCH  20  21
ATOM     21  O   UNL     1      23.675  10.761  16.235  0.00  0.00    +0.000 OA
ATOM     22  H   UNL     1      23.851   9.913  15.789  0.00  0.00    +0.000 HD
ENDBRANCH  20  21
ENDBRANCH  13  20
ENDBRANCH   2  13
TORSDOF 6
ENDMDL
MODEL 2
REMARK VINA RESULT:      -5.6     16.041     18.672
REMARK  Name = Hyoscyamine.pdbqt.pdb
REMARK  6 active torsions:
REMARK  status: ('A' for Active; 'I' for Inactive)
REMARK    1  A    between atoms: C_2  and  O_3
REMARK    2  A    between atoms: C_2  and  C_13
REMARK    3  A    between atoms: O_3  and  C_4
REMARK    4  A    between atoms: C_13  and  C_14
REMARK    5  A    between atoms: C_13  and  C_20
REMARK    6  A    between atoms: C_20  and  O_21
REMARK                            x       y       z     vdW  Elec       q    Type
REMARK                         _______ _______ _______ _____ _____    ______ ____
ROOT
ATOM      1  O   UNL     1      23.222  -3.484   5.323  0.00  0.00    +0.000 OA
ATOM      2  C   UNL     1      22.701  -2.377   5.393  0.00  0.00    +0.000 C 
ENDROOT
BRANCH   2   3
ATOM      3  O   UNL     1      21.547  -2.055   6.045  0.00  0.00    +0.000 OA
BRANCH   3   4
ATOM      4  C   UNL     1      21.672  -2.111   7.433  0.00  0.00    +0.000 C 
ATOM      5  C   UNL     1      20.650  -2.742   8.249  0.00  0.00    +0.000 C 
ATOM      6  C   UNL     1      20.135  -2.264   9.539  0.00  0.00    +0.000 C 
ATOM      7  N   UNL     1      20.017  -0.745   9.355  0.00  0.00    +0.000 NA
ATOM      8  C   UNL     1      21.087  -2.418  10.625  0.00  0.00    +0.000 C 
ATOM      9  C   UNL     1      21.520  -0.431   9.428  0.00  0.00    +0.000 C 
ATOM     10  C   UNL     1      19.284  -0.124  10.469  0.00  0.00    +0.000 C 
ATOM     11  C   UNL     1      22.011  -1.201  10.562  0.00  0.00    +0.000 C 
ATOM     12  C   UNL     1      22.048  -0.902   8.138  0.00  0.00    +0.000 C 
ENDBRANCH   3   4
ENDBRANCH   2   3
BRANCH   2  13
ATOM     13  C   UNL     1      23.262  -1.174   4.709  0.00  0.00    +0.000 C 
BRANCH  13  14
ATOM     14  C   UNL     1      24.608  -0.633   4.975  0.00  0.00    +0.000 A 
ATOM     15  C   UNL     1      25.747  -1.354   4.600  0.00  0.00    +0.000 A 
ATOM     16  C   UNL     1      27.025  -0.872   4.878  0.00  0.00    +0.000 A 
ATOM     17  C   UNL     1      27.180   0.338   5.546  0.00  0.00    +0.000 A 
ATOM     18  C   UNL     1      26.059   1.063   5.936  0.00  0.00    +0.000 A 
ATOM     19  C   UNL     1      24.783   0.575   5.655  0.00  0.00    +0.000 A 
ENDBRANCH  13  14
BRANCH  13  20
ATOM     20  C   UNL     1      22.453  -0.570   3.695  0.00  0.00    +0.000 C 
BRANCH  20  21
ATOM     21  O   UNL     1      21.702  -0.009   2.753  0.00  0.00    +0.000 OA
ATOM     22  H   UNL     1      20.937  -0.575   2.545  0.00  0.00    +0.000 HD
ENDBRANCH  20  21
ENDBRANCH  13  20
ENDBRANCH   2  13
TORSDOF 6
ENDMDL
MODEL 3
REMARK VINA RESULT:      -5.5     17.399     19.494
REMARK  Name = Hyoscyamine.pdbqt.pdb
REMARK  6 active torsions:
REMARK  status: ('A' for Active; 'I' for Inactive)
REMARK    1  A    between atoms: C_2  and  O_3
REMARK    2  A    between atoms: C_2  and  C_13
REMARK    3  A    between atoms: O_3  and  C_4
REMARK    4  A    between atoms: C_13  and  C_14
REMARK    5  A    between atoms: C_13  and  C_20
REMARK    6  A    between atoms: C_20  and  O_21
REMARK                            x       y       z     vdW  Elec       q    Type
REMARK                         _______ _______ _______ _____ _____    ______ ____
ROOT
ATOM      1  O   UNL     1      23.981  -3.252   6.038  0.00  0.00    +0.000 OA
ATOM      2  C   UNL     1      23.473  -2.684   5.079  0.00  0.00    +0.000 C 
ENDROOT
BRANCH   2   3
ATOM      3  O   UNL     1      22.213  -2.871   4.590  0.00  0.00    +0.000 OA
BRANCH   3   4
ATOM      4  C   UNL     1      21.238  -2.195   5.325  0.00  0.00    +0.000 C 
ATOM      5  C   UNL     1      21.536  -0.929   5.970  0.00  0.00    +0.000 C 
ATOM      6  C   UNL     1      21.098  -0.496   7.304  0.00  0.00    +0.000 C 
ATOM      7  N   UNL     1      21.246  -1.753   8.172  0.00  0.00    +0.000 NA
ATOM      8  C   UNL     1      19.680  -0.187   7.365  0.00  0.00    +0.000 C 
ATOM      9  C   UNL     1      20.027  -2.507   7.618  0.00  0.00    +0.000 C 
ATOM     10  C   UNL     1      21.082  -1.442   9.600  0.00  0.00    +0.000 C 
ATOM     11  C   UNL     1      18.958  -1.519   7.578  0.00  0.00    +0.000 C 
ATOM     12  C   UNL     1      20.454  -2.950   6.282  0.00  0.00    +0.000 C 
ENDBRANCH   3   4
ENDBRANCH   2   3
BRANCH   2  13
ATOM     13  C   UNL     1      24.209  -1.687   4.246  0.00  0.00    +0.000 C 
BRANCH  13  14
ATOM     14  C   UNL     1      25.262  -0.798   4.771  0.00  0.00    +0.000 A 
ATOM     15  C   UNL     1      24.929   0.452   5.305  0.00  0.00    +0.000 A 
ATOM     16  C   UNL     1      25.918   1.318   5.771  0.00  0.00    +0.000 A 
ATOM     17  C   UNL     1      27.256   0.946   5.701  0.00  0.00    +0.000 A 
ATOM     18  C   UNL     1      27.605  -0.288   5.164  0.00  0.00    +0.000 A 
ATOM     19  C   UNL     1      26.612  -1.150   4.699  0.00  0.00    +0.000 A 
ENDBRANCH  13  14
BRANCH  13  20
ATOM     20  C   UNL     1      23.900  -1.658   2.849  0.00  0.00    +0.000 C 
BRANCH  20  21
ATOM     21  O   UNL     1      23.614  -1.632   1.552  0.00  0.00    +0.000 OA
ATOM     22  H   UNL     1      23.280  -2.498   1.259  0.00  0.00    +0.000 HD
ENDBRANCH  20  21
ENDBRANCH  13  20
ENDBRANCH   2  13
TORSDOF 6
ENDMDL
MODEL 4
REMARK VINA RESULT:      -5.2     38.390     41.683
REMARK  Name = Hyoscyamine.pdbqt.pdb
REMARK  6 active torsions:
REMARK  status: ('A' for Active; 'I' for Inactive)
REMARK    1  A    between atoms: C_2  and  O_3
REMARK    2  A    between atoms: C_2  and  C_13
REMARK    3  A    between atoms: O_3  and  C_4
REMARK    4  A    between atoms: C_13  and  C_14
REMARK    5  A    between atoms: C_13  and  C_20
REMARK    6  A    between atoms: C_20  and  O_21
REMARK                            x       y       z     vdW  Elec       q    Type
REMARK                         _______ _______ _______ _____ _____    ______ ____
ROOT
ATOM      1  O   UNL     1      43.357 -16.806  -3.498  0.00  0.00    +0.000 OA
ATOM      2  C   UNL     1      42.659 -17.453  -2.726  0.00  0.00    +0.000 C 
ENDROOT
BRANCH   2   3
ATOM      3  O   UNL     1      42.161 -17.034  -1.527  0.00  0.00    +0.000 OA
BRANCH   3   4
ATOM      4  C   UNL     1      41.082 -16.160  -1.661  0.00  0.00    +0.000 C 
ATOM      5  C   UNL     1      41.250 -14.731  -1.460  0.00  0.00    +0.000 C 
ATOM      6  C   UNL     1      40.324 -13.824  -0.769  0.00  0.00    +0.000 C 
ATOM      7  N   UNL     1      39.849 -14.631   0.448  0.00  0.00    +0.000 NA
ATOM      8  C   UNL     1      39.108 -13.569  -1.521  0.00  0.00    +0.000 C 
ATOM      9  C   UNL     1      38.918 -15.587  -0.314  0.00  0.00    +0.000 C 
ATOM     10  C   UNL     1      39.100 -13.788   1.392  0.00  0.00    +0.000 C 
ATOM     11  C   UNL     1      38.164 -14.735  -1.222  0.00  0.00    +0.000 C 
ATOM     12  C   UNL     1      39.834 -16.505  -1.008  0.00  0.00    +0.000 C 
ENDBRANCH   3   4
ENDBRANCH   2   3
BRANCH   2  13
ATOM     13  C   UNL     1      42.267 -18.870  -2.983  0.00  0.00    +0.000 C 
BRANCH  13  14
ATOM     14  C   UNL     1      42.108 -19.446  -4.331  0.00  0.00    +0.000 A 
ATOM     15  C   UNL     1      42.899 -20.526  -4.736  0.00  0.00    +0.000 A 
ATOM     16  C   UNL     1      42.785 -21.057  -6.020  0.00  0.00    +0.000 A 
ATOM     17  C   UNL     1      41.881 -20.505  -6.921  0.00  0.00    +0.000 A 
ATOM     18  C   UNL     1      41.094 -19.424  -6.539  0.00  0.00    +0.000 A 
ATOM     19  C   UNL     1      41.213 -18.898  -5.253  0.00  0.00    +0.000 A 
ENDBRANCH  13  14
BRANCH  13  20
ATOM     20  C   UNL     1      42.108 -19.714  -1.838  0.00  0.00    +0.000 C 
BRANCH  20  21
ATOM     21  O   UNL     1      41.960 -20.498  -0.775  0.00  0.00    +0.000 OA
ATOM     22  H   UNL     1      41.554 -21.345  -1.030  0.00  0.00    +0.000 HD
ENDBRANCH  20  21
ENDBRANCH  13  20
ENDBRANCH   2  13
TORSDOF 6
ENDMDL
MODEL 5
REMARK VINA RESULT:      -5.1     14.810     18.041
REMARK  Name = Hyoscyamine.pdbqt.pdb
REMARK  6 active torsions:
REMARK  status: ('A' for Active; 'I' for Inactive)
REMARK    1  A    between atoms: C_2  and  O_3
REMARK    2  A    between atoms: C_2  and  C_13
REMARK    3  A    between atoms: O_3  and  C_4
REMARK    4  A    between atoms: C_13  and  C_14
REMARK    5  A    between atoms: C_13  and  C_20
REMARK    6  A    between atoms: C_20  and  O_21
REMARK                            x       y       z     vdW  Elec       q    Type
REMARK                         _______ _______ _______ _____ _____    ______ ____
ROOT
ATOM      1  O   UNL     1      29.329  25.824  30.265  0.00  0.00    +0.000 OA
ATOM      2  C   UNL     1      29.346  24.630  29.992  0.00  0.00    +0.000 C 
ENDROOT
BRANCH   2   3
ATOM      3  O   UNL     1      28.796  24.034  28.895  0.00  0.00    +0.000 OA
BRANCH   3   4
ATOM      4  C   UNL     1      27.446  23.724  29.064  0.00  0.00    +0.000 C 
ATOM      5  C   UNL     1      26.912  22.450  28.616  0.00  0.00    +0.000 C 
ATOM      6  C   UNL     1      25.622  22.221  27.951  0.00  0.00    +0.000 C 
ATOM      7  N   UNL     1      25.493  23.395  26.971  0.00  0.00    +0.000 NA
ATOM      8  C   UNL     1      24.486  22.377  28.843  0.00  0.00    +0.000 C 
ATOM      9  C   UNL     1      25.175  24.476  28.015  0.00  0.00    +0.000 C 
ATOM     10  C   UNL     1      24.371  23.198  26.041  0.00  0.00    +0.000 C 
ATOM     11  C   UNL     1      24.178  23.874  28.889  0.00  0.00    +0.000 C 
ATOM     12  C   UNL     1      26.461  24.718  28.687  0.00  0.00    +0.000 C 
ENDBRANCH   3   4
ENDBRANCH   2   3
BRANCH   2  13
ATOM     13  C   UNL     1      29.967  23.605  30.882  0.00  0.00    +0.000 C 
BRANCH  13  14
ATOM     14  C   UNL     1      29.302  23.039  32.070  0.00  0.00    +0.000 A 
ATOM     15  C   UNL     1      28.476  21.916  31.949  0.00  0.00    +0.000 A 
ATOM     16  C   UNL     1      27.812  21.392  33.058  0.00  0.00    +0.000 A 
ATOM     17  C   UNL     1      27.958  21.994  34.303  0.00  0.00    +0.000 A 
ATOM     18  C   UNL     1      28.766  23.117  34.439  0.00  0.00    +0.000 A 
ATOM     19  C   UNL     1      29.428  23.636  33.327  0.00  0.00    +0.000 A 
ENDBRANCH  13  14
BRANCH  13  20
ATOM     20  C   UNL     1      31.255  23.113  30.500  0.00  0.00    +0.000 C 
BRANCH  20  21
ATOM     21  O   UNL     1      32.451  22.655  30.145  0.00  0.00    +0.000 OA
ATOM     22  H   UNL     1      32.488  22.506  29.184  0.00  0.00    +0.000 HD
ENDBRANCH  20  21
ENDBRANCH  13  20
ENDBRANCH   2  13
TORSDOF 6
ENDMDL
MODEL 6
REMARK VINA RESULT:      -5.1     39.335     42.152
REMARK  Name = Hyoscyamine.pdbqt.pdb
REMARK  6 active torsions:
REMARK  status: ('A' for Active; 'I' for Inactive)
REMARK    1  A    between atoms: C_2  and  O_3
REMARK    2  A    between atoms: C_2  and  C_13
REMARK    3  A    between atoms: O_3  and  C_4
REMARK    4  A    between atoms: C_13  and  C_14
REMARK    5  A    between atoms: C_13  and  C_20
REMARK    6  A    between atoms: C_20  and  O_21
REMARK                            x       y       z     vdW  Elec       q    Type
REMARK                         _______ _______ _______ _____ _____    ______ ____
ROOT
ATOM      1  O   UNL     1      51.221 -16.307  14.006  0.00  0.00    +0.000 OA
ATOM      2  C   UNL     1      50.277 -15.936  14.692  0.00  0.00    +0.000 C 
ENDROOT
BRANCH   2   3
ATOM      3  O   UNL     1      48.951 -16.042  14.387  0.00  0.00    +0.000 OA
BRANCH   3   4
ATOM      4  C   UNL     1      48.468 -17.345  14.507  0.00  0.00    +0.000 C 
ATOM      5  C   UNL     1      49.083 -18.286  15.427  0.00  0.00    +0.000 C 
ATOM      6  C   UNL     1      49.347 -19.710  15.183  0.00  0.00    +0.000 C 
ATOM      7  N   UNL     1      49.843 -19.756  13.731  0.00  0.00    +0.000 NA
ATOM      8  C   UNL     1      48.140 -20.520  15.171  0.00  0.00    +0.000 C 
ATOM      9  C   UNL     1      48.480 -19.520  13.061  0.00  0.00    +0.000 C 
ATOM     10  C   UNL     1      50.388 -21.078  13.390  0.00  0.00    +0.000 C 
ATOM     11  C   UNL     1      47.558 -20.403  13.761  0.00  0.00    +0.000 C 
ATOM     12  C   UNL     1      48.206 -18.094  13.294  0.00  0.00    +0.000 C 
ENDBRANCH   3   4
ENDBRANCH   2   3
BRANCH   2  13
ATOM     13  C   UNL     1      50.452 -15.246  16.005  0.00  0.00    +0.000 C 
BRANCH  13  14
ATOM     14  C   UNL     1      51.516 -15.580  16.971  0.00  0.00    +0.000 A 
ATOM     15  C   UNL     1      51.630 -16.880  17.475  0.00  0.00    +0.000 A 
ATOM     16  C   UNL     1      52.607 -17.201  18.415  0.00  0.00    +0.000 A 
ATOM     17  C   UNL     1      53.480 -16.219  18.872  0.00  0.00    +0.000 A 
ATOM     18  C   UNL     1      53.374 -14.919  18.389  0.00  0.00    +0.000 A 
ATOM     19  C   UNL     1      52.395 -14.605  17.449  0.00  0.00    +0.000 A 
ENDBRANCH  13  14
BRANCH  13  20
ATOM     20  C   UNL     1      49.564 -14.161  16.289  0.00  0.00    +0.000 C 
BRANCH  20  21
ATOM     21  O   UNL     1      48.740 -13.153  16.552  0.00  0.00    +0.000 OA
ATOM     22  H   UNL     1      48.263 -12.883  15.747  0.00  0.00    +0.000 HD
ENDBRANCH  20  21
ENDBRANCH  13  20
ENDBRANCH   2  13
TORSDOF 6
ENDMDL
MODEL 7
REMARK VINA RESULT:      -5.0     23.390     25.385
REMARK  Name = Hyoscyamine.pdbqt.pdb
REMARK  6 active torsions:
REMARK  status: ('A' for Active; 'I' for Inactive)
REMARK    1  A    between atoms: C_2  and  O_3
REMARK    2  A    between atoms: C_2  and  C_13
REMARK    3  A    between atoms: O_3  and  C_4
REMARK    4  A    between atoms: C_13  and  C_14
REMARK    5  A    between atoms: C_13  and  C_20
REMARK    6  A    between atoms: C_20  and  O_21
REMARK                            x       y       z     vdW  Elec       q    Type
REMARK                         _______ _______ _______ _____ _____    ______ ____
ROOT
ATOM      1  O   UNL     1      46.010   8.252  18.776  0.00  0.00    +0.000 OA
ATOM      2  C   UNL     1      45.093   7.605  19.268  0.00  0.00    +0.000 C 
ENDROOT
BRANCH   2   3
ATOM      3  O   UNL     1      45.179   6.371  19.843  0.00  0.00    +0.000 OA
BRANCH   3   4
ATOM      4  C   UNL     1      46.154   6.300  20.838  0.00  0.00    +0.000 C 
ATOM      5  C   UNL     1      46.298   7.362  21.818  0.00  0.00    +0.000 C 
ATOM      6  C   UNL     1      47.554   7.921  22.333  0.00  0.00    +0.000 C 
ATOM      7  N   UNL     1      48.458   8.011  21.096  0.00  0.00    +0.000 NA
ATOM      8  C   UNL     1      48.259   7.014  23.222  0.00  0.00    +0.000 C 
ATOM      9  C   UNL     1      48.755   6.509  20.971  0.00  0.00    +0.000 C 
ATOM     10  C   UNL     1      49.681   8.779  21.377  0.00  0.00    +0.000 C 
ATOM     11  C   UNL     1      49.065   6.072  22.325  0.00  0.00    +0.000 C 
ATOM     12  C   UNL     1      47.503   5.937  20.451  0.00  0.00    +0.000 C 
ENDBRANCH   3   4
ENDBRANCH   2   3
BRANCH   2  13
ATOM     13  C   UNL     1      43.678   8.082  19.274  0.00  0.00    +0.000 C 
BRANCH  13  14
ATOM     14  C   UNL     1      43.118   8.999  18.264  0.00  0.00    +0.000 A 
ATOM     15  C   UNL     1      43.531  10.335  18.216  0.00  0.00    +0.000 A 
ATOM     16  C   UNL     1      42.984  11.221  17.290  0.00  0.00    +0.000 A 
ATOM     17  C   UNL     1      42.005  10.784  16.404  0.00  0.00    +0.000 A 
ATOM     18  C   UNL     1      41.575   9.462  16.444  0.00  0.00    +0.000 A 
ATOM     19  C   UNL     1      42.127   8.579  17.373  0.00  0.00    +0.000 A 
ENDBRANCH  13  14
BRANCH  13  20
ATOM     20  C   UNL     1      42.822   7.552  20.290  0.00  0.00    +0.000 C 
BRANCH  20  21
ATOM     21  O   UNL     1      42.027   7.060  21.235  0.00  0.00    +0.000 OA
ATOM     22  H   UNL     1      41.429   6.389  20.862  0.00  0.00    +0.000 HD
ENDBRANCH  20  21
ENDBRANCH  13  20
ENDBRANCH   2  13
TORSDOF 6
ENDMDL
MODEL 8
REMARK VINA RESULT:      -4.9     24.553     26.613
REMARK  Name = Hyoscyamine.pdbqt.pdb
REMARK  6 active torsions:
REMARK  status: ('A' for Active; 'I' for Inactive)
REMARK    1  A    between atoms: C_2  and  O_3
REMARK    2  A    between atoms: C_2  and  C_13
REMARK    3  A    between atoms: O_3  and  C_4
REMARK    4  A    between atoms: C_13  and  C_14
REMARK    5  A    between atoms: C_13  and  C_20
REMARK    6  A    between atoms: C_20  and  O_21
REMARK                            x       y       z     vdW  Elec       q    Type
REMARK                         _______ _______ _______ _____ _____    ______ ____
ROOT
ATOM      1  O   UNL     1      47.598   7.881  19.419  0.00  0.00    +0.000 OA
ATOM      2  C   UNL     1      46.956   8.168  20.422  0.00  0.00    +0.000 C 
ENDROOT
BRANCH   2   3
ATOM      3  O   UNL     1      47.186   7.732  21.694  0.00  0.00    +0.000 OA
BRANCH   3   4
ATOM      4  C   UNL     1      47.519   6.378  21.753  0.00  0.00    +0.000 C 
ATOM      5  C   UNL     1      48.900   5.945  21.645  0.00  0.00    +0.000 C 
ATOM      6  C   UNL     1      49.402   4.780  20.904  0.00  0.00    +0.000 C 
ATOM      7  N   UNL     1      48.588   4.786  19.603  0.00  0.00    +0.000 NA
ATOM      8  C   UNL     1      49.060   3.515  21.531  0.00  0.00    +0.000 C 
ATOM      9  C   UNL     1      47.266   4.287  20.208  0.00  0.00    +0.000 C 
ATOM     10  C   UNL     1      49.127   3.828  18.626  0.00  0.00    +0.000 C 
ATOM     11  C   UNL     1      47.642   3.176  21.071  0.00  0.00    +0.000 C 
ATOM     12  C   UNL     1      46.750   5.448  20.951  0.00  0.00    +0.000 C 
ENDBRANCH   3   4
ENDBRANCH   2   3
BRANCH   2  13
ATOM     13  C   UNL     1      45.750   9.048  20.387  0.00  0.00    +0.000 C 
BRANCH  13  14
ATOM     14  C   UNL     1      44.372   8.545  20.237  0.00  0.00    +0.000 A 
ATOM     15  C   UNL     1      43.581   8.961  19.160  0.00  0.00    +0.000 A 
ATOM     16  C   UNL     1      42.265   8.522  19.025  0.00  0.00    +0.000 A 
ATOM     17  C   UNL     1      41.719   7.665  19.974  0.00  0.00    +0.000 A 
ATOM     18  C   UNL     1      42.487   7.249  21.056  0.00  0.00    +0.000 A 
ATOM     19  C   UNL     1      43.803   7.692  21.186  0.00  0.00    +0.000 A 
ENDBRANCH  13  14
BRANCH  13  20
ATOM     20  C   UNL     1      45.967  10.450  20.577  0.00  0.00    +0.000 C 
BRANCH  20  21
ATOM     21  O   UNL     1      46.168  11.751  20.754  0.00  0.00    +0.000 OA
ATOM     22  H   UNL     1      46.942  12.049  20.244  0.00  0.00    +0.000 HD
ENDBRANCH  20  21
ENDBRANCH  13  20
ENDBRANCH   2  13
TORSDOF 6
ENDMDL
MODEL 9
REMARK VINA RESULT:      -4.8     16.239     18.465
REMARK  Name = Hyoscyamine.pdbqt.pdb
REMARK  6 active torsions:
REMARK  status: ('A' for Active; 'I' for Inactive)
REMARK    1  A    between atoms: C_2  and  O_3
REMARK    2  A    between atoms: C_2  and  C_13
REMARK    3  A    between atoms: O_3  and  C_4
REMARK    4  A    between atoms: C_13  and  C_14
REMARK    5  A    between atoms: C_13  and  C_20
REMARK    6  A    between atoms: C_20  and  O_21
REMARK                            x       y       z     vdW  Elec       q    Type
REMARK                         _______ _______ _______ _____ _____    ______ ____
ROOT
ATOM      1  O   UNL     1      19.927   0.280   7.057  0.00  0.00    +0.000 OA
ATOM      2  C   UNL     1      21.103  -0.007   6.870  0.00  0.00    +0.000 C 
ENDROOT
BRANCH   2   3
ATOM      3  O   UNL     1      22.077  -0.129   7.818  0.00  0.00    +0.000 OA
BRANCH   3   4
ATOM      4  C   UNL     1      21.807  -1.131   8.750  0.00  0.00    +0.000 C 
ATOM      5  C   UNL     1      21.151  -2.363   8.351  0.00  0.00    +0.000 C 
ATOM      6  C   UNL     1      20.111  -3.087   9.093  0.00  0.00    +0.000 C 
ATOM      7  N   UNL     1      19.201  -1.979   9.640  0.00  0.00    +0.000 NA
ATOM      8  C   UNL     1      20.617  -3.750  10.283  0.00  0.00    +0.000 C 
ATOM      9  C   UNL     1      20.151  -1.482  10.740  0.00  0.00    +0.000 C 
ATOM     10  C   UNL     1      17.962  -2.532  10.208  0.00  0.00    +0.000 C 
ATOM     11  C   UNL     1      20.644  -2.691  11.386  0.00  0.00    +0.000 C 
ATOM     12  C   UNL     1      21.197  -0.750  10.009  0.00  0.00    +0.000 C 
ENDBRANCH   3   4
ENDBRANCH   2   3
BRANCH   2  13
ATOM     13  C   UNL     1      21.673  -0.238   5.509  0.00  0.00    +0.000 C 
BRANCH  13  14
ATOM     14  C   UNL     1      23.040  -0.735   5.267  0.00  0.00    +0.000 A 
ATOM     15  C   UNL     1      24.073   0.158   4.961  0.00  0.00    +0.000 A 
ATOM     16  C   UNL     1      25.362  -0.301   4.694  0.00  0.00    +0.000 A 
ATOM     17  C   UNL     1      25.632  -1.665   4.720  0.00  0.00    +0.000 A 
ATOM     18  C   UNL     1      24.615  -2.567   5.011  0.00  0.00    +0.000 A 
ATOM     19  C   UNL     1      23.328  -2.102   5.277  0.00  0.00    +0.000 A 
ENDBRANCH  13  14
BRANCH  13  20
ATOM     20  C   UNL     1      20.800  -0.018   4.397  0.00  0.00    +0.000 C 
BRANCH  20  21
ATOM     21  O   UNL     1      19.989   0.186   3.364  0.00  0.00    +0.000 OA
ATOM     22  H   UNL     1      20.370   0.845   2.757  0.00  0.00    +0.000 HD
ENDBRANCH  20  21
ENDBRANCH  13  20
ENDBRANCH   2  13
TORSDOF 6
ENDMDL
