MODEL 1
REMARK VINA RESULT:      -8.1      0.000      0.000
REMARK  Name = 
REMARK  21 active torsions:
REMARK  status: ('A' for Active; 'I' for Inactive)
REMARK    1  A    between atoms: O_3  and  C_22
REMARK    2  A    between atoms: O_3  and  C_28
REMARK    3  A    between atoms: O_4  and  C_25
REMARK    4  A    between atoms: O_4  and  C_30
REMARK    5  A    between atoms: O_5  and  C_16
REMARK    6  A    between atoms: O_6  and  C_17
REMARK    7  A    between atoms: O_7  and  C_18
REMARK    8  A    between atoms: O_8  and  C_20
REMARK    9  A    between atoms: O_9  and  C_21
REMARK   10  A    between atoms: O_10  and  C_23
REMARK   11  A    between atoms: O_11  and  C_26
REMARK   12  A    between atoms: O_13  and  C_36
REMARK   13  A    between atoms: O_15  and  C_45
REMARK   14  A    between atoms: O_15  and  C_48
REMARK   15  A    between atoms: C_19  and  C_26
REMARK   16  A    between atoms: C_24  and  C_27
REMARK   17  A    between atoms: C_29  and  C_37
REMARK   18  A    between atoms: C_35  and  C_38
REMARK   19  A    between atoms: C_37  and  C_39
REMARK   20  A    between atoms: C_42  and  C_46
REMARK   21  A    between atoms: C_42  and  C_47
REMARK                            x       y       z     vdW  Elec       q    Type
REMARK                         _______ _______ _______ _____ _____    ______ ____
ROOT
ATOM      1  O   UNL     1      38.670   3.510  10.437  0.00  0.00    +0.000 OA
ATOM      2  O   UNL     1      40.551   5.524  13.419  0.00  0.00    +0.000 OA
ATOM      3  C   UNL     1      36.499   2.587  13.234  0.00  0.00    +0.000 A 
ATOM      4  C   UNL     1      37.019   2.668  11.930  0.00  0.00    +0.000 A 
ATOM      5  C   UNL     1      40.507   4.926  11.118  0.00  0.00    +0.000 A 
ATOM      6  C   UNL     1      38.177   3.443  11.718  0.00  0.00    +0.000 A 
ATOM      7  C   UNL     1      38.784   4.120  12.777  0.00  0.00    +0.000 A 
ATOM      8  C   UNL     1      39.996   4.906  12.512  0.00  0.00    +0.000 A 
ATOM      9  C   UNL     1      37.084   3.299  14.286  0.00  0.00    +0.000 A 
ATOM     10  C   UNL     1      39.836   4.211  10.197  0.00  0.00    +0.000 A 
ATOM     11  C   UNL     1      38.231   4.050  14.058  0.00  0.00    +0.000 A 
ENDROOT
BRANCH  10  12
ATOM     12  C   UNL     1      40.267   4.141   8.793  0.00  0.00    +0.000 A 
ATOM     13  C   UNL     1      39.999   5.207   7.926  0.00  0.00    +0.000 A 
ATOM     14  C   UNL     1      40.935   3.015   8.294  0.00  0.00    +0.000 A 
ATOM     15  C   UNL     1      40.409   5.150   6.592  0.00  0.00    +0.000 A 
ATOM     16  C   UNL     1      41.347   2.962   6.957  0.00  0.00    +0.000 A 
ATOM     17  C   UNL     1      41.090   4.034   6.102  0.00  0.00    +0.000 A 
BRANCH  17  18
ATOM     18  O   UNL     1      41.438   4.111   4.782  0.00  0.00    +0.000 OA
ATOM     19  C   UNL     1      41.500   2.886   4.062  0.00  0.00    +0.000 C 
ENDBRANCH  17  18
ENDBRANCH  10  12
BRANCH  11  20
ATOM     20  O   UNL     1      38.758   4.702  15.140  0.00  0.00    +0.000 OA
ATOM     21  H   UNL     1      39.659   5.016  14.903  0.00  0.00    +0.000 HD
ENDBRANCH  11  20
BRANCH   4  22
ATOM     22  C   UNL     1      36.384   1.913  10.778  0.00  0.00    +0.000 C 
BRANCH  22  23
ATOM     23  C   UNL     1      37.068   0.598  10.508  0.00  0.00    +0.000 C 
ATOM     24  C   UNL     1      37.650   0.168   9.370  0.00  0.00    +0.000 C 
ATOM     25  C   UNL     1      37.745   0.947   8.088  0.00  0.00    +0.000 C 
ATOM     26  C   UNL     1      38.286  -1.196   9.310  0.00  0.00    +0.000 C 
ENDBRANCH  22  23
ENDBRANCH   4  22
BRANCH   5  27
ATOM     27  O   UNL     1      41.681   5.602  10.837  0.00  0.00    +0.000 OA
BRANCH  27  33
ATOM     28  O   UNL     1      41.312   7.767   9.949  0.00  0.00    +0.000 OA
ATOM     29  C   UNL     1      44.052   7.440  10.787  0.00  0.00    +0.000 C 
ATOM     30  C   UNL     1      43.681   8.225   9.522  0.00  0.00    +0.000 C 
ATOM     31  C   UNL     1      42.908   7.456  11.801  0.00  0.00    +0.000 C 
ATOM     32  C   UNL     1      42.350   7.706   8.962  0.00  0.00    +0.000 C 
ATOM     33  C   UNL     1      41.595   7.002  11.130  0.00  0.00    +0.000 C 
ATOM     34  C   UNL     1      41.890   8.529   7.763  0.00  0.00    +0.000 C 
BRANCH  29  35
ATOM     35  O   UNL     1      45.231   8.036  11.359  0.00  0.00    +0.000 OA
ATOM     36  H   UNL     1      44.892   8.700  11.997  0.00  0.00    +0.000 HD
ENDBRANCH  29  35
BRANCH  30  37
ATOM     37  O   UNL     1      44.737   8.083   8.564  0.00  0.00    +0.000 OA
ATOM     38  H   UNL     1      45.499   8.559   8.951  0.00  0.00    +0.000 HD
ENDBRANCH  30  37
BRANCH  31  39
ATOM     39  O   UNL     1      42.817   8.795  12.332  0.00  0.00    +0.000 OA
ATOM     40  H   UNL     1      43.088   8.753  13.267  0.00  0.00    +0.000 HD
ENDBRANCH  31  39
ENDBRANCH  27  33
ENDBRANCH   5  27
BRANCH   3  41
ATOM     41  O   UNL     1      35.343   1.882  13.452  0.00  0.00    +0.000 OA
BRANCH  41  47
ATOM     42  O   UNL     1      36.189  -0.045  14.534  0.00  0.00    +0.000 OA
ATOM     43  C   UNL     1      33.886  -0.171  16.218  0.00  0.00    +0.000 C 
ATOM     44  C   UNL     1      34.855  -1.349  16.088  0.00  0.00    +0.000 C 
ATOM     45  C   UNL     1      33.927   0.711  14.972  0.00  0.00    +0.000 C 
ATOM     46  C   UNL     1      36.255  -0.825  15.740  0.00  0.00    +0.000 C 
ATOM     47  C   UNL     1      35.382   1.123  14.678  0.00  0.00    +0.000 C 
BRANCH  44  48
ATOM     48  O   UNL     1      34.862  -2.085  17.313  0.00  0.00    +0.000 OA
ATOM     49  H   UNL     1      34.334  -1.546  17.938  0.00  0.00    +0.000 HD
ENDBRANCH  44  48
BRANCH  45  50
ATOM     50  O   UNL     1      33.078   1.850  15.192  0.00  0.00    +0.000 OA
ATOM     51  H   UNL     1      33.280   2.164  16.095  0.00  0.00    +0.000 HD
ENDBRANCH  45  50
BRANCH  43  52
ATOM     52  O   UNL     1      32.558  -0.680  16.425  0.00  0.00    +0.000 OA
ATOM     53  H   UNL     1      31.983  -0.131  15.854  0.00  0.00    +0.000 HD
ENDBRANCH  43  52
BRANCH  46  54
ATOM     54  C   UNL     1      37.240  -1.980  15.520  0.00  0.00    +0.000 C 
BRANCH  54  55
ATOM     55  O   UNL     1      37.479  -2.654  16.757  0.00  0.00    +0.000 OA
ATOM     56  H   UNL     1      38.434  -2.597  16.930  0.00  0.00    +0.000 HD
ENDBRANCH  54  55
ENDBRANCH  46  54
ENDBRANCH  41  47
ENDBRANCH   3  41
TORSDOF 17
ENDMDL
MODEL 2
REMARK VINA RESULT:      -7.8      4.127      6.684
REMARK  Name = 
REMARK  21 active torsions:
REMARK  status: ('A' for Active; 'I' for Inactive)
REMARK    1  A    between atoms: O_3  and  C_22
REMARK    2  A    between atoms: O_3  and  C_28
REMARK    3  A    between atoms: O_4  and  C_25
REMARK    4  A    between atoms: O_4  and  C_30
REMARK    5  A    between atoms: O_5  and  C_16
REMARK    6  A    between atoms: O_6  and  C_17
REMARK    7  A    between atoms: O_7  and  C_18
REMARK    8  A    between atoms: O_8  and  C_20
REMARK    9  A    between atoms: O_9  and  C_21
REMARK   10  A    between atoms: O_10  and  C_23
REMARK   11  A    between atoms: O_11  and  C_26
REMARK   12  A    between atoms: O_13  and  C_36
REMARK   13  A    between atoms: O_15  and  C_45
REMARK   14  A    between atoms: O_15  and  C_48
REMARK   15  A    between atoms: C_19  and  C_26
REMARK   16  A    between atoms: C_24  and  C_27
REMARK   17  A    between atoms: C_29  and  C_37
REMARK   18  A    between atoms: C_35  and  C_38
REMARK   19  A    between atoms: C_37  and  C_39
REMARK   20  A    between atoms: C_42  and  C_46
REMARK   21  A    between atoms: C_42  and  C_47
REMARK                            x       y       z     vdW  Elec       q    Type
REMARK                         _______ _______ _______ _____ _____    ______ ____
ROOT
ATOM      1  O   UNL     1      38.767   2.995  13.275  0.00  0.00    +0.000 OA
ATOM      2  O   UNL     1      42.807   3.391  13.168  0.00  0.00    +0.000 OA
ATOM      3  C   UNL     1      39.241   5.028  16.280  0.00  0.00    +0.000 A 
ATOM      4  C   UNL     1      38.606   4.289  15.266  0.00  0.00    +0.000 A 
ATOM      5  C   UNL     1      40.854   2.464  12.176  0.00  0.00    +0.000 A 
ATOM      6  C   UNL     1      39.406   3.713  14.258  0.00  0.00    +0.000 A 
ATOM      7  C   UNL     1      40.791   3.882  14.264  0.00  0.00    +0.000 A 
ATOM      8  C   UNL     1      41.585   3.254  13.200  0.00  0.00    +0.000 A 
ATOM      9  C   UNL     1      40.624   5.231  16.262  0.00  0.00    +0.000 A 
ATOM     10  C   UNL     1      39.519   2.365  12.302  0.00  0.00    +0.000 A 
ATOM     11  C   UNL     1      41.396   4.647  15.264  0.00  0.00    +0.000 A 
ENDROOT
BRANCH  10  12
ATOM     12  C   UNL     1      38.699   1.589  11.358  0.00  0.00    +0.000 A 
ATOM     13  C   UNL     1      38.249   0.312  11.712  0.00  0.00    +0.000 A 
ATOM     14  C   UNL     1      38.365   2.099  10.098  0.00  0.00    +0.000 A 
ATOM     15  C   UNL     1      37.466  -0.429  10.824  0.00  0.00    +0.000 A 
ATOM     16  C   UNL     1      37.578   1.356   9.211  0.00  0.00    +0.000 A 
ATOM     17  C   UNL     1      37.120   0.089   9.573  0.00  0.00    +0.000 A 
BRANCH  17  18
ATOM     18  O   UNL     1      36.346  -0.737   8.807  0.00  0.00    +0.000 OA
ATOM     19  C   UNL     1      36.287  -2.104   9.194  0.00  0.00    +0.000 C 
ENDBRANCH  17  18
ENDBRANCH  10  12
BRANCH  11  20
ATOM     20  O   UNL     1      42.744   4.874  15.324  0.00  0.00    +0.000 OA
ATOM     21  H   UNL     1      43.099   4.418  16.119  0.00  0.00    +0.000 HD
ENDBRANCH  11  20
BRANCH   4  22
ATOM     22  C   UNL     1      37.104   4.075  15.265  0.00  0.00    +0.000 C 
BRANCH  22  23
ATOM     23  C   UNL     1      36.730   2.636  15.513  0.00  0.00    +0.000 C 
ATOM     24  C   UNL     1      36.010   1.807  14.732  0.00  0.00    +0.000 C 
ATOM     25  C   UNL     1      35.411   2.159  13.398  0.00  0.00    +0.000 C 
ATOM     26  C   UNL     1      35.748   0.389  15.168  0.00  0.00    +0.000 C 
ENDBRANCH  22  23
ENDBRANCH   4  22
BRANCH   5  27
ATOM     27  O   UNL     1      41.569   1.804  11.194  0.00  0.00    +0.000 OA
BRANCH  27  33
ATOM     28  O   UNL     1      43.695   0.773  11.021  0.00  0.00    +0.000 OA
ATOM     29  C   UNL     1      41.594  -1.040  10.238  0.00  0.00    +0.000 C 
ATOM     30  C   UNL     1      42.943  -1.004   9.510  0.00  0.00    +0.000 C 
ATOM     31  C   UNL     1      41.733  -0.565  11.684  0.00  0.00    +0.000 C 
ATOM     32  C   UNL     1      43.567   0.390   9.644  0.00  0.00    +0.000 C 
ATOM     33  C   UNL     1      42.446   0.804  11.727  0.00  0.00    +0.000 C 
ATOM     34  C   UNL     1      44.960   0.441   9.025  0.00  0.00    +0.000 C 
BRANCH  29  35
ATOM     35  O   UNL     1      41.099  -2.392  10.206  0.00  0.00    +0.000 OA
ATOM     36  H   UNL     1      41.234  -2.687   9.281  0.00  0.00    +0.000 HD
ENDBRANCH  29  35
BRANCH  30  37
ATOM     37  O   UNL     1      42.736  -1.350   8.135  0.00  0.00    +0.000 OA
ATOM     38  H   UNL     1      42.928  -2.308   8.080  0.00  0.00    +0.000 HD
ENDBRANCH  30  37
BRANCH  31  39
ATOM     39  O   UNL     1      42.457  -1.581  12.408  0.00  0.00    +0.000 OA
ATOM     40  H   UNL     1      43.269  -1.772  11.902  0.00  0.00    +0.000 HD
ENDBRANCH  31  39
ENDBRANCH  27  33
ENDBRANCH   5  27
BRANCH   3  41
ATOM     41  O   UNL     1      38.476   5.641  17.240  0.00  0.00    +0.000 OA
BRANCH  41  47
ATOM     42  O   UNL     1      37.524   3.998  18.651  0.00  0.00    +0.000 OA
ATOM     43  C   UNL     1      38.358   5.438  20.972  0.00  0.00    +0.000 C 
ATOM     44  C   UNL     1      37.328   4.308  21.052  0.00  0.00    +0.000 C 
ATOM     45  C   UNL     1      38.370   6.071  19.583  0.00  0.00    +0.000 C 
ATOM     46  C   UNL     1      37.575   3.309  19.913  0.00  0.00    +0.000 C 
ATOM     47  C   UNL     1      38.556   4.975  18.517  0.00  0.00    +0.000 C 
BRANCH  44  48
ATOM     48  O   UNL     1      37.425   3.676  22.330  0.00  0.00    +0.000 OA
ATOM     49  H   UNL     1      36.831   4.191  22.915  0.00  0.00    +0.000 HD
ENDBRANCH  44  48
BRANCH  45  50
ATOM     50  O   UNL     1      39.421   7.051  19.538  0.00  0.00    +0.000 OA
ATOM     51  H   UNL     1      40.159   6.630  19.054  0.00  0.00    +0.000 HD
ENDBRANCH  45  50
BRANCH  43  52
ATOM     52  O   UNL     1      38.045   6.425  21.968  0.00  0.00    +0.000 OA
ATOM     53  H   UNL     1      37.709   7.195  21.466  0.00  0.00    +0.000 HD
ENDBRANCH  43  52
BRANCH  46  54
ATOM     54  C   UNL     1      36.512   2.203  19.905  0.00  0.00    +0.000 C 
BRANCH  54  55
ATOM     55  O   UNL     1      35.371   2.624  20.658  0.00  0.00    +0.000 OA
ATOM     56  H   UNL     1      35.262   3.576  20.496  0.00  0.00    +0.000 HD
ENDBRANCH  54  55
ENDBRANCH  46  54
ENDBRANCH  41  47
ENDBRANCH   3  41
TORSDOF 17
ENDMDL
MODEL 3
REMARK VINA RESULT:      -7.8      2.246      5.261
REMARK  Name = 
REMARK  21 active torsions:
REMARK  status: ('A' for Active; 'I' for Inactive)
REMARK    1  A    between atoms: O_3  and  C_22
REMARK    2  A    between atoms: O_3  and  C_28
REMARK    3  A    between atoms: O_4  and  C_25
REMARK    4  A    between atoms: O_4  and  C_30
REMARK    5  A    between atoms: O_5  and  C_16
REMARK    6  A    between atoms: O_6  and  C_17
REMARK    7  A    between atoms: O_7  and  C_18
REMARK    8  A    between atoms: O_8  and  C_20
REMARK    9  A    between atoms: O_9  and  C_21
REMARK   10  A    between atoms: O_10  and  C_23
REMARK   11  A    between atoms: O_11  and  C_26
REMARK   12  A    between atoms: O_13  and  C_36
REMARK   13  A    between atoms: O_15  and  C_45
REMARK   14  A    between atoms: O_15  and  C_48
REMARK   15  A    between atoms: C_19  and  C_26
REMARK   16  A    between atoms: C_24  and  C_27
REMARK   17  A    between atoms: C_29  and  C_37
REMARK   18  A    between atoms: C_35  and  C_38
REMARK   19  A    between atoms: C_37  and  C_39
REMARK   20  A    between atoms: C_42  and  C_46
REMARK   21  A    between atoms: C_42  and  C_47
REMARK                            x       y       z     vdW  Elec       q    Type
REMARK                         _______ _______ _______ _____ _____    ______ ____
ROOT
ATOM      1  O   UNL     1      39.472   3.600  11.350  0.00  0.00    +0.000 OA
ATOM      2  O   UNL     1      38.026   0.697   8.907  0.00  0.00    +0.000 OA
ATOM      3  C   UNL     1      36.694   2.420  13.417  0.00  0.00    +0.000 A 
ATOM      4  C   UNL     1      37.813   3.162  12.998  0.00  0.00    +0.000 A 
ATOM      5  C   UNL     1      39.623   2.427   9.241  0.00  0.00    +0.000 A 
ATOM      6  C   UNL     1      38.379   2.865  11.742  0.00  0.00    +0.000 A 
ATOM      7  C   UNL     1      37.847   1.854  10.941  0.00  0.00    +0.000 A 
ATOM      8  C   UNL     1      38.462   1.588   9.635  0.00  0.00    +0.000 A 
ATOM      9  C   UNL     1      36.187   1.379  12.633  0.00  0.00    +0.000 A 
ATOM     10  C   UNL     1      40.021   3.382  10.100  0.00  0.00    +0.000 A 
ATOM     11  C   UNL     1      36.754   1.110  11.392  0.00  0.00    +0.000 A 
ENDROOT
BRANCH  10  12
ATOM     12  C   UNL     1      41.144   4.284   9.804  0.00  0.00    +0.000 A 
ATOM     13  C   UNL     1      40.957   5.372   8.944  0.00  0.00    +0.000 A 
ATOM     14  C   UNL     1      42.413   4.071  10.357  0.00  0.00    +0.000 A 
ATOM     15  C   UNL     1      42.017   6.237   8.660  0.00  0.00    +0.000 A 
ATOM     16  C   UNL     1      43.472   4.940  10.074  0.00  0.00    +0.000 A 
ATOM     17  C   UNL     1      43.277   6.031   9.227  0.00  0.00    +0.000 A 
BRANCH  17  18
ATOM     18  O   UNL     1      44.221   6.953   8.872  0.00  0.00    +0.000 OA
ATOM     19  C   UNL     1      44.145   7.472   7.550  0.00  0.00    +0.000 C 
ENDBRANCH  17  18
ENDBRANCH  10  12
BRANCH  11  20
ATOM     20  O   UNL     1      36.191   0.090  10.673  0.00  0.00    +0.000 OA
ATOM     21  H   UNL     1      35.278   0.356  10.423  0.00  0.00    +0.000 HD
ENDBRANCH  11  20
BRANCH   4  22
ATOM     22  C   UNL     1      38.382   4.282  13.848  0.00  0.00    +0.000 C 
BRANCH  22  23
ATOM     23  C   UNL     1      39.580   3.843  14.648  0.00  0.00    +0.000 C 
ATOM     24  C   UNL     1      40.847   4.299  14.588  0.00  0.00    +0.000 C 
ATOM     25  C   UNL     1      41.343   5.387  13.677  0.00  0.00    +0.000 C 
ATOM     26  C   UNL     1      41.907   3.719  15.488  0.00  0.00    +0.000 C 
ENDBRANCH  22  23
ENDBRANCH   4  22
BRANCH   5  27
ATOM     27  O   UNL     1      40.193   2.253   7.993  0.00  0.00    +0.000 OA
BRANCH  27  33
ATOM     28  O   UNL     1      42.473   1.997   7.405  0.00  0.00    +0.000 OA
ATOM     29  C   UNL     1      40.794   0.253   5.838  0.00  0.00    +0.000 C 
ATOM     30  C   UNL     1      42.014   0.959   5.233  0.00  0.00    +0.000 C 
ATOM     31  C   UNL     1      40.965   0.049   7.344  0.00  0.00    +0.000 C 
ATOM     32  C   UNL     1      42.298   2.253   6.004  0.00  0.00    +0.000 C 
ATOM     33  C   UNL     1      41.333   1.385   8.023  0.00  0.00    +0.000 C 
ATOM     34  C   UNL     1      43.568   2.935   5.503  0.00  0.00    +0.000 C 
BRANCH  29  35
ATOM     35  O   UNL     1      40.634  -1.018   5.181  0.00  0.00    +0.000 OA
ATOM     36  H   UNL     1      39.675  -1.081   4.987  0.00  0.00    +0.000 HD
ENDBRANCH  29  35
BRANCH  30  37
ATOM     37  O   UNL     1      41.754   1.225   3.850  0.00  0.00    +0.000 OA
ATOM     38  H   UNL     1      42.195   2.079   3.666  0.00  0.00    +0.000 HD
ENDBRANCH  30  37
BRANCH  31  39
ATOM     39  O   UNL     1      41.980  -0.959   7.533  0.00  0.00    +0.000 OA
ATOM     40  H   UNL     1      41.555  -1.826   7.395  0.00  0.00    +0.000 HD
ENDBRANCH  31  39
ENDBRANCH  27  33
ENDBRANCH   5  27
BRANCH   3  41
ATOM     41  O   UNL     1      36.161   2.656  14.659  0.00  0.00    +0.000 OA
BRANCH  41  47
ATOM     42  O   UNL     1      36.703   0.360  14.849  0.00  0.00    +0.000 OA
ATOM     43  C   UNL     1      35.083   0.121  17.190  0.00  0.00    +0.000 C 
ATOM     44  C   UNL     1      35.585  -1.108  16.428  0.00  0.00    +0.000 C 
ATOM     45  C   UNL     1      34.998   1.338  16.270  0.00  0.00    +0.000 C 
ATOM     46  C   UNL     1      36.903  -0.768  15.718  0.00  0.00    +0.000 C 
ATOM     47  C   UNL     1      36.349   1.545  15.561  0.00  0.00    +0.000 C 
BRANCH  44  48
ATOM     48  O   UNL     1      35.751  -2.191  17.346  0.00  0.00    +0.000 OA
ATOM     49  H   UNL     1      35.053  -2.836  17.109  0.00  0.00    +0.000 HD
ENDBRANCH  44  48
BRANCH  45  50
ATOM     50  O   UNL     1      34.621   2.479  17.058  0.00  0.00    +0.000 OA
ATOM     51  H   UNL     1      35.113   2.398  17.899  0.00  0.00    +0.000 HD
ENDBRANCH  45  50
BRANCH  43  52
ATOM     52  O   UNL     1      33.794  -0.172  17.750  0.00  0.00    +0.000 OA
ATOM     53  H   UNL     1      33.826  -1.123  17.981  0.00  0.00    +0.000 HD
ENDBRANCH  43  52
BRANCH  46  54
ATOM     54  C   UNL     1      37.400  -1.949  14.875  0.00  0.00    +0.000 C 
BRANCH  54  55
ATOM     55  O   UNL     1      38.166  -2.838  15.691  0.00  0.00    +0.000 OA
ATOM     56  H   UNL     1      38.542  -2.305  16.412  0.00  0.00    +0.000 HD
ENDBRANCH  54  55
ENDBRANCH  46  54
ENDBRANCH  41  47
ENDBRANCH   3  41
TORSDOF 17
ENDMDL
MODEL 4
REMARK VINA RESULT:      -7.6      2.821      9.623
REMARK  Name = 
REMARK  21 active torsions:
REMARK  status: ('A' for Active; 'I' for Inactive)
REMARK    1  A    between atoms: O_3  and  C_22
REMARK    2  A    between atoms: O_3  and  C_28
REMARK    3  A    between atoms: O_4  and  C_25
REMARK    4  A    between atoms: O_4  and  C_30
REMARK    5  A    between atoms: O_5  and  C_16
REMARK    6  A    between atoms: O_6  and  C_17
REMARK    7  A    between atoms: O_7  and  C_18
REMARK    8  A    between atoms: O_8  and  C_20
REMARK    9  A    between atoms: O_9  and  C_21
REMARK   10  A    between atoms: O_10  and  C_23
REMARK   11  A    between atoms: O_11  and  C_26
REMARK   12  A    between atoms: O_13  and  C_36
REMARK   13  A    between atoms: O_15  and  C_45
REMARK   14  A    between atoms: O_15  and  C_48
REMARK   15  A    between atoms: C_19  and  C_26
REMARK   16  A    between atoms: C_24  and  C_27
REMARK   17  A    between atoms: C_29  and  C_37
REMARK   18  A    between atoms: C_35  and  C_38
REMARK   19  A    between atoms: C_37  and  C_39
REMARK   20  A    between atoms: C_42  and  C_46
REMARK   21  A    between atoms: C_42  and  C_47
REMARK                            x       y       z     vdW  Elec       q    Type
REMARK                         _______ _______ _______ _____ _____    ______ ____
ROOT
ATOM      1  O   UNL     1      39.379   3.201  11.609  0.00  0.00    +0.000 OA
ATOM      2  O   UNL     1      36.278   0.621  12.067  0.00  0.00    +0.000 OA
ATOM      3  C   UNL     1      39.064   2.039   8.154  0.00  0.00    +0.000 A 
ATOM      4  C   UNL     1      39.534   2.739   9.279  0.00  0.00    +0.000 A 
ATOM      5  C   UNL     1      37.789   2.144  13.092  0.00  0.00    +0.000 A 
ATOM      6  C   UNL     1      38.907   2.507  10.521  0.00  0.00    +0.000 A 
ATOM      7  C   UNL     1      37.841   1.613  10.624  0.00  0.00    +0.000 A 
ATOM      8  C   UNL     1      37.226   1.394  11.940  0.00  0.00    +0.000 A 
ATOM      9  C   UNL     1      37.969   1.174   8.251  0.00  0.00    +0.000 A 
ATOM     10  C   UNL     1      38.832   2.959  12.855  0.00  0.00    +0.000 A 
ATOM     11  C   UNL     1      37.371   0.952   9.486  0.00  0.00    +0.000 A 
ENDROOT
BRANCH  10  12
ATOM     12  C   UNL     1      39.482   3.732  13.924  0.00  0.00    +0.000 A 
ATOM     13  C   UNL     1      38.905   4.925  14.372  0.00  0.00    +0.000 A 
ATOM     14  C   UNL     1      40.683   3.302  14.502  0.00  0.00    +0.000 A 
ATOM     15  C   UNL     1      39.513   5.663  15.391  0.00  0.00    +0.000 A 
ATOM     16  C   UNL     1      41.289   4.041  15.525  0.00  0.00    +0.000 A 
ATOM     17  C   UNL     1      40.703   5.223  15.977  0.00  0.00    +0.000 A 
BRANCH  17  18
ATOM     18  O   UNL     1      41.187   6.035  16.965  0.00  0.00    +0.000 OA
ATOM     19  C   UNL     1      40.267   6.943  17.558  0.00  0.00    +0.000 C 
ENDBRANCH  17  18
ENDBRANCH  10  12
BRANCH  11  20
ATOM     20  O   UNL     1      36.319   0.078   9.506  0.00  0.00    +0.000 OA
ATOM     21  H   UNL     1      36.219  -0.264  10.422  0.00  0.00    +0.000 HD
ENDBRANCH  11  20
BRANCH   4  22
ATOM     22  C   UNL     1      40.710   3.691   9.184  0.00  0.00    +0.000 C 
BRANCH  22  23
ATOM     23  C   UNL     1      40.300   5.064   8.716  0.00  0.00    +0.000 C 
ATOM     24  C   UNL     1      40.218   6.206   9.427  0.00  0.00    +0.000 C 
ATOM     25  C   UNL     1      40.536   6.353  10.889  0.00  0.00    +0.000 C 
ATOM     26  C   UNL     1      39.784   7.486   8.761  0.00  0.00    +0.000 C 
ENDBRANCH  22  23
ENDBRANCH   4  22
BRANCH   5  27
ATOM     27  O   UNL     1      37.281   1.921  14.358  0.00  0.00    +0.000 OA
BRANCH  27  33
ATOM     28  O   UNL     1      36.413   3.252  16.115  0.00  0.00    +0.000 OA
ATOM     29  C   UNL     1      34.561   1.169  15.376  0.00  0.00    +0.000 C 
ATOM     30  C   UNL     1      34.759   1.594  16.836  0.00  0.00    +0.000 C 
ATOM     31  C   UNL     1      34.890   2.314  14.419  0.00  0.00    +0.000 C 
ATOM     32  C   UNL     1      36.170   2.168  17.022  0.00  0.00    +0.000 C 
ATOM     33  C   UNL     1      36.289   2.885  14.734  0.00  0.00    +0.000 C 
ATOM     34  C   UNL     1      36.374   2.700  18.436  0.00  0.00    +0.000 C 
BRANCH  29  35
ATOM     35  O   UNL     1      33.191   0.760  15.206  0.00  0.00    +0.000 OA
ATOM     36  H   UNL     1      33.007   0.173  15.970  0.00  0.00    +0.000 HD
ENDBRANCH  29  35
BRANCH  30  37
ATOM     37  O   UNL     1      34.547   0.457  17.681  0.00  0.00    +0.000 OA
ATOM     38  H   UNL     1      35.382  -0.053  17.639  0.00  0.00    +0.000 HD
ENDBRANCH  30  37
BRANCH  31  39
ATOM     39  O   UNL     1      33.852   3.307  14.554  0.00  0.00    +0.000 OA
ATOM     40  H   UNL     1      33.160   3.090  13.902  0.00  0.00    +0.000 HD
ENDBRANCH  31  39
ENDBRANCH  27  33
ENDBRANCH   5  27
BRANCH   3  41
ATOM     41  O   UNL     1      39.625   2.289   6.927  0.00  0.00    +0.000 OA
BRANCH  41  47
ATOM     42  O   UNL     1      41.277   0.735   7.600  0.00  0.00    +0.000 OA
ATOM     43  C   UNL     1      42.498   0.841   5.020  0.00  0.00    +0.000 C 
ATOM     44  C   UNL     1      43.214   0.227   6.226  0.00  0.00    +0.000 C 
ATOM     45  C   UNL     1      41.461   1.871   5.465  0.00  0.00    +0.000 C 
ATOM     46  C   UNL     1      42.175  -0.320   7.214  0.00  0.00    +0.000 C 
ATOM     47  C   UNL     1      40.516   1.237   6.503  0.00  0.00    +0.000 C 
BRANCH  44  48
ATOM     48  O   UNL     1      44.095  -0.802   5.771  0.00  0.00    +0.000 OA
ATOM     49  H   UNL     1      44.055  -1.497   6.461  0.00  0.00    +0.000 HD
ENDBRANCH  44  48
BRANCH  45  50
ATOM     50  O   UNL     1      40.754   2.337   4.304  0.00  0.00    +0.000 OA
ATOM     51  H   UNL     1      40.881   3.306   4.284  0.00  0.00    +0.000 HD
ENDBRANCH  45  50
BRANCH  43  52
ATOM     52  O   UNL     1      43.473   1.454   4.161  0.00  0.00    +0.000 OA
ATOM     53  H   UNL     1      42.952   1.945   3.493  0.00  0.00    +0.000 HD
ENDBRANCH  43  52
BRANCH  46  54
ATOM     54  C   UNL     1      42.848  -0.871   8.478  0.00  0.00    +0.000 C 
BRANCH  54  55
ATOM     55  O   UNL     1      44.085  -0.190   8.703  0.00  0.00    +0.000 OA
ATOM     56  H   UNL     1      44.025   0.663   8.240  0.00  0.00    +0.000 HD
ENDBRANCH  54  55
ENDBRANCH  46  54
ENDBRANCH  41  47
ENDBRANCH   3  41
TORSDOF 17
ENDMDL
MODEL 5
REMARK VINA RESULT:      -7.6      2.044      5.489
REMARK  Name = 
REMARK  21 active torsions:
REMARK  status: ('A' for Active; 'I' for Inactive)
REMARK    1  A    between atoms: O_3  and  C_22
REMARK    2  A    between atoms: O_3  and  C_28
REMARK    3  A    between atoms: O_4  and  C_25
REMARK    4  A    between atoms: O_4  and  C_30
REMARK    5  A    between atoms: O_5  and  C_16
REMARK    6  A    between atoms: O_6  and  C_17
REMARK    7  A    between atoms: O_7  and  C_18
REMARK    8  A    between atoms: O_8  and  C_20
REMARK    9  A    between atoms: O_9  and  C_21
REMARK   10  A    between atoms: O_10  and  C_23
REMARK   11  A    between atoms: O_11  and  C_26
REMARK   12  A    between atoms: O_13  and  C_36
REMARK   13  A    between atoms: O_15  and  C_45
REMARK   14  A    between atoms: O_15  and  C_48
REMARK   15  A    between atoms: C_19  and  C_26
REMARK   16  A    between atoms: C_24  and  C_27
REMARK   17  A    between atoms: C_29  and  C_37
REMARK   18  A    between atoms: C_35  and  C_38
REMARK   19  A    between atoms: C_37  and  C_39
REMARK   20  A    between atoms: C_42  and  C_46
REMARK   21  A    between atoms: C_42  and  C_47
REMARK                            x       y       z     vdW  Elec       q    Type
REMARK                         _______ _______ _______ _____ _____    ______ ____
ROOT
ATOM      1  O   UNL     1      39.437   3.252  10.355  0.00  0.00    +0.000 OA
ATOM      2  O   UNL     1      38.072   0.543   7.656  0.00  0.00    +0.000 OA
ATOM      3  C   UNL     1      37.077   1.438  12.482  0.00  0.00    +0.000 A 
ATOM      4  C   UNL     1      38.044   2.374  12.073  0.00  0.00    +0.000 A 
ATOM      5  C   UNL     1      39.481   2.409   8.090  0.00  0.00    +0.000 A 
ATOM      6  C   UNL     1      38.492   2.330  10.737  0.00  0.00    +0.000 A 
ATOM      7  C   UNL     1      37.994   1.376   9.849  0.00  0.00    +0.000 A 
ATOM      8  C   UNL     1      38.481   1.376   8.464  0.00  0.00    +0.000 A 
ATOM      9  C   UNL     1      36.609   0.456  11.603  0.00  0.00    +0.000 A 
ATOM     10  C   UNL     1      39.860   3.282   9.040  0.00  0.00    +0.000 A 
ATOM     11  C   UNL     1      37.056   0.437  10.287  0.00  0.00    +0.000 A 
ENDROOT
BRANCH  10  12
ATOM     12  C   UNL     1      40.826   4.359   8.775  0.00  0.00    +0.000 A 
ATOM     13  C   UNL     1      42.090   4.327   9.375  0.00  0.00    +0.000 A 
ATOM     14  C   UNL     1      40.503   5.434   7.937  0.00  0.00    +0.000 A 
ATOM     15  C   UNL     1      43.015   5.343   9.124  0.00  0.00    +0.000 A 
ATOM     16  C   UNL     1      41.432   6.449   7.685  0.00  0.00    +0.000 A 
ATOM     17  C   UNL     1      42.696   6.405   8.275  0.00  0.00    +0.000 A 
BRANCH  17  18
ATOM     18  O   UNL     1      43.692   7.326   8.111  0.00  0.00    +0.000 OA
ATOM     19  C   UNL     1      43.920   7.797   6.789  0.00  0.00    +0.000 C 
ENDBRANCH  17  18
ENDBRANCH  10  12
BRANCH  11  20
ATOM     20  O   UNL     1      36.539  -0.540   9.481  0.00  0.00    +0.000 OA
ATOM     21  H   UNL     1      35.678  -0.827   9.858  0.00  0.00    +0.000 HD
ENDBRANCH  11  20
BRANCH   4  22
ATOM     22  C   UNL     1      38.570   3.433  13.022  0.00  0.00    +0.000 C 
BRANCH  22  23
ATOM     23  C   UNL     1      39.822   2.993  13.735  0.00  0.00    +0.000 C 
ATOM     24  C   UNL     1      41.044   3.561  13.720  0.00  0.00    +0.000 C 
ATOM     25  C   UNL     1      41.423   4.804  12.963  0.00  0.00    +0.000 C 
ATOM     26  C   UNL     1      42.173   2.957  14.513  0.00  0.00    +0.000 C 
ENDBRANCH  22  23
ENDBRANCH   4  22
BRANCH   5  27
ATOM     27  O   UNL     1      39.919   2.485   6.781  0.00  0.00    +0.000 OA
BRANCH  27  33
ATOM     28  O   UNL     1      42.263   2.174   6.628  0.00  0.00    +0.000 OA
ATOM     29  C   UNL     1      41.025   2.046   4.026  0.00  0.00    +0.000 C 
ATOM     30  C   UNL     1      42.390   2.712   4.241  0.00  0.00    +0.000 C 
ATOM     31  C   UNL     1      40.762   0.974   5.083  0.00  0.00    +0.000 C 
ATOM     32  C   UNL     1      42.495   3.227   5.682  0.00  0.00    +0.000 C 
ATOM     33  C   UNL     1      40.974   1.557   6.497  0.00  0.00    +0.000 C 
ATOM     34  C   UNL     1      43.877   3.803   5.970  0.00  0.00    +0.000 C 
BRANCH  29  35
ATOM     35  O   UNL     1      41.010   1.460   2.711  0.00  0.00    +0.000 OA
ATOM     36  H   UNL     1      41.380   0.560   2.833  0.00  0.00    +0.000 HD
ENDBRANCH  29  35
BRANCH  30  37
ATOM     37  O   UNL     1      42.536   3.780   3.297  0.00  0.00    +0.000 OA
ATOM     38  H   UNL     1      41.663   4.222   3.272  0.00  0.00    +0.000 HD
ENDBRANCH  30  37
BRANCH  31  39
ATOM     39  O   UNL     1      41.648  -0.132   4.810  0.00  0.00    +0.000 OA
ATOM     40  H   UNL     1      41.658  -0.261   3.844  0.00  0.00    +0.000 HD
ENDBRANCH  31  39
ENDBRANCH  27  33
ENDBRANCH   5  27
BRANCH   3  41
ATOM     41  O   UNL     1      36.666   1.428  13.791  0.00  0.00    +0.000 OA
BRANCH  41  47
ATOM     42  O   UNL     1      35.271   0.230  15.280  0.00  0.00    +0.000 OA
ATOM     43  C   UNL     1      37.085  -1.977  15.281  0.00  0.00    +0.000 C 
ATOM     44  C   UNL     1      35.974  -1.847  16.326  0.00  0.00    +0.000 C 
ATOM     45  C   UNL     1      37.478  -0.609  14.727  0.00  0.00    +0.000 C 
ATOM     46  C   UNL     1      34.802  -1.053  15.731  0.00  0.00    +0.000 C 
ATOM     47  C   UNL     1      36.222   0.125  14.221  0.00  0.00    +0.000 C 
BRANCH  44  48
ATOM     48  O   UNL     1      35.564  -3.152  16.737  0.00  0.00    +0.000 OA
ATOM     49  H   UNL     1      36.387  -3.599  17.028  0.00  0.00    +0.000 HD
ENDBRANCH  44  48
BRANCH  45  50
ATOM     50  O   UNL     1      38.447  -0.802  13.683  0.00  0.00    +0.000 OA
ATOM     51  H   UNL     1      38.736  -1.733  13.755  0.00  0.00    +0.000 HD
ENDBRANCH  45  50
BRANCH  43  52
ATOM     52  O   UNL     1      38.221  -2.616  15.885  0.00  0.00    +0.000 OA
ATOM     53  H   UNL     1      38.661  -1.914  16.406  0.00  0.00    +0.000 HD
ENDBRANCH  43  52
BRANCH  46  54
ATOM     54  C   UNL     1      33.699  -0.828  16.774  0.00  0.00    +0.000 C 
BRANCH  54  55
ATOM     55  O   UNL     1      34.110   0.181  17.701  0.00  0.00    +0.000 OA
ATOM     56  H   UNL     1      34.006   1.036  17.251  0.00  0.00    +0.000 HD
ENDBRANCH  54  55
ENDBRANCH  46  54
ENDBRANCH  41  47
ENDBRANCH   3  41
TORSDOF 17
ENDMDL
MODEL 6
REMARK VINA RESULT:      -7.5      3.796      6.246
REMARK  Name = 
REMARK  21 active torsions:
REMARK  status: ('A' for Active; 'I' for Inactive)
REMARK    1  A    between atoms: O_3  and  C_22
REMARK    2  A    between atoms: O_3  and  C_28
REMARK    3  A    between atoms: O_4  and  C_25
REMARK    4  A    between atoms: O_4  and  C_30
REMARK    5  A    between atoms: O_5  and  C_16
REMARK    6  A    between atoms: O_6  and  C_17
REMARK    7  A    between atoms: O_7  and  C_18
REMARK    8  A    between atoms: O_8  and  C_20
REMARK    9  A    between atoms: O_9  and  C_21
REMARK   10  A    between atoms: O_10  and  C_23
REMARK   11  A    between atoms: O_11  and  C_26
REMARK   12  A    between atoms: O_13  and  C_36
REMARK   13  A    between atoms: O_15  and  C_45
REMARK   14  A    between atoms: O_15  and  C_48
REMARK   15  A    between atoms: C_19  and  C_26
REMARK   16  A    between atoms: C_24  and  C_27
REMARK   17  A    between atoms: C_29  and  C_37
REMARK   18  A    between atoms: C_35  and  C_38
REMARK   19  A    between atoms: C_37  and  C_39
REMARK   20  A    between atoms: C_42  and  C_46
REMARK   21  A    between atoms: C_42  and  C_47
REMARK                            x       y       z     vdW  Elec       q    Type
REMARK                         _______ _______ _______ _____ _____    ______ ____
ROOT
ATOM      1  O   UNL     1      40.531   2.265  11.764  0.00  0.00    +0.000 OA
ATOM      2  O   UNL     1      39.874  -1.110   9.606  0.00  0.00    +0.000 OA
ATOM      3  C   UNL     1      37.050   1.634  12.700  0.00  0.00    +0.000 A 
ATOM      4  C   UNL     1      38.316   2.244  12.634  0.00  0.00    +0.000 A 
ATOM      5  C   UNL     1      41.382   0.630  10.200  0.00  0.00    +0.000 A 
ATOM      6  C   UNL     1      39.300   1.655  11.815  0.00  0.00    +0.000 A 
ATOM      7  C   UNL     1      39.025   0.492  11.096  0.00  0.00    +0.000 A 
ATOM      8  C   UNL     1      40.078  -0.080  10.245  0.00  0.00    +0.000 A 
ATOM      9  C   UNL     1      36.789   0.446  12.011  0.00  0.00    +0.000 A 
ATOM     10  C   UNL     1      41.505   1.754  10.928  0.00  0.00    +0.000 A 
ATOM     11  C   UNL     1      37.770  -0.113  11.200  0.00  0.00    +0.000 A 
ENDROOT
BRANCH  10  12
ATOM     12  C   UNL     1      42.743   2.548  10.939  0.00  0.00    +0.000 A 
ATOM     13  C   UNL     1      43.565   2.543  12.072  0.00  0.00    +0.000 A 
ATOM     14  C   UNL     1      43.115   3.327   9.836  0.00  0.00    +0.000 A 
ATOM     15  C   UNL     1      44.744   3.291  12.089  0.00  0.00    +0.000 A 
ATOM     16  C   UNL     1      44.299   4.074   9.855  0.00  0.00    +0.000 A 
ATOM     17  C   UNL     1      45.122   4.054  10.982  0.00  0.00    +0.000 A 
BRANCH  17  18
ATOM     18  O   UNL     1      46.300   4.731  11.129  0.00  0.00    +0.000 OA
ATOM     19  C   UNL     1      46.319   6.087  10.700  0.00  0.00    +0.000 C 
ENDBRANCH  17  18
ENDBRANCH  10  12
BRANCH  11  20
ATOM     20  O   UNL     1      37.435  -1.266  10.543  0.00  0.00    +0.000 OA
ATOM     21  H   UNL     1      36.770  -1.748  11.083  0.00  0.00    +0.000 HD
ENDBRANCH  11  20
BRANCH   4  22
ATOM     22  C   UNL     1      38.616   3.525  13.389  0.00  0.00    +0.000 C 
BRANCH  22  23
ATOM     23  C   UNL     1      39.770   3.369  14.346  0.00  0.00    +0.000 C 
ATOM     24  C   UNL     1      40.918   4.073  14.403  0.00  0.00    +0.000 C 
ATOM     25  C   UNL     1      41.296   5.207  13.491  0.00  0.00    +0.000 C 
ATOM     26  C   UNL     1      41.953   3.756  15.451  0.00  0.00    +0.000 C 
ENDBRANCH  22  23
ENDBRANCH   4  22
BRANCH   5  27
ATOM     27  O   UNL     1      42.379   0.162   9.364  0.00  0.00    +0.000 OA
BRANCH  27  33
ATOM     28  O   UNL     1      44.506  -0.242  10.327  0.00  0.00    +0.000 OA
ATOM     29  C   UNL     1      44.195  -1.686   7.850  0.00  0.00    +0.000 C 
ATOM     30  C   UNL     1      45.528  -1.040   8.248  0.00  0.00    +0.000 C 
ATOM     31  C   UNL     1      43.362  -2.036   9.083  0.00  0.00    +0.000 C 
ATOM     32  C   UNL     1      45.269   0.151   9.178  0.00  0.00    +0.000 C 
ATOM     33  C   UNL     1      43.226  -0.803  10.001  0.00  0.00    +0.000 C 
ATOM     34  C   UNL     1      46.574   0.759   9.683  0.00  0.00    +0.000 C 
BRANCH  29  35
ATOM     35  O   UNL     1      44.477  -2.875   7.089  0.00  0.00    +0.000 OA
ATOM     36  H   UNL     1      45.422  -3.069   7.268  0.00  0.00    +0.000 HD
ENDBRANCH  29  35
BRANCH  30  37
ATOM     37  O   UNL     1      46.216  -0.631   7.060  0.00  0.00    +0.000 OA
ATOM     38  H   UNL     1      45.777  -1.115   6.330  0.00  0.00    +0.000 HD
ENDBRANCH  30  37
BRANCH  31  39
ATOM     39  O   UNL     1      44.010  -3.142   9.746  0.00  0.00    +0.000 OA
ATOM     40  H   UNL     1      43.572  -3.257  10.609  0.00  0.00    +0.000 HD
ENDBRANCH  31  39
ENDBRANCH  27  33
ENDBRANCH   5  27
BRANCH   3  41
ATOM     41  O   UNL     1      36.096   2.160  13.532  0.00  0.00    +0.000 OA
BRANCH  41  47
ATOM     42  O   UNL     1      34.809   0.519  14.650  0.00  0.00    +0.000 OA
ATOM     43  C   UNL     1      35.439   1.679  17.183  0.00  0.00    +0.000 C 
ATOM     44  C   UNL     1      34.308   0.659  17.023  0.00  0.00    +0.000 C 
ATOM     45  C   UNL     1      35.703   2.414  15.871  0.00  0.00    +0.000 C 
ATOM     46  C   UNL     1      34.620  -0.268  15.839  0.00  0.00    +0.000 C 
ATOM     47  C   UNL     1      35.934   1.391  14.743  0.00  0.00    +0.000 C 
BRANCH  44  48
ATOM     48  O   UNL     1      34.168  -0.077  18.239  0.00  0.00    +0.000 OA
ATOM     49  H   UNL     1      33.357  -0.615  18.121  0.00  0.00    +0.000 HD
ENDBRANCH  44  48
BRANCH  45  50
ATOM     50  O   UNL     1      36.835   3.281  16.054  0.00  0.00    +0.000 OA
ATOM     51  H   UNL     1      37.544   2.918  15.487  0.00  0.00    +0.000 HD
ENDBRANCH  45  50
BRANCH  43  52
ATOM     52  O   UNL     1      35.081   2.613  18.215  0.00  0.00    +0.000 OA
ATOM     53  H   UNL     1      35.905   2.759  18.723  0.00  0.00    +0.000 HD
ENDBRANCH  43  52
BRANCH  46  54
ATOM     54  C   UNL     1      33.471  -1.255  15.591  0.00  0.00    +0.000 C 
BRANCH  54  55
ATOM     55  O   UNL     1      32.360  -0.923  16.427  0.00  0.00    +0.000 OA
ATOM     56  H   UNL     1      31.864  -0.222  15.972  0.00  0.00    +0.000 HD
ENDBRANCH  54  55
ENDBRANCH  46  54
ENDBRANCH  41  47
ENDBRANCH   3  41
TORSDOF 17
ENDMDL
MODEL 7
REMARK VINA RESULT:      -7.5     20.758     24.034
REMARK  Name = 
REMARK  21 active torsions:
REMARK  status: ('A' for Active; 'I' for Inactive)
REMARK    1  A    between atoms: O_3  and  C_22
REMARK    2  A    between atoms: O_3  and  C_28
REMARK    3  A    between atoms: O_4  and  C_25
REMARK    4  A    between atoms: O_4  and  C_30
REMARK    5  A    between atoms: O_5  and  C_16
REMARK    6  A    between atoms: O_6  and  C_17
REMARK    7  A    between atoms: O_7  and  C_18
REMARK    8  A    between atoms: O_8  and  C_20
REMARK    9  A    between atoms: O_9  and  C_21
REMARK   10  A    between atoms: O_10  and  C_23
REMARK   11  A    between atoms: O_11  and  C_26
REMARK   12  A    between atoms: O_13  and  C_36
REMARK   13  A    between atoms: O_15  and  C_45
REMARK   14  A    between atoms: O_15  and  C_48
REMARK   15  A    between atoms: C_19  and  C_26
REMARK   16  A    between atoms: C_24  and  C_27
REMARK   17  A    between atoms: C_29  and  C_37
REMARK   18  A    between atoms: C_35  and  C_38
REMARK   19  A    between atoms: C_37  and  C_39
REMARK   20  A    between atoms: C_42  and  C_46
REMARK   21  A    between atoms: C_42  and  C_47
REMARK                            x       y       z     vdW  Elec       q    Type
REMARK                         _______ _______ _______ _____ _____    ______ ____
ROOT
ATOM      1  O   UNL     1      18.636  10.304  20.915  0.00  0.00    +0.000 OA
ATOM      2  O   UNL     1      20.876  11.199  17.649  0.00  0.00    +0.000 OA
ATOM      3  C   UNL     1      19.271   6.916  19.690  0.00  0.00    +0.000 A 
ATOM      4  C   UNL     1      18.794   7.968  20.492  0.00  0.00    +0.000 A 
ATOM      5  C   UNL     1      19.626  12.001  19.506  0.00  0.00    +0.000 A 
ATOM      6  C   UNL     1      19.112   9.290  20.119  0.00  0.00    +0.000 A 
ATOM      7  C   UNL     1      19.889   9.544  18.989  0.00  0.00    +0.000 A 
ATOM      8  C   UNL     1      20.185  10.938  18.632  0.00  0.00    +0.000 A 
ATOM      9  C   UNL     1      20.084   7.169  18.581  0.00  0.00    +0.000 A 
ATOM     10  C   UNL     1      18.875  11.616  20.553  0.00  0.00    +0.000 A 
ATOM     11  C   UNL     1      20.378   8.481  18.225  0.00  0.00    +0.000 A 
ENDROOT
BRANCH  10  12
ATOM     12  C   UNL     1      18.254  12.585  21.469  0.00  0.00    +0.000 A 
ATOM     13  C   UNL     1      18.733  12.714  22.778  0.00  0.00    +0.000 A 
ATOM     14  C   UNL     1      17.175  13.380  21.062  0.00  0.00    +0.000 A 
ATOM     15  C   UNL     1      18.151  13.634  23.653  0.00  0.00    +0.000 A 
ATOM     16  C   UNL     1      16.596  14.303  21.940  0.00  0.00    +0.000 A 
ATOM     17  C   UNL     1      17.086  14.438  23.239  0.00  0.00    +0.000 A 
BRANCH  17  18
ATOM     18  O   UNL     1      16.616  15.299  24.191  0.00  0.00    +0.000 OA
ATOM     19  C   UNL     1      17.587  15.987  24.970  0.00  0.00    +0.000 C 
ENDBRANCH  17  18
ENDBRANCH  10  12
BRANCH  11  20
ATOM     20  O   UNL     1      21.163   8.651  17.117  0.00  0.00    +0.000 OA
ATOM     21  H   UNL     1      21.995   8.144  17.247  0.00  0.00    +0.000 HD
ENDBRANCH  11  20
BRANCH   4  22
ATOM     22  C   UNL     1      17.924   7.704  21.706  0.00  0.00    +0.000 C 
BRANCH  22  23
ATOM     23  C   UNL     1      16.457   7.870  21.407  0.00  0.00    +0.000 C 
ATOM     24  C   UNL     1      15.592   8.775  21.906  0.00  0.00    +0.000 C 
ATOM     25  C   UNL     1      15.928   9.853  22.899  0.00  0.00    +0.000 C 
ATOM     26  C   UNL     1      14.150   8.770  21.470  0.00  0.00    +0.000 C 
ENDBRANCH  22  23
ENDBRANCH   4  22
BRANCH   5  27
ATOM     27  O   UNL     1      19.827  13.327  19.171  0.00  0.00    +0.000 OA
BRANCH  27  33
ATOM     28  O   UNL     1      20.437  14.860  20.871  0.00  0.00    +0.000 OA
ATOM     29  C   UNL     1      21.237  15.819  18.272  0.00  0.00    +0.000 C 
ATOM     30  C   UNL     1      20.698  16.765  19.352  0.00  0.00    +0.000 C 
ATOM     31  C   UNL     1      21.883  14.582  18.894  0.00  0.00    +0.000 C 
ATOM     32  C   UNL     1      19.771  15.994  20.300  0.00  0.00    +0.000 C 
ATOM     33  C   UNL     1      20.912  13.921  19.896  0.00  0.00    +0.000 C 
ATOM     34  C   UNL     1      19.295  16.873  21.453  0.00  0.00    +0.000 C 
BRANCH  29  35
ATOM     35  O   UNL     1      22.202  16.538  17.482  0.00  0.00    +0.000 OA
ATOM     36  H   UNL     1      21.671  17.016  16.810  0.00  0.00    +0.000 HD
ENDBRANCH  29  35
BRANCH  30  37
ATOM     37  O   UNL     1      20.006  17.846  18.716  0.00  0.00    +0.000 OA
ATOM     38  H   UNL     1      19.552  18.322  19.441  0.00  0.00    +0.000 HD
ENDBRANCH  30  37
BRANCH  31  39
ATOM     39  O   UNL     1      23.113  15.003  19.522  0.00  0.00    +0.000 OA
ATOM     40  H   UNL     1      22.907  15.791  20.058  0.00  0.00    +0.000 HD
ENDBRANCH  31  39
ENDBRANCH  27  33
ENDBRANCH   5  27
BRANCH   3  41
ATOM     41  O   UNL     1      19.019   5.621  20.064  0.00  0.00    +0.000 OA
BRANCH  41  47
ATOM     42  O   UNL     1      16.796   5.412  19.280  0.00  0.00    +0.000 OA
ATOM     43  C   UNL     1      17.227   2.662  18.640  0.00  0.00    +0.000 C 
ATOM     44  C   UNL     1      15.821   3.263  18.706  0.00  0.00    +0.000 C 
ATOM     45  C   UNL     1      18.200   3.449  19.516  0.00  0.00    +0.000 C 
ATOM     46  C   UNL     1      15.888   4.760  18.374  0.00  0.00    +0.000 C 
ATOM     47  C   UNL     1      18.137   4.943  19.145  0.00  0.00    +0.000 C 
BRANCH  44  48
ATOM     48  O   UNL     1      14.971   2.564  17.793  0.00  0.00    +0.000 OA
ATOM     49  H   UNL     1      14.082   2.954  17.922  0.00  0.00    +0.000 HD
ENDBRANCH  44  48
BRANCH  45  50
ATOM     50  O   UNL     1      19.518   2.904  19.336  0.00  0.00    +0.000 OA
ATOM     51  H   UNL     1      19.419   2.171  18.696  0.00  0.00    +0.000 HD
ENDBRANCH  45  50
BRANCH  43  52
ATOM     52  O   UNL     1      17.169   1.291  19.067  0.00  0.00    +0.000 OA
ATOM     53  H   UNL     1      16.330   1.215  19.566  0.00  0.00    +0.000 HD
ENDBRANCH  43  52
BRANCH  46  54
ATOM     54  C   UNL     1      14.510   5.421  18.509  0.00  0.00    +0.000 C 
BRANCH  54  55
ATOM     55  O   UNL     1      13.792   5.296  17.279  0.00  0.00    +0.000 OA
ATOM     56  H   UNL     1      13.532   6.194  17.012  0.00  0.00    +0.000 HD
ENDBRANCH  54  55
ENDBRANCH  46  54
ENDBRANCH  41  47
ENDBRANCH   3  41
TORSDOF 17
ENDMDL
MODEL 8
REMARK VINA RESULT:      -7.3      5.281      8.519
REMARK  Name = 
REMARK  21 active torsions:
REMARK  status: ('A' for Active; 'I' for Inactive)
REMARK    1  A    between atoms: O_3  and  C_22
REMARK    2  A    between atoms: O_3  and  C_28
REMARK    3  A    between atoms: O_4  and  C_25
REMARK    4  A    between atoms: O_4  and  C_30
REMARK    5  A    between atoms: O_5  and  C_16
REMARK    6  A    between atoms: O_6  and  C_17
REMARK    7  A    between atoms: O_7  and  C_18
REMARK    8  A    between atoms: O_8  and  C_20
REMARK    9  A    between atoms: O_9  and  C_21
REMARK   10  A    between atoms: O_10  and  C_23
REMARK   11  A    between atoms: O_11  and  C_26
REMARK   12  A    between atoms: O_13  and  C_36
REMARK   13  A    between atoms: O_15  and  C_45
REMARK   14  A    between atoms: O_15  and  C_48
REMARK   15  A    between atoms: C_19  and  C_26
REMARK   16  A    between atoms: C_24  and  C_27
REMARK   17  A    between atoms: C_29  and  C_37
REMARK   18  A    between atoms: C_35  and  C_38
REMARK   19  A    between atoms: C_37  and  C_39
REMARK   20  A    between atoms: C_42  and  C_46
REMARK   21  A    between atoms: C_42  and  C_47
REMARK                            x       y       z     vdW  Elec       q    Type
REMARK                         _______ _______ _______ _____ _____    ______ ____
ROOT
ATOM      1  O   UNL     1      40.451   0.745  11.942  0.00  0.00    +0.000 OA
ATOM      2  O   UNL     1      43.400   3.358  12.919  0.00  0.00    +0.000 OA
ATOM      3  C   UNL     1      43.293  -0.975  10.409  0.00  0.00    +0.000 A 
ATOM      4  C   UNL     1      41.977  -0.694  10.819  0.00  0.00    +0.000 A 
ATOM      5  C   UNL     1      41.084   2.828  12.992  0.00  0.00    +0.000 A 
ATOM      6  C   UNL     1      41.742   0.489  11.549  0.00  0.00    +0.000 A 
ATOM      7  C   UNL     1      42.792   1.353  11.863  0.00  0.00    +0.000 A 
ATOM      8  C   UNL     1      42.498   2.579  12.615  0.00  0.00    +0.000 A 
ATOM      9  C   UNL     1      44.351  -0.129  10.760  0.00  0.00    +0.000 A 
ATOM     10  C   UNL     1      40.167   1.923  12.607  0.00  0.00    +0.000 A 
ATOM     11  C   UNL     1      44.096   1.037  11.472  0.00  0.00    +0.000 A 
ENDROOT
BRANCH  10  12
ATOM     12  C   UNL     1      38.736   2.080  12.906  0.00  0.00    +0.000 A 
ATOM     13  C   UNL     1      37.843   2.429  11.886  0.00  0.00    +0.000 A 
ATOM     14  C   UNL     1      38.242   1.900  14.204  0.00  0.00    +0.000 A 
ATOM     15  C   UNL     1      36.482   2.576  12.161  0.00  0.00    +0.000 A 
ATOM     16  C   UNL     1      36.877   2.045  14.477  0.00  0.00    +0.000 A 
ATOM     17  C   UNL     1      35.989   2.379  13.453  0.00  0.00    +0.000 A 
BRANCH  17  18
ATOM     18  O   UNL     1      34.639   2.548  13.583  0.00  0.00    +0.000 OA
ATOM     19  C   UNL     1      34.078   2.275  14.860  0.00  0.00    +0.000 C 
ENDBRANCH  17  18
ENDBRANCH  10  12
BRANCH  11  20
ATOM     20  O   UNL     1      45.178   1.824  11.761  0.00  0.00    +0.000 OA
ATOM     21  H   UNL     1      45.485   2.245  10.928  0.00  0.00    +0.000 HD
ENDBRANCH  11  20
BRANCH   4  22
ATOM     22  C   UNL     1      40.825  -1.611  10.458  0.00  0.00    +0.000 C 
BRANCH  22  23
ATOM     23  C   UNL     1      40.080  -1.142   9.235  0.00  0.00    +0.000 C 
ATOM     24  C   UNL     1      38.778  -0.814   9.116  0.00  0.00    +0.000 C 
ATOM     25  C   UNL     1      37.762  -0.845  10.224  0.00  0.00    +0.000 C 
ATOM     26  C   UNL     1      38.227  -0.362   7.789  0.00  0.00    +0.000 C 
ENDBRANCH  22  23
ENDBRANCH   4  22
BRANCH   5  27
ATOM     27  O   UNL     1      40.753   4.002  13.645  0.00  0.00    +0.000 OA
BRANCH  27  33
ATOM     28  O   UNL     1      40.373   3.955  15.983  0.00  0.00    +0.000 OA
ATOM     29  C   UNL     1      41.110   6.601  15.102  0.00  0.00    +0.000 C 
ATOM     30  C   UNL     1      40.054   6.376  16.191  0.00  0.00    +0.000 C 
ATOM     31  C   UNL     1      42.105   5.441  15.051  0.00  0.00    +0.000 C 
ATOM     32  C   UNL     1      39.395   5.004  15.999  0.00  0.00    +0.000 C 
ATOM     33  C   UNL     1      41.352   4.098  14.944  0.00  0.00    +0.000 C 
ATOM     34  C   UNL     1      38.411   4.695  17.123  0.00  0.00    +0.000 C 
BRANCH  29  35
ATOM     35  O   UNL     1      41.799   7.832  15.388  0.00  0.00    +0.000 OA
ATOM     36  H   UNL     1      41.118   8.530  15.284  0.00  0.00    +0.000 HD
ENDBRANCH  29  35
BRANCH  30  37
ATOM     37  O   UNL     1      39.087   7.430  16.121  0.00  0.00    +0.000 OA
ATOM     38  H   UNL     1      39.418   8.123  16.727  0.00  0.00    +0.000 HD
ENDBRANCH  30  37
BRANCH  31  39
ATOM     39  O   UNL     1      42.922   5.516  16.239  0.00  0.00    +0.000 OA
ATOM     40  H   UNL     1      42.789   4.686  16.733  0.00  0.00    +0.000 HD
ENDBRANCH  31  39
ENDBRANCH  27  33
ENDBRANCH   5  27
BRANCH   3  41
ATOM     41  O   UNL     1      43.552  -2.146   9.745  0.00  0.00    +0.000 OA
BRANCH  41  47
ATOM     42  O   UNL     1      45.437  -3.421   9.095  0.00  0.00    +0.000 OA
ATOM     43  C   UNL     1      45.615  -4.577  11.701  0.00  0.00    +0.000 C 
ATOM     44  C   UNL     1      46.372  -5.163  10.506  0.00  0.00    +0.000 C 
ATOM     45  C   UNL     1      44.377  -3.809  11.242  0.00  0.00    +0.000 C 
ATOM     46  C   UNL     1      46.668  -4.050   9.492  0.00  0.00    +0.000 C 
ATOM     47  C   UNL     1      44.779  -2.768  10.180  0.00  0.00    +0.000 C 
BRANCH  44  48
ATOM     48  O   UNL     1      47.574  -5.779  10.971  0.00  0.00    +0.000 OA
ATOM     49  H   UNL     1      48.290  -5.155  10.732  0.00  0.00    +0.000 HD
ENDBRANCH  44  48
BRANCH  45  50
ATOM     50  O   UNL     1      43.767  -3.199  12.391  0.00  0.00    +0.000 OA
ATOM     51  H   UNL     1      43.077  -2.600  12.042  0.00  0.00    +0.000 HD
ENDBRANCH  45  50
BRANCH  43  52
ATOM     52  O   UNL     1      45.239  -5.646  12.585  0.00  0.00    +0.000 OA
ATOM     53  H   UNL     1      46.022  -6.232  12.622  0.00  0.00    +0.000 HD
ENDBRANCH  43  52
BRANCH  46  54
ATOM     54  C   UNL     1      47.354  -4.610   8.239  0.00  0.00    +0.000 C 
BRANCH  54  55
ATOM     55  O   UNL     1      47.153  -6.023   8.169  0.00  0.00    +0.000 OA
ATOM     56  H   UNL     1      47.548  -6.404   8.971  0.00  0.00    +0.000 HD
ENDBRANCH  54  55
ENDBRANCH  46  54
ENDBRANCH  41  47
ENDBRANCH   3  41
TORSDOF 17
ENDMDL
MODEL 9
REMARK VINA RESULT:      -7.3      1.372      2.248
REMARK  Name = 
REMARK  21 active torsions:
REMARK  status: ('A' for Active; 'I' for Inactive)
REMARK    1  A    between atoms: O_3  and  C_22
REMARK    2  A    between atoms: O_3  and  C_28
REMARK    3  A    between atoms: O_4  and  C_25
REMARK    4  A    between atoms: O_4  and  C_30
REMARK    5  A    between atoms: O_5  and  C_16
REMARK    6  A    between atoms: O_6  and  C_17
REMARK    7  A    between atoms: O_7  and  C_18
REMARK    8  A    between atoms: O_8  and  C_20
REMARK    9  A    between atoms: O_9  and  C_21
REMARK   10  A    between atoms: O_10  and  C_23
REMARK   11  A    between atoms: O_11  and  C_26
REMARK   12  A    between atoms: O_13  and  C_36
REMARK   13  A    between atoms: O_15  and  C_45
REMARK   14  A    between atoms: O_15  and  C_48
REMARK   15  A    between atoms: C_19  and  C_26
REMARK   16  A    between atoms: C_24  and  C_27
REMARK   17  A    between atoms: C_29  and  C_37
REMARK   18  A    between atoms: C_35  and  C_38
REMARK   19  A    between atoms: C_37  and  C_39
REMARK   20  A    between atoms: C_42  and  C_46
REMARK   21  A    between atoms: C_42  and  C_47
REMARK                            x       y       z     vdW  Elec       q    Type
REMARK                         _______ _______ _______ _____ _____    ______ ____
ROOT
ATOM      1  O   UNL     1      38.715   4.173  11.027  0.00  0.00    +0.000 OA
ATOM      2  O   UNL     1      41.112   5.876  13.827  0.00  0.00    +0.000 OA
ATOM      3  C   UNL     1      37.012   3.008  14.048  0.00  0.00    +0.000 A 
ATOM      4  C   UNL     1      37.312   3.207  12.689  0.00  0.00    +0.000 A 
ATOM      5  C   UNL     1      40.675   5.499  11.520  0.00  0.00    +0.000 A 
ATOM      6  C   UNL     1      38.439   3.989  12.360  0.00  0.00    +0.000 A 
ATOM      7  C   UNL     1      39.228   4.556  13.361  0.00  0.00    +0.000 A 
ATOM      8  C   UNL     1      40.399   5.352  12.972  0.00  0.00    +0.000 A 
ATOM      9  C   UNL     1      37.780   3.611  15.049  0.00  0.00    +0.000 A 
ATOM     10  C   UNL     1      39.844   4.882  10.662  0.00  0.00    +0.000 A 
ATOM     11  C   UNL     1      38.893   4.369  14.704  0.00  0.00    +0.000 A 
ENDROOT
BRANCH  10  12
ATOM     12  C   UNL     1      40.036   4.941   9.205  0.00  0.00    +0.000 A 
ATOM     13  C   UNL     1      40.422   3.794   8.504  0.00  0.00    +0.000 A 
ATOM     14  C   UNL     1      39.851   6.136   8.497  0.00  0.00    +0.000 A 
ATOM     15  C   UNL     1      40.602   3.841   7.120  0.00  0.00    +0.000 A 
ATOM     16  C   UNL     1      40.029   6.180   7.110  0.00  0.00    +0.000 A 
ATOM     17  C   UNL     1      40.400   5.029   6.414  0.00  0.00    +0.000 A 
BRANCH  17  18
ATOM     18  O   UNL     1      40.604   4.935   5.066  0.00  0.00    +0.000 OA
ATOM     19  C   UNL     1      39.465   4.654   4.263  0.00  0.00    +0.000 C 
ENDBRANCH  17  18
ENDBRANCH  10  12
BRANCH  11  20
ATOM     20  O   UNL     1      39.606   4.911  15.739  0.00  0.00    +0.000 OA
ATOM     21  H   UNL     1      39.287   4.510  16.578  0.00  0.00    +0.000 HD
ENDBRANCH  11  20
BRANCH   4  22
ATOM     22  C   UNL     1      36.477   2.572  11.594  0.00  0.00    +0.000 C 
BRANCH  22  23
ATOM     23  C   UNL     1      37.325   1.958  10.510  0.00  0.00    +0.000 C 
ATOM     24  C   UNL     1      37.963   0.771  10.510  0.00  0.00    +0.000 C 
ATOM     25  C   UNL     1      37.956  -0.227  11.635  0.00  0.00    +0.000 C 
ATOM     26  C   UNL     1      38.766   0.339   9.310  0.00  0.00    +0.000 C 
ENDBRANCH  22  23
ENDBRANCH   4  22
BRANCH   5  27
ATOM     27  O   UNL     1      41.803   6.188  11.111  0.00  0.00    +0.000 OA
BRANCH  27  33
ATOM     28  O   UNL     1      43.742   5.154  11.998  0.00  0.00    +0.000 OA
ATOM     29  C   UNL     1      44.434   7.165  10.050  0.00  0.00    +0.000 C 
ATOM     30  C   UNL     1      45.264   6.951  11.321  0.00  0.00    +0.000 C 
ATOM     31  C   UNL     1      43.707   5.883   9.643  0.00  0.00    +0.000 C 
ATOM     32  C   UNL     1      44.377   6.366  12.427  0.00  0.00    +0.000 C 
ATOM     33  C   UNL     1      42.911   5.320  10.840  0.00  0.00    +0.000 C 
ATOM     34  C   UNL     1      45.187   6.039  13.678  0.00  0.00    +0.000 C 
BRANCH  29  35
ATOM     35  O   UNL     1      45.320   7.587   8.996  0.00  0.00    +0.000 OA
ATOM     36  H   UNL     1      44.776   7.551   8.181  0.00  0.00    +0.000 HD
ENDBRANCH  29  35
BRANCH  30  37
ATOM     37  O   UNL     1      45.830   8.205  11.720  0.00  0.00    +0.000 OA
ATOM     38  H   UNL     1      46.555   8.373  11.083  0.00  0.00    +0.000 HD
ENDBRANCH  30  37
BRANCH  31  39
ATOM     39  O   UNL     1      44.701   4.953   9.163  0.00  0.00    +0.000 OA
ATOM     40  H   UNL     1      44.255   4.352   8.538  0.00  0.00    +0.000 HD
ENDBRANCH  31  39
ENDBRANCH  27  33
ENDBRANCH   5  27
BRANCH   3  41
ATOM     41  O   UNL     1      35.890   2.296  14.389  0.00  0.00    +0.000 OA
BRANCH  41  47
ATOM     42  O   UNL     1      36.550   0.057  14.774  0.00  0.00    +0.000 OA
ATOM     43  C   UNL     1      35.011  -0.035  17.178  0.00  0.00    +0.000 C 
ATOM     44  C   UNL     1      35.551  -1.306  16.519  0.00  0.00    +0.000 C 
ATOM     45  C   UNL     1      34.839   1.084  16.153  0.00  0.00    +0.000 C 
ATOM     46  C   UNL     1      36.830  -0.973  15.738  0.00  0.00    +0.000 C 
ATOM     47  C   UNL     1      36.158   1.286  15.384  0.00  0.00    +0.000 C 
BRANCH  44  48
ATOM     48  O   UNL     1      35.796  -2.288  17.528  0.00  0.00    +0.000 OA
ATOM     49  H   UNL     1      36.770  -2.312  17.630  0.00  0.00    +0.000 HD
ENDBRANCH  44  48
BRANCH  45  50
ATOM     50  O   UNL     1      34.428   2.275  16.843  0.00  0.00    +0.000 OA
ATOM     51  H   UNL     1      33.496   2.425  16.587  0.00  0.00    +0.000 HD
ENDBRANCH  45  50
BRANCH  43  52
ATOM     52  O   UNL     1      33.753  -0.334  17.806  0.00  0.00    +0.000 OA
ATOM     53  H   UNL     1      33.280  -0.906  17.168  0.00  0.00    +0.000 HD
ENDBRANCH  43  52
BRANCH  46  54
ATOM     54  C   UNL     1      37.360  -2.205  14.992  0.00  0.00    +0.000 C 
BRANCH  54  55
ATOM     55  O   UNL     1      38.190  -2.977  15.863  0.00  0.00    +0.000 OA
ATOM     56  H   UNL     1      37.599  -3.434  16.484  0.00  0.00    +0.000 HD
ENDBRANCH  54  55
ENDBRANCH  46  54
ENDBRANCH  41  47
ENDBRANCH   3  41
TORSDOF 17
ENDMDL
