MODEL 1
REMARK VINA RESULT:      -7.0      0.000      0.000
REMARK  Name = 
REMARK  6 active torsions:
REMARK  status: ('A' for Active; 'I' for Inactive)
REMARK    1  A    between atoms: O_3  and  C_16
REMARK    2  A    between atoms: O_4  and  C_17
REMARK    3  A    between atoms: O_4  and  C_22
REMARK    4  A    between atoms: O_5  and  C_19
REMARK    5  A    between atoms: O_5  and  C_23
REMARK    6  A    between atoms: O_6  and  C_21
REMARK                            x       y       z     vdW  Elec       q    Type
REMARK                         _______ _______ _______ _____ _____    ______ ____
ROOT
ATOM      1  O   UNL     1      21.816  10.298  15.369  0.00  0.00    +0.000 OA
ATOM      2  O   UNL     1      20.002  11.412  18.694  0.00  0.00    +0.000 OA
ATOM      3  C   UNL     1      21.746  12.013  17.071  0.00  0.00    +0.000 C 
ATOM      4  C   UNL     1      22.015  10.531  16.786  0.00  0.00    +0.000 C 
ATOM      5  C   UNL     1      20.876  12.336  15.905  0.00  0.00    +0.000 A 
ATOM      6  C   UNL     1      21.161  12.209  18.454  0.00  0.00    +0.000 C 
ATOM      7  C   UNL     1      21.147   9.585  17.588  0.00  0.00    +0.000 A 
ATOM      8  C   UNL     1      20.999  11.325  14.964  0.00  0.00    +0.000 A 
ATOM      9  C   UNL     1      20.179  10.070  18.484  0.00  0.00    +0.000 A 
ATOM     10  C   UNL     1      20.091  13.449  15.652  0.00  0.00    +0.000 A 
ATOM     11  C   UNL     1      21.312   8.197  17.427  0.00  0.00    +0.000 A 
ATOM     12  C   UNL     1      20.350  11.398  13.749  0.00  0.00    +0.000 A 
ATOM     13  C   UNL     1      19.352   9.169  19.170  0.00  0.00    +0.000 A 
ATOM     14  C   UNL     1      19.415  13.529  14.426  0.00  0.00    +0.000 A 
ATOM     15  C   UNL     1      19.541  12.507  13.470  0.00  0.00    +0.000 A 
ATOM     16  C   UNL     1      20.529   7.302  18.150  0.00  0.00    +0.000 A 
ATOM     17  C   UNL     1      19.565   7.794  19.016  0.00  0.00    +0.000 A 
ENDROOT
BRANCH  12  18
ATOM     18  O   UNL     1      20.490  10.397  12.828  0.00  0.00    +0.000 OA
ATOM     19  H   UNL     1      21.051   9.729  13.263  0.00  0.00    +0.000 HD
ENDBRANCH  12  18
BRANCH  13  20
ATOM     20  O   UNL     1      18.358   9.500  20.061  0.00  0.00    +0.000 OA
ATOM     21  C   UNL     1      17.101   9.800  19.458  0.00  0.00    +0.000 C 
ENDBRANCH  13  20
BRANCH  15  22
ATOM     22  O   UNL     1      18.934  12.481  12.238  0.00  0.00    +0.000 OA
ATOM     23  C   UNL     1      19.076  13.644  11.430  0.00  0.00    +0.000 C 
ENDBRANCH  15  22
BRANCH  17  24
ATOM     24  O   UNL     1      18.804   6.897  19.717  0.00  0.00    +0.000 OA
ATOM     25  H   UNL     1      17.963   7.362  19.888  0.00  0.00    +0.000 HD
ENDBRANCH  17  24
TORSDOF 4
ENDMDL
MODEL 2
REMARK VINA RESULT:      -6.4      1.158      6.317
REMARK  Name = 
REMARK  6 active torsions:
REMARK  status: ('A' for Active; 'I' for Inactive)
REMARK    1  A    between atoms: O_3  and  C_16
REMARK    2  A    between atoms: O_4  and  C_17
REMARK    3  A    between atoms: O_4  and  C_22
REMARK    4  A    between atoms: O_5  and  C_19
REMARK    5  A    between atoms: O_5  and  C_23
REMARK    6  A    between atoms: O_6  and  C_21
REMARK                            x       y       z     vdW  Elec       q    Type
REMARK                         _______ _______ _______ _____ _____    ______ ____
ROOT
ATOM      1  O   UNL     1      21.169  11.395  18.594  0.00  0.00    +0.000 OA
ATOM      2  O   UNL     1      21.471  10.603  14.739  0.00  0.00    +0.000 OA
ATOM      3  C   UNL     1      22.547  10.315  16.928  0.00  0.00    +0.000 C 
ATOM      4  C   UNL     1      21.964  11.648  17.408  0.00  0.00    +0.000 C 
ATOM      5  C   UNL     1      21.568   9.378  17.546  0.00  0.00    +0.000 A 
ATOM      6  C   UNL     1      22.684  10.287  15.420  0.00  0.00    +0.000 C 
ATOM      7  C   UNL     1      21.124  12.360  16.370  0.00  0.00    +0.000 A 
ATOM      8  C   UNL     1      20.844  10.063  18.511  0.00  0.00    +0.000 A 
ATOM      9  C   UNL     1      20.906  11.797  15.101  0.00  0.00    +0.000 A 
ATOM     10  C   UNL     1      21.365   8.024  17.337  0.00  0.00    +0.000 A 
ATOM     11  C   UNL     1      20.547  13.603  16.687  0.00  0.00    +0.000 A 
ATOM     12  C   UNL     1      19.906   9.419  19.291  0.00  0.00    +0.000 A 
ATOM     13  C   UNL     1      20.077  12.454  14.180  0.00  0.00    +0.000 A 
ATOM     14  C   UNL     1      20.405   7.361  18.113  0.00  0.00    +0.000 A 
ATOM     15  C   UNL     1      19.673   8.052  19.093  0.00  0.00    +0.000 A 
ATOM     16  C   UNL     1      19.768  14.282  15.753  0.00  0.00    +0.000 A 
ATOM     17  C   UNL     1      19.547  13.706  14.512  0.00  0.00    +0.000 A 
ENDROOT
BRANCH  12  18
ATOM     18  O   UNL     1      19.208  10.108  20.244  0.00  0.00    +0.000 OA
ATOM     19  H   UNL     1      19.861  10.702  20.657  0.00  0.00    +0.000 HD
ENDBRANCH  12  18
BRANCH  13  20
ATOM     20  O   UNL     1      19.766  12.015  12.915  0.00  0.00    +0.000 OA
ATOM     21  C   UNL     1      18.488  11.392  12.804  0.00  0.00    +0.000 C 
ENDBRANCH  13  20
BRANCH  15  22
ATOM     22  O   UNL     1      18.716   7.507  19.915  0.00  0.00    +0.000 OA
ATOM     23  C   UNL     1      18.388   6.140  19.695  0.00  0.00    +0.000 C 
ENDBRANCH  15  22
BRANCH  17  24
ATOM     24  O   UNL     1      18.778  14.389  13.608  0.00  0.00    +0.000 OA
ATOM     25  H   UNL     1      18.870  13.891  12.774  0.00  0.00    +0.000 HD
ENDBRANCH  17  24
TORSDOF 4
ENDMDL
MODEL 3
REMARK VINA RESULT:      -6.1     22.544     26.549
REMARK  Name = 
REMARK  6 active torsions:
REMARK  status: ('A' for Active; 'I' for Inactive)
REMARK    1  A    between atoms: O_3  and  C_16
REMARK    2  A    between atoms: O_4  and  C_17
REMARK    3  A    between atoms: O_4  and  C_22
REMARK    4  A    between atoms: O_5  and  C_19
REMARK    5  A    between atoms: O_5  and  C_23
REMARK    6  A    between atoms: O_6  and  C_21
REMARK                            x       y       z     vdW  Elec       q    Type
REMARK                         _______ _______ _______ _____ _____    ______ ____
ROOT
ATOM      1  O   UNL     1      24.351 -13.892  24.972  0.00  0.00    +0.000 OA
ATOM      2  O   UNL     1      22.674 -16.310  22.339  0.00  0.00    +0.000 OA
ATOM      3  C   UNL     1      22.654 -15.589  24.688  0.00  0.00    +0.000 C 
ATOM      4  C   UNL     1      24.155 -15.287  24.626  0.00  0.00    +0.000 C 
ATOM      5  C   UNL     1      22.114 -14.213  24.503  0.00  0.00    +0.000 A 
ATOM      6  C   UNL     1      22.261 -16.635  23.666  0.00  0.00    +0.000 C 
ATOM      7  C   UNL     1      24.783 -15.574  23.279  0.00  0.00    +0.000 A 
ATOM      8  C   UNL     1      23.138 -13.302  24.716  0.00  0.00    +0.000 A 
ATOM      9  C   UNL     1      24.013 -16.052  22.205  0.00  0.00    +0.000 A 
ATOM     10  C   UNL     1      20.825 -13.782  24.237  0.00  0.00    +0.000 A 
ATOM     11  C   UNL     1      26.161 -15.352  23.101  0.00  0.00    +0.000 A 
ATOM     12  C   UNL     1      22.904 -11.943  24.674  0.00  0.00    +0.000 A 
ATOM     13  C   UNL     1      24.613 -16.255  20.954  0.00  0.00    +0.000 A 
ATOM     14  C   UNL     1      20.577 -12.403  24.177  0.00  0.00    +0.000 A 
ATOM     15  C   UNL     1      21.612 -11.478  24.396  0.00  0.00    +0.000 A 
ATOM     16  C   UNL     1      26.768 -15.606  21.875  0.00  0.00    +0.000 A 
ATOM     17  C   UNL     1      25.992 -16.059  20.819  0.00  0.00    +0.000 A 
ENDROOT
BRANCH  12  18
ATOM     18  O   UNL     1      23.923 -11.058  24.895  0.00  0.00    +0.000 OA
ATOM     19  H   UNL     1      23.558 -10.403  25.518  0.00  0.00    +0.000 HD
ENDBRANCH  12  18
BRANCH  13  20
ATOM     20  O   UNL     1      23.983 -16.703  19.817  0.00  0.00    +0.000 OA
ATOM     21  C   UNL     1      23.329 -15.683  19.064  0.00  0.00    +0.000 C 
ENDBRANCH  13  20
BRANCH  15  22
ATOM     22  O   UNL     1      21.485 -10.111  24.370  0.00  0.00    +0.000 OA
ATOM     23  C   UNL     1      20.459  -9.547  25.179  0.00  0.00    +0.000 C 
ENDBRANCH  15  22
BRANCH  17  24
ATOM     24  O   UNL     1      26.608 -16.302  19.620  0.00  0.00    +0.000 OA
ATOM     25  H   UNL     1      27.415 -16.801  19.851  0.00  0.00    +0.000 HD
ENDBRANCH  17  24
TORSDOF 4
ENDMDL
MODEL 4
REMARK VINA RESULT:      -6.0     35.936     38.003
REMARK  Name = 
REMARK  6 active torsions:
REMARK  status: ('A' for Active; 'I' for Inactive)
REMARK    1  A    between atoms: O_3  and  C_16
REMARK    2  A    between atoms: O_4  and  C_17
REMARK    3  A    between atoms: O_4  and  C_22
REMARK    4  A    between atoms: O_5  and  C_19
REMARK    5  A    between atoms: O_5  and  C_23
REMARK    6  A    between atoms: O_6  and  C_21
REMARK                            x       y       z     vdW  Elec       q    Type
REMARK                         _______ _______ _______ _____ _____    ______ ____
ROOT
ATOM      1  O   UNL     1      39.186 -14.153  -2.657  0.00  0.00    +0.000 OA
ATOM      2  O   UNL     1      41.805 -16.891  -1.547  0.00  0.00    +0.000 OA
ATOM      3  C   UNL     1      41.487 -14.497  -2.000  0.00  0.00    +0.000 C 
ATOM      4  C   UNL     1      40.414 -14.820  -3.045  0.00  0.00    +0.000 C 
ATOM      5  C   UNL     1      40.613 -14.157  -0.842  0.00  0.00    +0.000 A 
ATOM      6  C   UNL     1      42.452 -15.651  -1.829  0.00  0.00    +0.000 C 
ATOM      7  C   UNL     1      40.157 -16.301  -3.223  0.00  0.00    +0.000 A 
ATOM      8  C   UNL     1      39.323 -13.941  -1.307  0.00  0.00    +0.000 A 
ATOM      9  C   UNL     1      40.849 -17.256  -2.458  0.00  0.00    +0.000 A 
ATOM     10  C   UNL     1      40.922 -13.983   0.496  0.00  0.00    +0.000 A 
ATOM     11  C   UNL     1      39.205 -16.726  -4.167  0.00  0.00    +0.000 A 
ATOM     12  C   UNL     1      38.314 -13.545  -0.454  0.00  0.00    +0.000 A 
ATOM     13  C   UNL     1      40.549 -18.618  -2.605  0.00  0.00    +0.000 A 
ATOM     14  C   UNL     1      39.902 -13.593   1.376  0.00  0.00    +0.000 A 
ATOM     15  C   UNL     1      38.596 -13.371   0.907  0.00  0.00    +0.000 A 
ATOM     16  C   UNL     1      38.946 -18.081  -4.353  0.00  0.00    +0.000 A 
ATOM     17  C   UNL     1      39.622 -19.010  -3.578  0.00  0.00    +0.000 A 
ENDROOT
BRANCH  12  18
ATOM     18  O   UNL     1      37.051 -13.328  -0.930  0.00  0.00    +0.000 OA
ATOM     19  H   UNL     1      37.159 -13.207  -1.891  0.00  0.00    +0.000 HD
ENDBRANCH  12  18
BRANCH  13  20
ATOM     20  O   UNL     1      41.133 -19.655  -1.917  0.00  0.00    +0.000 OA
ATOM     21  C   UNL     1      42.430 -20.017  -2.386  0.00  0.00    +0.000 C 
ENDBRANCH  13  20
BRANCH  15  22
ATOM     22  O   UNL     1      37.524 -12.982   1.672  0.00  0.00    +0.000 OA
ATOM     23  C   UNL     1      37.602 -13.251   3.068  0.00  0.00    +0.000 C 
ENDBRANCH  15  22
BRANCH  17  24
ATOM     24  O   UNL     1      39.353 -20.338  -3.776  0.00  0.00    +0.000 OA
ATOM     25  H   UNL     1      38.380 -20.404  -3.735  0.00  0.00    +0.000 HD
ENDBRANCH  17  24
TORSDOF 4
ENDMDL
MODEL 5
REMARK VINA RESULT:      -6.0     37.774     39.944
REMARK  Name = 
REMARK  6 active torsions:
REMARK  status: ('A' for Active; 'I' for Inactive)
REMARK    1  A    between atoms: O_3  and  C_16
REMARK    2  A    between atoms: O_4  and  C_17
REMARK    3  A    between atoms: O_4  and  C_22
REMARK    4  A    between atoms: O_5  and  C_19
REMARK    5  A    between atoms: O_5  and  C_23
REMARK    6  A    between atoms: O_6  and  C_21
REMARK                            x       y       z     vdW  Elec       q    Type
REMARK                         _______ _______ _______ _____ _____    ______ ____
ROOT
ATOM      1  O   UNL     1      43.091 -15.577  -0.829  0.00  0.00    +0.000 OA
ATOM      2  O   UNL     1      42.018 -17.707  -3.975  0.00  0.00    +0.000 OA
ATOM      3  C   UNL     1      42.162 -17.698  -1.523  0.00  0.00    +0.000 C 
ATOM      4  C   UNL     1      43.388 -16.780  -1.581  0.00  0.00    +0.000 C 
ATOM      5  C   UNL     1      41.107 -16.686  -1.233  0.00  0.00    +0.000 A 
ATOM      6  C   UNL     1      42.020 -18.508  -2.794  0.00  0.00    +0.000 C 
ATOM      7  C   UNL     1      43.813 -16.415  -2.987  0.00  0.00    +0.000 A 
ATOM      8  C   UNL     1      41.719 -15.515  -0.810  0.00  0.00    +0.000 A 
ATOM      9  C   UNL     1      43.102 -16.879  -4.106  0.00  0.00    +0.000 A 
ATOM     10  C   UNL     1      39.727 -16.792  -1.269  0.00  0.00    +0.000 A 
ATOM     11  C   UNL     1      44.938 -15.589  -3.172  0.00  0.00    +0.000 A 
ATOM     12  C   UNL     1      40.974 -14.425  -0.410  0.00  0.00    +0.000 A 
ATOM     13  C   UNL     1      43.487 -16.477  -5.393  0.00  0.00    +0.000 A 
ATOM     14  C   UNL     1      38.958 -15.687  -0.879  0.00  0.00    +0.000 A 
ATOM     15  C   UNL     1      39.575 -14.501  -0.446  0.00  0.00    +0.000 A 
ATOM     16  C   UNL     1      45.353 -15.234  -4.452  0.00  0.00    +0.000 A 
ATOM     17  C   UNL     1      44.631 -15.685  -5.546  0.00  0.00    +0.000 A 
ENDROOT
BRANCH  12  18
ATOM     18  O   UNL     1      41.592 -13.281   0.013  0.00  0.00    +0.000 OA
ATOM     19  H   UNL     1      42.070 -13.536   0.823  0.00  0.00    +0.000 HD
ENDBRANCH  12  18
BRANCH  13  20
ATOM     20  O   UNL     1      42.878 -16.840  -6.571  0.00  0.00    +0.000 OA
ATOM     21  C   UNL     1      43.240 -18.135  -7.047  0.00  0.00    +0.000 C 
ENDBRANCH  13  20
BRANCH  15  22
ATOM     22  O   UNL     1      38.927 -13.362  -0.035  0.00  0.00    +0.000 OA
ATOM     23  C   UNL     1      37.562 -13.229  -0.416  0.00  0.00    +0.000 C 
ENDBRANCH  15  22
BRANCH  17  24
ATOM     24  O   UNL     1      45.056 -15.324  -6.797  0.00  0.00    +0.000 OA
ATOM     25  H   UNL     1      45.990 -15.603  -6.833  0.00  0.00    +0.000 HD
ENDBRANCH  17  24
TORSDOF 4
ENDMDL
MODEL 6
REMARK VINA RESULT:      -5.6     24.390     26.214
REMARK  Name = 
REMARK  6 active torsions:
REMARK  status: ('A' for Active; 'I' for Inactive)
REMARK    1  A    between atoms: O_3  and  C_16
REMARK    2  A    between atoms: O_4  and  C_17
REMARK    3  A    between atoms: O_4  and  C_22
REMARK    4  A    between atoms: O_5  and  C_19
REMARK    5  A    between atoms: O_5  and  C_23
REMARK    6  A    between atoms: O_6  and  C_21
REMARK                            x       y       z     vdW  Elec       q    Type
REMARK                         _______ _______ _______ _____ _____    ______ ____
ROOT
ATOM      1  O   UNL     1      45.991   8.434  18.984  0.00  0.00    +0.000 OA
ATOM      2  O   UNL     1      46.106   5.815  21.936  0.00  0.00    +0.000 OA
ATOM      3  C   UNL     1      45.637   8.157  21.359  0.00  0.00    +0.000 C 
ATOM      4  C   UNL     1      46.665   8.100  20.224  0.00  0.00    +0.000 C 
ATOM      5  C   UNL     1      44.387   7.955  20.573  0.00  0.00    +0.000 A 
ATOM      6  C   UNL     1      45.953   7.142  22.438  0.00  0.00    +0.000 C 
ATOM      7  C   UNL     1      47.356   6.761  20.088  0.00  0.00    +0.000 A 
ATOM      8  C   UNL     1      44.667   8.165  19.231  0.00  0.00    +0.000 A 
ATOM      9  C   UNL     1      47.032   5.687  20.934  0.00  0.00    +0.000 A 
ATOM     10  C   UNL     1      43.097   7.677  20.993  0.00  0.00    +0.000 A 
ATOM     11  C   UNL     1      48.334   6.589  19.092  0.00  0.00    +0.000 A 
ATOM     12  C   UNL     1      43.673   8.108  18.276  0.00  0.00    +0.000 A 
ATOM     13  C   UNL     1      47.649   4.441  20.747  0.00  0.00    +0.000 A 
ATOM     14  C   UNL     1      42.079   7.602  20.032  0.00  0.00    +0.000 A 
ATOM     15  C   UNL     1      42.360   7.818  18.672  0.00  0.00    +0.000 A 
ATOM     16  C   UNL     1      48.986   5.369  18.941  0.00  0.00    +0.000 A 
ATOM     17  C   UNL     1      48.643   4.313  19.771  0.00  0.00    +0.000 A 
ENDROOT
BRANCH  12  18
ATOM     18  O   UNL     1      43.964   8.327  16.959  0.00  0.00    +0.000 OA
ATOM     19  H   UNL     1      43.100   8.352  16.509  0.00  0.00    +0.000 HD
ENDBRANCH  12  18
BRANCH  13  20
ATOM     20  O   UNL     1      47.420   3.305  21.487  0.00  0.00    +0.000 OA
ATOM     21  C   UNL     1      46.367   2.481  20.991  0.00  0.00    +0.000 C 
ENDBRANCH  13  20
BRANCH  15  22
ATOM     22  O   UNL     1      41.446   7.777  17.647  0.00  0.00    +0.000 OA
ATOM     23  C   UNL     1      40.459   6.755  17.710  0.00  0.00    +0.000 C 
ENDBRANCH  15  22
BRANCH  17  24
ATOM     24  O   UNL     1      49.296   3.120  19.606  0.00  0.00    +0.000 OA
ATOM     25  H   UNL     1      48.666   2.445  19.920  0.00  0.00    +0.000 HD
ENDBRANCH  17  24
TORSDOF 4
ENDMDL
MODEL 7
REMARK VINA RESULT:      -5.6     35.954     38.405
REMARK  Name = 
REMARK  6 active torsions:
REMARK  status: ('A' for Active; 'I' for Inactive)
REMARK    1  A    between atoms: O_3  and  C_16
REMARK    2  A    between atoms: O_4  and  C_17
REMARK    3  A    between atoms: O_4  and  C_22
REMARK    4  A    between atoms: O_5  and  C_19
REMARK    5  A    between atoms: O_5  and  C_23
REMARK    6  A    between atoms: O_6  and  C_21
REMARK                            x       y       z     vdW  Elec       q    Type
REMARK                         _______ _______ _______ _____ _____    ______ ____
ROOT
ATOM      1  O   UNL     1      49.593  -6.798  32.958  0.00  0.00    +0.000 OA
ATOM      2  O   UNL     1      52.125  -4.139  31.507  0.00  0.00    +0.000 OA
ATOM      3  C   UNL     1      51.644  -5.605  33.419  0.00  0.00    +0.000 C 
ATOM      4  C   UNL     1      50.139  -5.470  33.164  0.00  0.00    +0.000 C 
ATOM      5  C   UNL     1      51.890  -6.922  32.769  0.00  0.00    +0.000 A 
ATOM      6  C   UNL     1      52.401  -4.409  32.880  0.00  0.00    +0.000 C 
ATOM      7  C   UNL     1      49.792  -4.585  31.987  0.00  0.00    +0.000 A 
ATOM      8  C   UNL     1      50.671  -7.555  32.571  0.00  0.00    +0.000 A 
ATOM      9  C   UNL     1      50.796  -3.981  31.211  0.00  0.00    +0.000 A 
ATOM     10  C   UNL     1      53.077  -7.551  32.435  0.00  0.00    +0.000 A 
ATOM     11  C   UNL     1      48.440  -4.370  31.662  0.00  0.00    +0.000 A 
ATOM     12  C   UNL     1      50.605  -8.827  32.042  0.00  0.00    +0.000 A 
ATOM     13  C   UNL     1      50.445  -3.212  30.093  0.00  0.00    +0.000 A 
ATOM     14  C   UNL     1      53.024  -8.839  31.883  0.00  0.00    +0.000 A 
ATOM     15  C   UNL     1      51.791  -9.483  31.685  0.00  0.00    +0.000 A 
ATOM     16  C   UNL     1      48.089  -3.562  30.585  0.00  0.00    +0.000 A 
ATOM     17  C   UNL     1      49.091  -2.988  29.817  0.00  0.00    +0.000 A 
ENDROOT
BRANCH  12  18
ATOM     18  O   UNL     1      49.397  -9.440  31.862  0.00  0.00    +0.000 OA
ATOM     19  H   UNL     1      49.119  -9.194  30.960  0.00  0.00    +0.000 HD
ENDBRANCH  12  18
BRANCH  13  20
ATOM     20  O   UNL     1      51.317  -2.578  29.240  0.00  0.00    +0.000 OA
ATOM     21  C   UNL     1      51.863  -3.417  28.224  0.00  0.00    +0.000 C 
ENDBRANCH  13  20
BRANCH  15  22
ATOM     22  O   UNL     1      51.617 -10.741  31.162  0.00  0.00    +0.000 OA
ATOM     23  C   UNL     1      52.252 -11.010  29.917  0.00  0.00    +0.000 C 
ENDBRANCH  15  22
BRANCH  17  24
ATOM     24  O   UNL     1      48.725  -2.197  28.761  0.00  0.00    +0.000 OA
ATOM     25  H   UNL     1      48.081  -1.565  29.134  0.00  0.00    +0.000 HD
ENDBRANCH  17  24
TORSDOF 4
ENDMDL
MODEL 8
REMARK VINA RESULT:      -5.6     14.361     16.099
REMARK  Name = 
REMARK  6 active torsions:
REMARK  status: ('A' for Active; 'I' for Inactive)
REMARK    1  A    between atoms: O_3  and  C_16
REMARK    2  A    between atoms: O_4  and  C_17
REMARK    3  A    between atoms: O_4  and  C_22
REMARK    4  A    between atoms: O_5  and  C_19
REMARK    5  A    between atoms: O_5  and  C_23
REMARK    6  A    between atoms: O_6  and  C_21
REMARK                            x       y       z     vdW  Elec       q    Type
REMARK                         _______ _______ _______ _____ _____    ______ ____
ROOT
ATOM      1  O   UNL     1      23.694   0.705   3.851  0.00  0.00    +0.000 OA
ATOM      2  O   UNL     1      23.514  -1.983   6.736  0.00  0.00    +0.000 OA
ATOM      3  C   UNL     1      24.358  -1.535   4.473  0.00  0.00    +0.000 C 
ATOM      4  C   UNL     1      23.173  -0.603   4.198  0.00  0.00    +0.000 C 
ATOM      5  C   UNL     1      25.397  -0.522   4.810  0.00  0.00    +0.000 A 
ATOM      6  C   UNL     1      24.015  -2.562   5.532  0.00  0.00    +0.000 C 
ATOM      7  C   UNL     1      22.208  -0.479   5.358  0.00  0.00    +0.000 A 
ATOM      8  C   UNL     1      24.956   0.724   4.391  0.00  0.00    +0.000 A 
ATOM      9  C   UNL     1      22.434  -1.157   6.567  0.00  0.00    +0.000 A 
ATOM     10  C   UNL     1      26.652  -0.678   5.374  0.00  0.00    +0.000 A 
ATOM     11  C   UNL     1      21.069   0.336   5.221  0.00  0.00    +0.000 A 
ATOM     12  C   UNL     1      25.753   1.844   4.519  0.00  0.00    +0.000 A 
ATOM     13  C   UNL     1      21.552  -0.977   7.643  0.00  0.00    +0.000 A 
ATOM     14  C   UNL     1      27.466   0.454   5.524  0.00  0.00    +0.000 A 
ATOM     15  C   UNL     1      27.023   1.717   5.097  0.00  0.00    +0.000 A 
ATOM     16  C   UNL     1      20.164   0.472   6.270  0.00  0.00    +0.000 A 
ATOM     17  C   UNL     1      20.410  -0.189   7.463  0.00  0.00    +0.000 A 
ENDROOT
BRANCH  12  18
ATOM     18  O   UNL     1      25.307   3.063   4.093  0.00  0.00    +0.000 OA
ATOM     19  H   UNL     1      24.752   3.399   4.821  0.00  0.00    +0.000 HD
ENDBRANCH  12  18
BRANCH  13  20
ATOM     20  O   UNL     1      21.657  -1.563   8.882  0.00  0.00    +0.000 OA
ATOM     21  C   UNL     1      21.081  -2.865   8.969  0.00  0.00    +0.000 C 
ENDBRANCH  13  20
BRANCH  15  22
ATOM     22  O   UNL     1      27.734   2.890   5.185  0.00  0.00    +0.000 OA
ATOM     23  C   UNL     1      28.791   3.070   4.249  0.00  0.00    +0.000 C 
ENDBRANCH  15  22
BRANCH  17  24
ATOM     24  O   UNL     1      19.508  -0.041   8.483  0.00  0.00    +0.000 OA
ATOM     25  H   UNL     1      18.899   0.658   8.179  0.00  0.00    +0.000 HD
ENDBRANCH  17  24
TORSDOF 4
ENDMDL
MODEL 9
REMARK VINA RESULT:      -5.3     36.108     37.989
REMARK  Name = 
REMARK  6 active torsions:
REMARK  status: ('A' for Active; 'I' for Inactive)
REMARK    1  A    between atoms: O_3  and  C_16
REMARK    2  A    between atoms: O_4  and  C_17
REMARK    3  A    between atoms: O_4  and  C_22
REMARK    4  A    between atoms: O_5  and  C_19
REMARK    5  A    between atoms: O_5  and  C_23
REMARK    6  A    between atoms: O_6  and  C_21
REMARK                            x       y       z     vdW  Elec       q    Type
REMARK                         _______ _______ _______ _____ _____    ______ ____
ROOT
ATOM      1  O   UNL     1      41.682 -14.879  -4.353  0.00  0.00    +0.000 OA
ATOM      2  O   UNL     1      41.608 -14.664  -0.411  0.00  0.00    +0.000 OA
ATOM      3  C   UNL     1      42.680 -15.756  -2.333  0.00  0.00    +0.000 C 
ATOM      4  C   UNL     1      41.388 -15.629  -3.147  0.00  0.00    +0.000 C 
ATOM      5  C   UNL     1      43.430 -14.588  -2.874  0.00  0.00    +0.000 A 
ATOM      6  C   UNL     1      42.393 -15.773  -0.846  0.00  0.00    +0.000 C 
ATOM      7  C   UNL     1      40.252 -14.968  -2.396  0.00  0.00    +0.000 A 
ATOM      8  C   UNL     1      42.817 -14.169  -4.045  0.00  0.00    +0.000 A 
ATOM      9  C   UNL     1      40.423 -14.506  -1.080  0.00  0.00    +0.000 A 
ATOM     10  C   UNL     1      44.590 -13.979  -2.424  0.00  0.00    +0.000 A 
ATOM     11  C   UNL     1      39.007 -14.809  -3.032  0.00  0.00    +0.000 A 
ATOM     12  C   UNL     1      43.343 -13.139  -4.798  0.00  0.00    +0.000 A 
ATOM     13  C   UNL     1      39.369 -13.846  -0.431  0.00  0.00    +0.000 A 
ATOM     14  C   UNL     1      45.127 -12.922  -3.172  0.00  0.00    +0.000 A 
ATOM     15  C   UNL     1      44.509 -12.497  -4.360  0.00  0.00    +0.000 A 
ATOM     16  C   UNL     1      37.944 -14.203  -2.368  0.00  0.00    +0.000 A 
ATOM     17  C   UNL     1      38.133 -13.736  -1.077  0.00  0.00    +0.000 A 
ENDROOT
BRANCH  12  18
ATOM     18  O   UNL     1      42.730 -12.744  -5.954  0.00  0.00    +0.000 OA
ATOM     19  H   UNL     1      41.889 -12.340  -5.671  0.00  0.00    +0.000 HD
ENDBRANCH  12  18
BRANCH  13  20
ATOM     20  O   UNL     1      39.399 -13.332   0.844  0.00  0.00    +0.000 OA
ATOM     21  C   UNL     1      39.074 -14.272   1.867  0.00  0.00    +0.000 C 
ENDBRANCH  13  20
BRANCH  15  22
ATOM     22  O   UNL     1      44.947 -11.482  -5.175  0.00  0.00    +0.000 OA
ATOM     23  C   UNL     1      46.324 -11.135  -5.080  0.00  0.00    +0.000 C 
ENDBRANCH  15  22
BRANCH  17  24
ATOM     24  O   UNL     1      37.074 -13.143  -0.442  0.00  0.00    +0.000 OA
ATOM     25  H   UNL     1      36.945 -12.296  -0.910  0.00  0.00    +0.000 HD
ENDBRANCH  17  24
TORSDOF 4
ENDMDL
