MODEL 1
REMARK VINA RESULT:      -8.2      0.000      0.000
REMARK  Name = 
REMARK  9 active torsions:
REMARK  status: ('A' for Active; 'I' for Inactive)
REMARK    1  A    between atoms: O_1  and  N_7
REMARK    2  A    between atoms: O_1  and  C_20
REMARK    3  A    between atoms: O_2  and  C_14
REMARK    4  A    between atoms: O_3  and  C_18
REMARK    5  A    between atoms: O_4  and  C_25
REMARK    6  A    between atoms: C_8  and  C_10
REMARK    7  A    between atoms: C_17  and  C_18
REMARK    8  A    between atoms: C_17  and  C_20
REMARK    9  A    between atoms: C_18  and  C_25
REMARK                            x       y       z     vdW  Elec       q    Type
REMARK                         _______ _______ _______ _____ _____    ______ ____
ROOT
ATOM      1  N   UNL     1      37.134   3.288  13.822  0.00  0.00    +0.000 NA
ATOM      2  N   UNL     1      36.184   0.852  11.426  0.00  0.00    +0.000 NA
ATOM      3  C   UNL     1      36.511   2.186  13.488  0.00  0.00    +0.000 C 
ATOM      4  C   UNL     1      36.784   1.821  12.040  0.00  0.00    +0.000 C 
ATOM      5  C   UNL     1      37.736   2.829  11.593  0.00  0.00    +0.000 A 
ATOM      6  C   UNL     1      37.880   3.672  12.695  0.00  0.00    +0.000 A 
ATOM      7  C   UNL     1      38.401   3.048  10.400  0.00  0.00    +0.000 A 
ATOM      8  C   UNL     1      38.712   4.775  12.622  0.00  0.00    +0.000 A 
ATOM      9  C   UNL     1      39.243   4.160  10.324  0.00  0.00    +0.000 A 
ATOM     10  C   UNL     1      39.397   5.019  11.427  0.00  0.00    +0.000 A 
ENDROOT
BRANCH   3  12
ATOM     11  N   UNL     1      33.992   1.014  15.820  0.00  0.00    +0.000 N 
ATOM     12  C   UNL     1      35.677   1.494  14.443  0.00  0.00    +0.000 A 
ATOM     13  C   UNL     1      35.910   0.206  15.033  0.00  0.00    +0.000 A 
ATOM     14  C   UNL     1      34.848  -0.059  15.897  0.00  0.00    +0.000 A 
ATOM     15  C   UNL     1      34.465   1.947  14.934  0.00  0.00    +0.000 A 
ATOM     16  C   UNL     1      36.936  -0.757  14.925  0.00  0.00    +0.000 A 
ATOM     17  C   UNL     1      34.756  -1.233  16.654  0.00  0.00    +0.000 A 
ATOM     18  C   UNL     1      36.862  -1.937  15.673  0.00  0.00    +0.000 A 
ATOM     19  C   UNL     1      35.786  -2.170  16.525  0.00  0.00    +0.000 A 
ATOM     20  H   UNL     1      33.125   1.076  16.331  0.00  0.00    +0.000 HD
BRANCH  15  21
ATOM     21  O   UNL     1      33.775   3.044  14.642  0.00  0.00    +0.000 OA
ATOM     22  H   UNL     1      33.921   3.303  13.718  0.00  0.00    +0.000 HD
ENDBRANCH  15  21
ENDBRANCH   3  12
BRANCH   2  23
ATOM     23  O   UNL     1      36.575   0.751  10.089  0.00  0.00    +0.000 OA
BRANCH  23  24
ATOM     24  C   UNL     1      36.844  -0.619   9.802  0.00  0.00    +0.000 C 
BRANCH  24  25
ATOM     25  C   UNL     1      38.197  -0.735   9.115  0.00  0.00    +0.000 C 
BRANCH  25  26
ATOM     26  C   UNL     1      39.307  -1.287  10.010  0.00  0.00    +0.000 C 
BRANCH  26  27
ATOM     27  O   UNL     1      40.477  -1.472   9.197  0.00  0.00    +0.000 OA
ATOM     28  H   UNL     1      40.298  -0.948   8.390  0.00  0.00    +0.000 HD
ENDBRANCH  26  27
BRANCH  26  29
ATOM     29  C   UNL     1      39.678  -0.372  11.181  0.00  0.00    +0.000 C 
BRANCH  29  30
ATOM     30  O   UNL     1      39.572  -1.131  12.390  0.00  0.00    +0.000 OA
ATOM     31  H   UNL     1      39.980  -1.997  12.211  0.00  0.00    +0.000 HD
ENDBRANCH  29  30
ENDBRANCH  26  29
ENDBRANCH  25  26
ENDBRANCH  24  25
ENDBRANCH  23  24
ENDBRANCH   2  23
TORSDOF 9
ENDMDL
MODEL 2
REMARK VINA RESULT:      -7.8      2.554      4.408
REMARK  Name = 
REMARK  9 active torsions:
REMARK  status: ('A' for Active; 'I' for Inactive)
REMARK    1  A    between atoms: O_1  and  N_7
REMARK    2  A    between atoms: O_1  and  C_20
REMARK    3  A    between atoms: O_2  and  C_14
REMARK    4  A    between atoms: O_3  and  C_18
REMARK    5  A    between atoms: O_4  and  C_25
REMARK    6  A    between atoms: C_8  and  C_10
REMARK    7  A    between atoms: C_17  and  C_18
REMARK    8  A    between atoms: C_17  and  C_20
REMARK    9  A    between atoms: C_18  and  C_25
REMARK                            x       y       z     vdW  Elec       q    Type
REMARK                         _______ _______ _______ _____ _____    ______ ____
ROOT
ATOM      1  N   UNL     1      36.433   0.421  12.103  0.00  0.00    +0.000 NA
ATOM      2  N   UNL     1      37.433   3.516  13.517  0.00  0.00    +0.000 NA
ATOM      3  C   UNL     1      36.381   1.322  13.052  0.00  0.00    +0.000 C 
ATOM      4  C   UNL     1      37.211   2.541  12.694  0.00  0.00    +0.000 C 
ATOM      5  C   UNL     1      37.691   2.262  11.348  0.00  0.00    +0.000 A 
ATOM      6  C   UNL     1      37.206   0.983  11.073  0.00  0.00    +0.000 A 
ATOM      7  C   UNL     1      38.464   2.972  10.446  0.00  0.00    +0.000 A 
ATOM      8  C   UNL     1      37.492   0.377   9.863  0.00  0.00    +0.000 A 
ATOM      9  C   UNL     1      38.753   2.362   9.223  0.00  0.00    +0.000 A 
ATOM     10  C   UNL     1      38.272   1.074   8.933  0.00  0.00    +0.000 A 
ENDROOT
BRANCH   3  12
ATOM     11  N   UNL     1      34.145   1.322  15.908  0.00  0.00    +0.000 N 
ATOM     12  C   UNL     1      35.620   1.079  14.256  0.00  0.00    +0.000 A 
ATOM     13  C   UNL     1      35.727  -0.042  15.145  0.00  0.00    +0.000 A 
ATOM     14  C   UNL     1      34.802   0.145  16.172  0.00  0.00    +0.000 A 
ATOM     15  C   UNL     1      34.609   1.886  14.747  0.00  0.00    +0.000 A 
ATOM     16  C   UNL     1      36.537  -1.198  15.182  0.00  0.00    +0.000 A 
ATOM     17  C   UNL     1      34.643  -0.759  17.229  0.00  0.00    +0.000 A 
ATOM     18  C   UNL     1      36.392  -2.114  16.230  0.00  0.00    +0.000 A 
ATOM     19  C   UNL     1      35.458  -1.895  17.239  0.00  0.00    +0.000 A 
ATOM     20  H   UNL     1      33.404   1.692  16.484  0.00  0.00    +0.000 HD
BRANCH  15  21
ATOM     21  O   UNL     1      34.078   2.998  14.251  0.00  0.00    +0.000 OA
ATOM     22  H   UNL     1      33.635   2.817  13.407  0.00  0.00    +0.000 HD
ENDBRANCH  15  21
ENDBRANCH   3  12
BRANCH   2  23
ATOM     23  O   UNL     1      38.263   4.495  12.966  0.00  0.00    +0.000 OA
BRANCH  23  24
ATOM     24  C   UNL     1      39.448   4.575  13.754  0.00  0.00    +0.000 C 
BRANCH  24  25
ATOM     25  C   UNL     1      39.071   4.800  15.212  0.00  0.00    +0.000 C 
BRANCH  25  26
ATOM     26  C   UNL     1      40.213   5.332  16.078  0.00  0.00    +0.000 C 
BRANCH  26  27
ATOM     27  O   UNL     1      40.082   4.750  17.384  0.00  0.00    +0.000 OA
ATOM     28  H   UNL     1      39.944   3.797  17.213  0.00  0.00    +0.000 HD
ENDBRANCH  26  27
BRANCH  26  29
ATOM     29  C   UNL     1      41.609   5.000  15.543  0.00  0.00    +0.000 C 
BRANCH  29  30
ATOM     30  O   UNL     1      42.085   3.838  16.231  0.00  0.00    +0.000 OA
ATOM     31  H   UNL     1      43.033   3.984  16.400  0.00  0.00    +0.000 HD
ENDBRANCH  29  30
ENDBRANCH  26  29
ENDBRANCH  25  26
ENDBRANCH  24  25
ENDBRANCH  23  24
ENDBRANCH   2  23
TORSDOF 9
ENDMDL
MODEL 3
REMARK VINA RESULT:      -7.6      1.893      3.475
REMARK  Name = 
REMARK  9 active torsions:
REMARK  status: ('A' for Active; 'I' for Inactive)
REMARK    1  A    between atoms: O_1  and  N_7
REMARK    2  A    between atoms: O_1  and  C_20
REMARK    3  A    between atoms: O_2  and  C_14
REMARK    4  A    between atoms: O_3  and  C_18
REMARK    5  A    between atoms: O_4  and  C_25
REMARK    6  A    between atoms: C_8  and  C_10
REMARK    7  A    between atoms: C_17  and  C_18
REMARK    8  A    between atoms: C_17  and  C_20
REMARK    9  A    between atoms: C_18  and  C_25
REMARK                            x       y       z     vdW  Elec       q    Type
REMARK                         _______ _______ _______ _____ _____    ______ ____
ROOT
ATOM      1  N   UNL     1      36.475   0.386  12.087  0.00  0.00    +0.000 NA
ATOM      2  N   UNL     1      37.427   3.537  13.410  0.00  0.00    +0.000 NA
ATOM      3  C   UNL     1      36.401   1.318  13.004  0.00  0.00    +0.000 C 
ATOM      4  C   UNL     1      37.225   2.532  12.617  0.00  0.00    +0.000 C 
ATOM      5  C   UNL     1      37.729   2.212  11.289  0.00  0.00    +0.000 A 
ATOM      6  C   UNL     1      37.260   0.920  11.050  0.00  0.00    +0.000 A 
ATOM      7  C   UNL     1      38.509   2.898  10.375  0.00  0.00    +0.000 A 
ATOM      8  C   UNL     1      37.569   0.275   9.866  0.00  0.00    +0.000 A 
ATOM      9  C   UNL     1      38.822   2.249   9.178  0.00  0.00    +0.000 A 
ATOM     10  C   UNL     1      38.356   0.947   8.925  0.00  0.00    +0.000 A 
ENDROOT
BRANCH   3  12
ATOM     11  N   UNL     1      34.141   1.410  15.840  0.00  0.00    +0.000 N 
ATOM     12  C   UNL     1      35.624   1.109  14.204  0.00  0.00    +0.000 A 
ATOM     13  C   UNL     1      35.695  -0.004  15.107  0.00  0.00    +0.000 A 
ATOM     14  C   UNL     1      34.766   0.220  16.124  0.00  0.00    +0.000 A 
ATOM     15  C   UNL     1      34.629   1.947  14.677  0.00  0.00    +0.000 A 
ATOM     16  C   UNL     1      36.475  -1.179  15.165  0.00  0.00    +0.000 A 
ATOM     17  C   UNL     1      34.575  -0.668  17.190  0.00  0.00    +0.000 A 
ATOM     18  C   UNL     1      36.298  -2.078  16.223  0.00  0.00    +0.000 A 
ATOM     19  C   UNL     1      35.361  -1.823  17.220  0.00  0.00    +0.000 A 
ATOM     20  H   UNL     1      33.405   1.805  16.405  0.00  0.00    +0.000 HD
BRANCH  15  21
ATOM     21  O   UNL     1      34.131   3.066  14.162  0.00  0.00    +0.000 OA
ATOM     22  H   UNL     1      33.682   2.885  13.321  0.00  0.00    +0.000 HD
ENDBRANCH  15  21
ENDBRANCH   3  12
BRANCH   2  23
ATOM     23  O   UNL     1      38.257   4.503  12.838  0.00  0.00    +0.000 OA
BRANCH  23  24
ATOM     24  C   UNL     1      39.282   4.826  13.774  0.00  0.00    +0.000 C 
BRANCH  24  25
ATOM     25  C   UNL     1      40.641   4.524  13.160  0.00  0.00    +0.000 C 
BRANCH  25  26
ATOM     26  C   UNL     1      41.182   3.133  13.493  0.00  0.00    +0.000 C 
BRANCH  26  27
ATOM     27  O   UNL     1      40.141   2.404  14.161  0.00  0.00    +0.000 OA
ATOM     28  H   UNL     1      39.854   1.736  13.507  0.00  0.00    +0.000 HD
ENDBRANCH  26  27
BRANCH  26  29
ATOM     29  C   UNL     1      41.622   2.325  12.267  0.00  0.00    +0.000 C 
BRANCH  29  30
ATOM     30  O   UNL     1      42.373   1.196  12.724  0.00  0.00    +0.000 OA
ATOM     31  H   UNL     1      43.314   1.427  12.618  0.00  0.00    +0.000 HD
ENDBRANCH  29  30
ENDBRANCH  26  29
ENDBRANCH  25  26
ENDBRANCH  24  25
ENDBRANCH  23  24
ENDBRANCH   2  23
TORSDOF 9
ENDMDL
MODEL 4
REMARK VINA RESULT:      -7.4      2.391      6.300
REMARK  Name = 
REMARK  9 active torsions:
REMARK  status: ('A' for Active; 'I' for Inactive)
REMARK    1  A    between atoms: O_1  and  N_7
REMARK    2  A    between atoms: O_1  and  C_20
REMARK    3  A    between atoms: O_2  and  C_14
REMARK    4  A    between atoms: O_3  and  C_18
REMARK    5  A    between atoms: O_4  and  C_25
REMARK    6  A    between atoms: C_8  and  C_10
REMARK    7  A    between atoms: C_17  and  C_18
REMARK    8  A    between atoms: C_17  and  C_20
REMARK    9  A    between atoms: C_18  and  C_25
REMARK                            x       y       z     vdW  Elec       q    Type
REMARK                         _______ _______ _______ _____ _____    ______ ____
ROOT
ATOM      1  N   UNL     1      40.381   2.664  12.549  0.00  0.00    +0.000 NA
ATOM      2  N   UNL     1      37.341   1.670  14.082  0.00  0.00    +0.000 NA
ATOM      3  C   UNL     1      39.310   1.912  12.598  0.00  0.00    +0.000 C 
ATOM      4  C   UNL     1      38.397   2.333  13.735  0.00  0.00    +0.000 C 
ATOM      5  C   UNL     1      39.050   3.507  14.298  0.00  0.00    +0.000 A 
ATOM      6  C   UNL     1      40.225   3.630  13.557  0.00  0.00    +0.000 A 
ATOM      7  C   UNL     1      38.726   4.376  15.326  0.00  0.00    +0.000 A 
ATOM      8  C   UNL     1      41.120   4.649  13.837  0.00  0.00    +0.000 A 
ATOM      9  C   UNL     1      39.627   5.405  15.609  0.00  0.00    +0.000 A 
ATOM     10  C   UNL     1      40.816   5.540  14.871  0.00  0.00    +0.000 A 
ENDROOT
BRANCH   3  12
ATOM     11  N   UNL     1      38.848  -1.213  10.816  0.00  0.00    +0.000 N 
ATOM     12  C   UNL     1      39.127   0.831  11.658  0.00  0.00    +0.000 A 
ATOM     13  C   UNL     1      39.008   0.927  10.230  0.00  0.00    +0.000 A 
ATOM     14  C   UNL     1      38.847  -0.367   9.733  0.00  0.00    +0.000 A 
ATOM     15  C   UNL     1      38.993  -0.507  11.982  0.00  0.00    +0.000 A 
ATOM     16  C   UNL     1      39.035   1.995   9.308  0.00  0.00    +0.000 A 
ATOM     17  C   UNL     1      38.712  -0.648   8.369  0.00  0.00    +0.000 A 
ATOM     18  C   UNL     1      38.901   1.734   7.940  0.00  0.00    +0.000 A 
ATOM     19  C   UNL     1      38.742   0.430   7.479  0.00  0.00    +0.000 A 
ATOM     20  H   UNL     1      38.728  -2.212  10.746  0.00  0.00    +0.000 HD
BRANCH  15  21
ATOM     21  O   UNL     1      38.957  -1.105  13.168  0.00  0.00    +0.000 OA
ATOM     22  H   UNL     1      39.445  -1.943  13.142  0.00  0.00    +0.000 HD
ENDBRANCH  15  21
ENDBRANCH   3  12
BRANCH   2  23
ATOM     23  O   UNL     1      36.699   2.236  15.186  0.00  0.00    +0.000 OA
BRANCH  23  24
ATOM     24  C   UNL     1      35.980   1.209  15.863  0.00  0.00    +0.000 C 
BRANCH  24  25
ATOM     25  C   UNL     1      35.114   0.455  14.864  0.00  0.00    +0.000 C 
BRANCH  25  26
ATOM     26  C   UNL     1      33.678   0.219  15.334  0.00  0.00    +0.000 C 
BRANCH  26  27
ATOM     27  O   UNL     1      32.972  -0.445  14.275  0.00  0.00    +0.000 OA
ATOM     28  H   UNL     1      33.172  -1.394  14.406  0.00  0.00    +0.000 HD
ENDBRANCH  26  27
BRANCH  26  29
ATOM     29  C   UNL     1      33.568  -0.642  16.596  0.00  0.00    +0.000 C 
BRANCH  29  30
ATOM     30  O   UNL     1      32.238  -1.166  16.664  0.00  0.00    +0.000 OA
ATOM     31  H   UNL     1      32.308  -2.052  17.063  0.00  0.00    +0.000 HD
ENDBRANCH  29  30
ENDBRANCH  26  29
ENDBRANCH  25  26
ENDBRANCH  24  25
ENDBRANCH  23  24
ENDBRANCH   2  23
TORSDOF 9
ENDMDL
MODEL 5
REMARK VINA RESULT:      -7.2     18.649     21.093
REMARK  Name = 
REMARK  9 active torsions:
REMARK  status: ('A' for Active; 'I' for Inactive)
REMARK    1  A    between atoms: O_1  and  N_7
REMARK    2  A    between atoms: O_1  and  C_20
REMARK    3  A    between atoms: O_2  and  C_14
REMARK    4  A    between atoms: O_3  and  C_18
REMARK    5  A    between atoms: O_4  and  C_25
REMARK    6  A    between atoms: C_8  and  C_10
REMARK    7  A    between atoms: C_17  and  C_18
REMARK    8  A    between atoms: C_17  and  C_20
REMARK    9  A    between atoms: C_18  and  C_25
REMARK                            x       y       z     vdW  Elec       q    Type
REMARK                         _______ _______ _______ _____ _____    ______ ____
ROOT
ATOM      1  N   UNL     1      20.752   7.761  18.862  0.00  0.00    +0.000 NA
ATOM      2  N   UNL     1      18.069   9.941  19.655  0.00  0.00    +0.000 NA
ATOM      3  C   UNL     1      19.595   8.002  19.424  0.00  0.00    +0.000 C 
ATOM      4  C   UNL     1      19.118   9.409  19.113  0.00  0.00    +0.000 C 
ATOM      5  C   UNL     1      20.131   9.935  18.208  0.00  0.00    +0.000 A 
ATOM      6  C   UNL     1      21.074   8.911  18.121  0.00  0.00    +0.000 A 
ATOM      7  C   UNL     1      20.277  11.137  17.538  0.00  0.00    +0.000 A 
ATOM      8  C   UNL     1      22.207   9.074  17.345  0.00  0.00    +0.000 A 
ATOM      9  C   UNL     1      21.421  11.303  16.753  0.00  0.00    +0.000 A 
ATOM     10  C   UNL     1      22.380  10.280  16.657  0.00  0.00    +0.000 A 
ENDROOT
BRANCH   3  12
ATOM     11  N   UNL     1      17.892   6.007  21.930  0.00  0.00    +0.000 N 
ATOM     12  C   UNL     1      18.947   6.997  20.235  0.00  0.00    +0.000 A 
ATOM     13  C   UNL     1      18.705   5.624  19.895  0.00  0.00    +0.000 A 
ATOM     14  C   UNL     1      18.057   5.030  20.978  0.00  0.00    +0.000 A 
ATOM     15  C   UNL     1      18.402   7.201  21.490  0.00  0.00    +0.000 A 
ATOM     16  C   UNL     1      18.990   4.822  18.769  0.00  0.00    +0.000 A 
ATOM     17  C   UNL     1      17.678   3.682  20.993  0.00  0.00    +0.000 A 
ATOM     18  C   UNL     1      18.619   3.473  18.766  0.00  0.00    +0.000 A 
ATOM     19  C   UNL     1      17.973   2.913  19.864  0.00  0.00    +0.000 A 
ATOM     20  H   UNL     1      17.431   5.856  22.814  0.00  0.00    +0.000 HD
BRANCH  15  21
ATOM     21  O   UNL     1      18.300   8.311  22.213  0.00  0.00    +0.000 OA
ATOM     22  H   UNL     1      18.459   8.123  23.152  0.00  0.00    +0.000 HD
ENDBRANCH  15  21
ENDBRANCH   3  12
BRANCH   2  23
ATOM     23  O   UNL     1      17.871  11.260  19.242  0.00  0.00    +0.000 OA
BRANCH  23  24
ATOM     24  C   UNL     1      17.490  12.034  20.376  0.00  0.00    +0.000 C 
BRANCH  24  25
ATOM     25  C   UNL     1      17.958  11.336  21.645  0.00  0.00    +0.000 C 
BRANCH  25  26
ATOM     26  C   UNL     1      18.967  12.141  22.465  0.00  0.00    +0.000 C 
BRANCH  26  27
ATOM     27  O   UNL     1      18.618  12.002  23.851  0.00  0.00    +0.000 OA
ATOM     28  H   UNL     1      18.223  11.109  23.914  0.00  0.00    +0.000 HD
ENDBRANCH  26  27
BRANCH  26  29
ATOM     29  C   UNL     1      20.419  11.686  22.289  0.00  0.00    +0.000 C 
BRANCH  29  30
ATOM     30  O   UNL     1      20.443  10.254  22.305  0.00  0.00    +0.000 OA
ATOM     31  H   UNL     1      21.342   9.989  22.041  0.00  0.00    +0.000 HD
ENDBRANCH  29  30
ENDBRANCH  26  29
ENDBRANCH  25  26
ENDBRANCH  24  25
ENDBRANCH  23  24
ENDBRANCH   2  23
TORSDOF 9
ENDMDL
MODEL 6
REMARK VINA RESULT:      -7.2      3.343      7.623
REMARK  Name = 
REMARK  9 active torsions:
REMARK  status: ('A' for Active; 'I' for Inactive)
REMARK    1  A    between atoms: O_1  and  N_7
REMARK    2  A    between atoms: O_1  and  C_20
REMARK    3  A    between atoms: O_2  and  C_14
REMARK    4  A    between atoms: O_3  and  C_18
REMARK    5  A    between atoms: O_4  and  C_25
REMARK    6  A    between atoms: C_8  and  C_10
REMARK    7  A    between atoms: C_17  and  C_18
REMARK    8  A    between atoms: C_17  and  C_20
REMARK    9  A    between atoms: C_18  and  C_25
REMARK                            x       y       z     vdW  Elec       q    Type
REMARK                         _______ _______ _______ _____ _____    ______ ____
ROOT
ATOM      1  N   UNL     1      37.149  -0.401  14.100  0.00  0.00    +0.000 NA
ATOM      2  N   UNL     1      36.316   2.756  15.486  0.00  0.00    +0.000 NA
ATOM      3  C   UNL     1      37.227   0.907  14.112  0.00  0.00    +0.000 C 
ATOM      4  C   UNL     1      36.501   1.486  15.312  0.00  0.00    +0.000 C 
ATOM      5  C   UNL     1      36.055   0.317  16.057  0.00  0.00    +0.000 A 
ATOM      6  C   UNL     1      36.459  -0.761  15.269  0.00  0.00    +0.000 A 
ATOM      7  C   UNL     1      35.371   0.150  17.248  0.00  0.00    +0.000 A 
ATOM      8  C   UNL     1      36.179  -2.057  15.667  0.00  0.00    +0.000 A 
ATOM      9  C   UNL     1      35.088  -1.157  17.652  0.00  0.00    +0.000 A 
ATOM     10  C   UNL     1      35.488  -2.253  16.868  0.00  0.00    +0.000 A 
ENDROOT
BRANCH   3  12
ATOM     11  N   UNL     1      39.294   3.015  12.005  0.00  0.00    +0.000 N 
ATOM     12  C   UNL     1      37.921   1.612  13.060  0.00  0.00    +0.000 A 
ATOM     13  C   UNL     1      37.781   1.425  11.643  0.00  0.00    +0.000 A 
ATOM     14  C   UNL     1      38.641   2.324  11.013  0.00  0.00    +0.000 A 
ATOM     15  C   UNL     1      38.889   2.584  13.242  0.00  0.00    +0.000 A 
ATOM     16  C   UNL     1      36.989   0.582  10.833  0.00  0.00    +0.000 A 
ATOM     17  C   UNL     1      38.754   2.422   9.621  0.00  0.00    +0.000 A 
ATOM     18  C   UNL     1      37.087   0.666   9.440  0.00  0.00    +0.000 A 
ATOM     19  C   UNL     1      37.958   1.575   8.844  0.00  0.00    +0.000 A 
ATOM     20  H   UNL     1      39.994   3.719  11.829  0.00  0.00    +0.000 HD
BRANCH  15  21
ATOM     21  O   UNL     1      39.429   3.061  14.358  0.00  0.00    +0.000 OA
ATOM     22  H   UNL     1      39.535   2.354  15.014  0.00  0.00    +0.000 HD
ENDBRANCH  15  21
ENDBRANCH   3  12
BRANCH   2  23
ATOM     23  O   UNL     1      35.579   3.030  16.641  0.00  0.00    +0.000 OA
BRANCH  23  24
ATOM     24  C   UNL     1      36.438   3.670  17.580  0.00  0.00    +0.000 C 
BRANCH  24  25
ATOM     25  C   UNL     1      36.475   2.859  18.867  0.00  0.00    +0.000 C 
BRANCH  25  26
ATOM     26  C   UNL     1      37.643   3.203  19.790  0.00  0.00    +0.000 C 
BRANCH  26  27
ATOM     27  O   UNL     1      38.026   4.562  19.528  0.00  0.00    +0.000 OA
ATOM     28  H   UNL     1      38.295   4.562  18.587  0.00  0.00    +0.000 HD
ENDBRANCH  26  27
BRANCH  26  29
ATOM     29  C   UNL     1      37.318   3.077  21.282  0.00  0.00    +0.000 C 
BRANCH  29  30
ATOM     30  O   UNL     1      37.514   4.358  21.891  0.00  0.00    +0.000 OA
ATOM     31  H   UNL     1      36.894   4.406  22.641  0.00  0.00    +0.000 HD
ENDBRANCH  29  30
ENDBRANCH  26  29
ENDBRANCH  25  26
ENDBRANCH  24  25
ENDBRANCH  23  24
ENDBRANCH   2  23
TORSDOF 9
ENDMDL
MODEL 7
REMARK VINA RESULT:      -7.1      2.650      6.369
REMARK  Name = 
REMARK  9 active torsions:
REMARK  status: ('A' for Active; 'I' for Inactive)
REMARK    1  A    between atoms: O_1  and  N_7
REMARK    2  A    between atoms: O_1  and  C_20
REMARK    3  A    between atoms: O_2  and  C_14
REMARK    4  A    between atoms: O_3  and  C_18
REMARK    5  A    between atoms: O_4  and  C_25
REMARK    6  A    between atoms: C_8  and  C_10
REMARK    7  A    between atoms: C_17  and  C_18
REMARK    8  A    between atoms: C_17  and  C_20
REMARK    9  A    between atoms: C_18  and  C_25
REMARK                            x       y       z     vdW  Elec       q    Type
REMARK                         _______ _______ _______ _____ _____    ______ ____
ROOT
ATOM      1  N   UNL     1      35.677   1.185  12.878  0.00  0.00    +0.000 NA
ATOM      2  N   UNL     1      38.114   3.485  14.042  0.00  0.00    +0.000 NA
ATOM      3  C   UNL     1      36.722   1.950  12.683  0.00  0.00    +0.000 C 
ATOM      4  C   UNL     1      37.185   2.584  13.982  0.00  0.00    +0.000 C 
ATOM      5  C   UNL     1      36.308   2.008  14.992  0.00  0.00    +0.000 A 
ATOM      6  C   UNL     1      35.431   1.205  14.262  0.00  0.00    +0.000 A 
ATOM      7  C   UNL     1      36.222   2.142  16.366  0.00  0.00    +0.000 A 
ATOM      8  C   UNL     1      34.429   0.504  14.908  0.00  0.00    +0.000 A 
ATOM      9  C   UNL     1      35.210   1.434  17.021  0.00  0.00    +0.000 A 
ATOM     10  C   UNL     1      34.320   0.622  16.298  0.00  0.00    +0.000 A 
ENDROOT
BRANCH   3  12
ATOM     11  N   UNL     1      38.212   3.047   9.563  0.00  0.00    +0.000 N 
ATOM     12  C   UNL     1      37.273   2.119  11.359  0.00  0.00    +0.000 A 
ATOM     13  C   UNL     1      37.414   1.120  10.338  0.00  0.00    +0.000 A 
ATOM     14  C   UNL     1      37.992   1.733   9.226  0.00  0.00    +0.000 A 
ATOM     15  C   UNL     1      37.806   3.291  10.850  0.00  0.00    +0.000 A 
ATOM     16  C   UNL     1      37.091  -0.251  10.249  0.00  0.00    +0.000 A 
ATOM     17  C   UNL     1      38.264   1.050   8.035  0.00  0.00    +0.000 A 
ATOM     18  C   UNL     1      37.356  -0.951   9.067  0.00  0.00    +0.000 A 
ATOM     19  C   UNL     1      37.934  -0.307   7.976  0.00  0.00    +0.000 A 
ATOM     20  H   UNL     1      38.642   3.719   8.947  0.00  0.00    +0.000 HD
BRANCH  15  21
ATOM     21  O   UNL     1      37.979   4.477  11.423  0.00  0.00    +0.000 OA
ATOM     22  H   UNL     1      38.096   4.378  12.382  0.00  0.00    +0.000 HD
ENDBRANCH  15  21
ENDBRANCH   3  12
BRANCH   2  23
ATOM     23  O   UNL     1      38.323   3.944  15.344  0.00  0.00    +0.000 OA
BRANCH  23  24
ATOM     24  C   UNL     1      39.130   5.117  15.283  0.00  0.00    +0.000 C 
BRANCH  24  25
ATOM     25  C   UNL     1      40.274   4.893  14.305  0.00  0.00    +0.000 C 
BRANCH  25  26
ATOM     26  C   UNL     1      41.551   4.354  14.950  0.00  0.00    +0.000 C 
BRANCH  26  27
ATOM     27  O   UNL     1      41.286   4.147  16.346  0.00  0.00    +0.000 OA
ATOM     28  H   UNL     1      41.688   4.921  16.787  0.00  0.00    +0.000 HD
ENDBRANCH  26  27
BRANCH  26  29
ATOM     29  C   UNL     1      42.039   3.029  14.354  0.00  0.00    +0.000 C 
BRANCH  29  30
ATOM     30  O   UNL     1      40.922   2.379  13.738  0.00  0.00    +0.000 OA
ATOM     31  H   UNL     1      40.521   1.811  14.420  0.00  0.00    +0.000 HD
ENDBRANCH  29  30
ENDBRANCH  26  29
ENDBRANCH  25  26
ENDBRANCH  24  25
ENDBRANCH  23  24
ENDBRANCH   2  23
TORSDOF 9
ENDMDL
MODEL 8
REMARK VINA RESULT:      -7.0      2.997      5.244
REMARK  Name = 
REMARK  9 active torsions:
REMARK  status: ('A' for Active; 'I' for Inactive)
REMARK    1  A    between atoms: O_1  and  N_7
REMARK    2  A    between atoms: O_1  and  C_20
REMARK    3  A    between atoms: O_2  and  C_14
REMARK    4  A    between atoms: O_3  and  C_18
REMARK    5  A    between atoms: O_4  and  C_25
REMARK    6  A    between atoms: C_8  and  C_10
REMARK    7  A    between atoms: C_17  and  C_18
REMARK    8  A    between atoms: C_17  and  C_20
REMARK    9  A    between atoms: C_18  and  C_25
REMARK                            x       y       z     vdW  Elec       q    Type
REMARK                         _______ _______ _______ _____ _____    ______ ____
ROOT
ATOM      1  N   UNL     1      37.628  -0.094  12.609  0.00  0.00    +0.000 NA
ATOM      2  N   UNL     1      38.354   2.941  14.295  0.00  0.00    +0.000 NA
ATOM      3  C   UNL     1      37.309   0.860  13.448  0.00  0.00    +0.000 C 
ATOM      4  C   UNL     1      38.364   1.952  13.459  0.00  0.00    +0.000 C 
ATOM      5  C   UNL     1      39.313   1.540  12.434  0.00  0.00    +0.000 A 
ATOM      6  C   UNL     1      38.821   0.313  11.989  0.00  0.00    +0.000 A 
ATOM      7  C   UNL     1      40.472   2.102  11.929  0.00  0.00    +0.000 A 
ATOM      8  C   UNL     1      39.496  -0.392  11.008  0.00  0.00    +0.000 A 
ATOM      9  C   UNL     1      41.155   1.392  10.938  0.00  0.00    +0.000 A 
ATOM     10  C   UNL     1      40.671   0.153  10.481  0.00  0.00    +0.000 A 
ENDROOT
BRANCH   3  12
ATOM     11  N   UNL     1      34.067   1.223  15.033  0.00  0.00    +0.000 N 
ATOM     12  C   UNL     1      36.098   0.779  14.230  0.00  0.00    +0.000 A 
ATOM     13  C   UNL     1      35.771  -0.193  15.234  0.00  0.00    +0.000 A 
ATOM     14  C   UNL     1      34.503   0.119  15.725  0.00  0.00    +0.000 A 
ATOM     15  C   UNL     1      35.004   1.619  14.114  0.00  0.00    +0.000 A 
ATOM     16  C   UNL     1      36.442  -1.305  15.786  0.00  0.00    +0.000 A 
ATOM     17  C   UNL     1      33.872  -0.621  16.733  0.00  0.00    +0.000 A 
ATOM     18  C   UNL     1      35.828  -2.057  16.794  0.00  0.00    +0.000 A 
ATOM     19  C   UNL     1      34.561  -1.717  17.259  0.00  0.00    +0.000 A 
ATOM     20  H   UNL     1      33.165   1.653  15.173  0.00  0.00    +0.000 HD
BRANCH  15  21
ATOM     21  O   UNL     1      34.780   2.628  13.279  0.00  0.00    +0.000 OA
ATOM     22  H   UNL     1      35.554   3.213  13.236  0.00  0.00    +0.000 HD
ENDBRANCH  15  21
ENDBRANCH   3  12
BRANCH   2  23
ATOM     23  O   UNL     1      39.457   3.782  14.132  0.00  0.00    +0.000 OA
BRANCH  23  24
ATOM     24  C   UNL     1      39.198   5.002  14.822  0.00  0.00    +0.000 C 
BRANCH  24  25
ATOM     25  C   UNL     1      40.015   5.040  16.105  0.00  0.00    +0.000 C 
BRANCH  25  26
ATOM     26  C   UNL     1      39.540   6.082  17.118  0.00  0.00    +0.000 C 
BRANCH  26  27
ATOM     27  O   UNL     1      39.207   7.277  16.397  0.00  0.00    +0.000 OA
ATOM     28  H   UNL     1      38.963   7.921  17.092  0.00  0.00    +0.000 HD
ENDBRANCH  26  27
BRANCH  26  29
ATOM     29  C   UNL     1      38.310   5.651  17.925  0.00  0.00    +0.000 C 
BRANCH  29  30
ATOM     30  O   UNL     1      38.555   5.950  19.304  0.00  0.00    +0.000 OA
ATOM     31  H   UNL     1      39.372   5.479  19.549  0.00  0.00    +0.000 HD
ENDBRANCH  29  30
ENDBRANCH  26  29
ENDBRANCH  25  26
ENDBRANCH  24  25
ENDBRANCH  23  24
ENDBRANCH   2  23
TORSDOF 9
ENDMDL
MODEL 9
REMARK VINA RESULT:      -6.6      2.518      4.830
REMARK  Name = 
REMARK  9 active torsions:
REMARK  status: ('A' for Active; 'I' for Inactive)
REMARK    1  A    between atoms: O_1  and  N_7
REMARK    2  A    between atoms: O_1  and  C_20
REMARK    3  A    between atoms: O_2  and  C_14
REMARK    4  A    between atoms: O_3  and  C_18
REMARK    5  A    between atoms: O_4  and  C_25
REMARK    6  A    between atoms: C_8  and  C_10
REMARK    7  A    between atoms: C_17  and  C_18
REMARK    8  A    between atoms: C_17  and  C_20
REMARK    9  A    between atoms: C_18  and  C_25
REMARK                            x       y       z     vdW  Elec       q    Type
REMARK                         _______ _______ _______ _____ _____    ______ ____
ROOT
ATOM      1  N   UNL     1      37.893  -0.566  11.340  0.00  0.00    +0.000 NA
ATOM      2  N   UNL     1      39.822   1.787  13.163  0.00  0.00    +0.000 NA
ATOM      3  C   UNL     1      38.112   0.161  12.407  0.00  0.00    +0.000 C 
ATOM      4  C   UNL     1      39.315   1.066  12.214  0.00  0.00    +0.000 C 
ATOM      5  C   UNL     1      39.722   0.827  10.836  0.00  0.00    +0.000 A 
ATOM      6  C   UNL     1      38.846  -0.163  10.390  0.00  0.00    +0.000 A 
ATOM      7  C   UNL     1      40.720   1.352  10.033  0.00  0.00    +0.000 A 
ATOM      8  C   UNL     1      38.955  -0.659   9.103  0.00  0.00    +0.000 A 
ATOM      9  C   UNL     1      40.831   0.853   8.733  0.00  0.00    +0.000 A 
ATOM     10  C   UNL     1      39.956  -0.145   8.271  0.00  0.00    +0.000 A 
ENDROOT
BRANCH   3  12
ATOM     11  N   UNL     1      36.389  -0.758  15.464  0.00  0.00    +0.000 N 
ATOM     12  C   UNL     1      37.272   0.027  13.574  0.00  0.00    +0.000 A 
ATOM     13  C   UNL     1      36.222   0.908  14.000  0.00  0.00    +0.000 A 
ATOM     14  C   UNL     1      35.682   0.384  15.174  0.00  0.00    +0.000 A 
ATOM     15  C   UNL     1      37.363  -0.976  14.524  0.00  0.00    +0.000 A 
ATOM     16  C   UNL     1      35.666   2.100  13.487  0.00  0.00    +0.000 A 
ATOM     17  C   UNL     1      34.623   0.988  15.862  0.00  0.00    +0.000 A 
ATOM     18  C   UNL     1      34.607   2.718  14.160  0.00  0.00    +0.000 A 
ATOM     19  C   UNL     1      34.093   2.168  15.331  0.00  0.00    +0.000 A 
ATOM     20  H   UNL     1      36.220  -1.331  16.277  0.00  0.00    +0.000 HD
BRANCH  15  21
ATOM     21  O   UNL     1      38.219  -1.987  14.627  0.00  0.00    +0.000 OA
ATOM     22  H   UNL     1      37.865  -2.675  15.213  0.00  0.00    +0.000 HD
ENDBRANCH  15  21
ENDBRANCH   3  12
BRANCH   2  23
ATOM     23  O   UNL     1      40.951   2.494  12.744  0.00  0.00    +0.000 OA
BRANCH  23  24
ATOM     24  C   UNL     1      40.816   3.848  13.168  0.00  0.00    +0.000 C 
BRANCH  24  25
ATOM     25  C   UNL     1      40.868   4.765  11.954  0.00  0.00    +0.000 C 
BRANCH  25  26
ATOM     26  C   UNL     1      39.523   4.949  11.251  0.00  0.00    +0.000 C 
BRANCH  26  27
ATOM     27  O   UNL     1      39.038   6.263  11.565  0.00  0.00    +0.000 OA
ATOM     28  H   UNL     1      39.250   6.381  12.513  0.00  0.00    +0.000 HD
ENDBRANCH  26  27
BRANCH  26  29
ATOM     29  C   UNL     1      39.593   4.816   9.726  0.00  0.00    +0.000 C 
BRANCH  29  30
ATOM     30  O   UNL     1      38.594   3.875   9.315  0.00  0.00    +0.000 OA
ATOM     31  H   UNL     1      38.780   3.047   9.792  0.00  0.00    +0.000 HD
ENDBRANCH  29  30
ENDBRANCH  26  29
ENDBRANCH  25  26
ENDBRANCH  24  25
ENDBRANCH  23  24
ENDBRANCH   2  23
TORSDOF 9
ENDMDL
