MODEL 1
REMARK VINA RESULT:      -8.1      0.000      0.000
REMARK  Name = IPA3.pdbqt.pdb
REMARK  5 active torsions:
REMARK  status: ('A' for Active; 'I' for Inactive)
REMARK    1  A    between atoms: S_1  and  S_2
REMARK    2  A    between atoms: S_1  and  C_15
REMARK    3  A    between atoms: S_2  and  C_3
REMARK    4  A    between atoms: C_10  and  O_13
REMARK    5  A    between atoms: C_22  and  O_25
REMARK                            x       y       z     vdW  Elec       q    Type
REMARK                         _______ _______ _______ _____ _____    ______ ____
ROOT
ATOM      1  S   UNL     1      37.673   0.738  13.033  0.00  0.00    +0.000 S 
ENDROOT
BRANCH   1   2
ATOM      2  C   UNL     1      36.184   0.693  14.041  0.00  0.00    +0.000 A 
ATOM      3  C   UNL     1      35.999  -0.305  15.029  0.00  0.00    +0.000 A 
ATOM      4  C   UNL     1      34.823  -0.281  15.815  0.00  0.00    +0.000 A 
ATOM      5  C   UNL     1      36.933  -1.323  15.289  0.00  0.00    +0.000 A 
ATOM      6  C   UNL     1      33.854   0.698  15.608  0.00  0.00    +0.000 A 
ATOM      7  C   UNL     1      34.618  -1.233  16.814  0.00  0.00    +0.000 A 
ATOM      8  C   UNL     1      34.030   1.665  14.627  0.00  0.00    +0.000 A 
ATOM      9  C   UNL     1      35.186   1.662  13.853  0.00  0.00    +0.000 A 
ATOM     10  C   UNL     1      35.566  -2.224  17.052  0.00  0.00    +0.000 A 
ATOM     11  C   UNL     1      36.725  -2.271  16.289  0.00  0.00    +0.000 A 
BRANCH   9  12
ATOM     12  O   UNL     1      35.293   2.653  12.913  0.00  0.00    +0.000 OA
ATOM     13  H   UNL     1      36.150   2.542  12.463  0.00  0.00    +0.000 HD
ENDBRANCH   9  12
ENDBRANCH   1   2
BRANCH   1  14
ATOM     14  S   UNL     1      36.918   0.347  11.157  0.00  0.00    +0.000 S 
BRANCH  14  15
ATOM     15  C   UNL     1      38.404   0.407  10.146  0.00  0.00    +0.000 A 
ATOM     16  C   UNL     1      39.011   1.641   9.811  0.00  0.00    +0.000 A 
ATOM     17  C   UNL     1      40.195   1.634   9.036  0.00  0.00    +0.000 A 
ATOM     18  C   UNL     1      38.508   2.891  10.216  0.00  0.00    +0.000 A 
ATOM     19  C   UNL     1      40.745   0.434   8.597  0.00  0.00    +0.000 A 
ATOM     20  C   UNL     1      40.833   2.829   8.706  0.00  0.00    +0.000 A 
ATOM     21  C   UNL     1      40.139  -0.777   8.913  0.00  0.00    +0.000 A 
ATOM     22  C   UNL     1      38.981  -0.787   9.682  0.00  0.00    +0.000 A 
ATOM     23  C   UNL     1      40.316   4.050   9.131  0.00  0.00    +0.000 A 
ATOM     24  C   UNL     1      39.150   4.081   9.886  0.00  0.00    +0.000 A 
BRANCH  22  25
ATOM     25  O   UNL     1      38.446  -2.017   9.962  0.00  0.00    +0.000 OA
ATOM     26  H   UNL     1      37.906  -2.286   9.196  0.00  0.00    +0.000 HD
ENDBRANCH  22  25
ENDBRANCH  14  15
ENDBRANCH   1  14
TORSDOF 5
ENDMDL
MODEL 2
REMARK VINA RESULT:      -7.8      2.119      3.092
REMARK  Name = IPA3.pdbqt.pdb
REMARK  5 active torsions:
REMARK  status: ('A' for Active; 'I' for Inactive)
REMARK    1  A    between atoms: S_1  and  S_2
REMARK    2  A    between atoms: S_1  and  C_15
REMARK    3  A    between atoms: S_2  and  C_3
REMARK    4  A    between atoms: C_10  and  O_13
REMARK    5  A    between atoms: C_22  and  O_25
REMARK                            x       y       z     vdW  Elec       q    Type
REMARK                         _______ _______ _______ _____ _____    ______ ____
ROOT
ATOM      1  S   UNL     1      37.656   1.156  13.405  0.00  0.00    +0.000 S 
ENDROOT
BRANCH   1   2
ATOM      2  C   UNL     1      36.785   1.595  14.917  0.00  0.00    +0.000 A 
ATOM      3  C   UNL     1      36.024   0.635  15.627  0.00  0.00    +0.000 A 
ATOM      4  C   UNL     1      35.381   1.023  16.826  0.00  0.00    +0.000 A 
ATOM      5  C   UNL     1      35.877  -0.701  15.214  0.00  0.00    +0.000 A 
ATOM      6  C   UNL     1      35.481   2.332  17.291  0.00  0.00    +0.000 A 
ATOM      7  C   UNL     1      34.642   0.099  17.565  0.00  0.00    +0.000 A 
ATOM      8  C   UNL     1      36.215   3.275  16.584  0.00  0.00    +0.000 A 
ATOM      9  C   UNL     1      36.862   2.907  15.409  0.00  0.00    +0.000 A 
ATOM     10  C   UNL     1      34.522  -1.219  17.134  0.00  0.00    +0.000 A 
ATOM     11  C   UNL     1      35.139  -1.620  15.956  0.00  0.00    +0.000 A 
BRANCH   9  12
ATOM     12  O   UNL     1      37.575   3.889  14.772  0.00  0.00    +0.000 OA
ATOM     13  H   UNL     1      38.384   4.051  15.290  0.00  0.00    +0.000 HD
ENDBRANCH   9  12
ENDBRANCH   1   2
BRANCH   1  14
ATOM     14  S   UNL     1      36.491   2.072  11.973  0.00  0.00    +0.000 S 
BRANCH  14  15
ATOM     15  C   UNL     1      37.711   2.478  10.716  0.00  0.00    +0.000 A 
ATOM     16  C   UNL     1      37.955   1.610   9.625  0.00  0.00    +0.000 A 
ATOM     17  C   UNL     1      38.905   1.987   8.648  0.00  0.00    +0.000 A 
ATOM     18  C   UNL     1      37.291   0.382   9.445  0.00  0.00    +0.000 A 
ATOM     19  C   UNL     1      39.602   3.186   8.765  0.00  0.00    +0.000 A 
ATOM     20  C   UNL     1      39.154   1.167   7.547  0.00  0.00    +0.000 A 
ATOM     21  C   UNL     1      39.373   4.030   9.845  0.00  0.00    +0.000 A 
ATOM     22  C   UNL     1      38.435   3.678  10.809  0.00  0.00    +0.000 A 
ATOM     23  C   UNL     1      38.473  -0.038   7.393  0.00  0.00    +0.000 A 
ATOM     24  C   UNL     1      37.541  -0.432   8.345  0.00  0.00    +0.000 A 
BRANCH  22  25
ATOM     25  O   UNL     1      38.257   4.565  11.838  0.00  0.00    +0.000 OA
ATOM     26  H   UNL     1      39.103   4.634  12.318  0.00  0.00    +0.000 HD
ENDBRANCH  22  25
ENDBRANCH  14  15
ENDBRANCH   1  14
TORSDOF 5
ENDMDL
MODEL 3
REMARK VINA RESULT:      -7.8     19.040     22.321
REMARK  Name = IPA3.pdbqt.pdb
REMARK  5 active torsions:
REMARK  status: ('A' for Active; 'I' for Inactive)
REMARK    1  A    between atoms: S_1  and  S_2
REMARK    2  A    between atoms: S_1  and  C_15
REMARK    3  A    between atoms: S_2  and  C_3
REMARK    4  A    between atoms: C_10  and  O_13
REMARK    5  A    between atoms: C_22  and  O_25
REMARK                            x       y       z     vdW  Elec       q    Type
REMARK                         _______ _______ _______ _____ _____    ______ ____
ROOT
ATOM      1  S   UNL     1      19.614  11.663  21.170  0.00  0.00    +0.000 S 
ENDROOT
BRANCH   1   2
ATOM      2  C   UNL     1      19.384  13.446  21.207  0.00  0.00    +0.000 A 
ATOM      3  C   UNL     1      20.306  14.316  20.576  0.00  0.00    +0.000 A 
ATOM      4  C   UNL     1      20.066  15.710  20.609  0.00  0.00    +0.000 A 
ATOM      5  C   UNL     1      21.455  13.872  19.897  0.00  0.00    +0.000 A 
ATOM      6  C   UNL     1      18.949  16.220  21.268  0.00  0.00    +0.000 A 
ATOM      7  C   UNL     1      20.939  16.595  19.978  0.00  0.00    +0.000 A 
ATOM      8  C   UNL     1      18.055  15.365  21.901  0.00  0.00    +0.000 A 
ATOM      9  C   UNL     1      18.272  13.992  21.868  0.00  0.00    +0.000 A 
ATOM     10  C   UNL     1      22.063  16.123  19.307  0.00  0.00    +0.000 A 
ATOM     11  C   UNL     1      22.323  14.760  19.267  0.00  0.00    +0.000 A 
BRANCH   9  12
ATOM     12  O   UNL     1      17.343  13.212  22.505  0.00  0.00    +0.000 OA
ATOM     13  H   UNL     1      16.770  13.802  23.028  0.00  0.00    +0.000 HD
ENDBRANCH   9  12
ENDBRANCH   1   2
BRANCH   1  14
ATOM     14  S   UNL     1      18.560  11.142  19.478  0.00  0.00    +0.000 S 
BRANCH  14  15
ATOM     15  C   UNL     1      19.600   9.850  18.784  0.00  0.00    +0.000 A 
ATOM     16  C   UNL     1      20.691  10.164  17.939  0.00  0.00    +0.000 A 
ATOM     17  C   UNL     1      21.496   9.113  17.441  0.00  0.00    +0.000 A 
ATOM     18  C   UNL     1      21.035  11.476  17.569  0.00  0.00    +0.000 A 
ATOM     19  C   UNL     1      21.210   7.789  17.763  0.00  0.00    +0.000 A 
ATOM     20  C   UNL     1      22.593   9.385  16.624  0.00  0.00    +0.000 A 
ATOM     21  C   UNL     1      20.128   7.481  18.581  0.00  0.00    +0.000 A 
ATOM     22  C   UNL     1      19.334   8.504  19.086  0.00  0.00    +0.000 A 
ATOM     23  C   UNL     1      22.913  10.697  16.283  0.00  0.00    +0.000 A 
ATOM     24  C   UNL     1      22.132  11.745  16.754  0.00  0.00    +0.000 A 
BRANCH  22  25
ATOM     25  O   UNL     1      18.293   8.125  19.892  0.00  0.00    +0.000 OA
ATOM     26  H   UNL     1      18.321   8.681  20.693  0.00  0.00    +0.000 HD
ENDBRANCH  22  25
ENDBRANCH  14  15
ENDBRANCH   1  14
TORSDOF 5
ENDMDL
MODEL 4
REMARK VINA RESULT:      -7.7      2.205      7.885
REMARK  Name = IPA3.pdbqt.pdb
REMARK  5 active torsions:
REMARK  status: ('A' for Active; 'I' for Inactive)
REMARK    1  A    between atoms: S_1  and  S_2
REMARK    2  A    between atoms: S_1  and  C_15
REMARK    3  A    between atoms: S_2  and  C_3
REMARK    4  A    between atoms: C_10  and  O_13
REMARK    5  A    between atoms: C_22  and  O_25
REMARK                            x       y       z     vdW  Elec       q    Type
REMARK                         _______ _______ _______ _____ _____    ______ ____
ROOT
ATOM      1  S   UNL     1      37.651   0.480  12.968  0.00  0.00    +0.000 S 
ENDROOT
BRANCH   1   2
ATOM      2  C   UNL     1      38.605   1.055  11.555  0.00  0.00    +0.000 A 
ATOM      3  C   UNL     1      38.158   0.831  10.230  0.00  0.00    +0.000 A 
ATOM      4  C   UNL     1      38.930   1.328   9.154  0.00  0.00    +0.000 A 
ATOM      5  C   UNL     1      36.971   0.146   9.916  0.00  0.00    +0.000 A 
ATOM      6  C   UNL     1      40.120   2.011   9.392  0.00  0.00    +0.000 A 
ATOM      7  C   UNL     1      38.509   1.146   7.837  0.00  0.00    +0.000 A 
ATOM      8  C   UNL     1      40.564   2.216  10.693  0.00  0.00    +0.000 A 
ATOM      9  C   UNL     1      39.811   1.743  11.762  0.00  0.00    +0.000 A 
ATOM     10  C   UNL     1      37.324   0.472   7.559  0.00  0.00    +0.000 A 
ATOM     11  C   UNL     1      36.553  -0.031   8.599  0.00  0.00    +0.000 A 
BRANCH   9  12
ATOM     12  O   UNL     1      40.308   1.991  13.015  0.00  0.00    +0.000 OA
ATOM     13  H   UNL     1      40.545   2.935  13.058  0.00  0.00    +0.000 HD
ENDBRANCH   9  12
ENDBRANCH   1   2
BRANCH   1  14
ATOM     14  S   UNL     1      36.356   2.055  13.264  0.00  0.00    +0.000 S 
BRANCH  14  15
ATOM     15  C   UNL     1      36.005   1.912  15.022  0.00  0.00    +0.000 A 
ATOM     16  C   UNL     1      35.116   0.925  15.512  0.00  0.00    +0.000 A 
ATOM     17  C   UNL     1      34.895   0.835  16.907  0.00  0.00    +0.000 A 
ATOM     18  C   UNL     1      34.440   0.009  14.687  0.00  0.00    +0.000 A 
ATOM     19  C   UNL     1      35.527   1.714  17.781  0.00  0.00    +0.000 A 
ATOM     20  C   UNL     1      34.043  -0.139  17.428  0.00  0.00    +0.000 A 
ATOM     21  C   UNL     1      36.388   2.692  17.297  0.00  0.00    +0.000 A 
ATOM     22  C   UNL     1      36.624   2.787  15.930  0.00  0.00    +0.000 A 
ATOM     23  C   UNL     1      33.396  -1.038  16.585  0.00  0.00    +0.000 A 
ATOM     24  C   UNL     1      33.592  -0.963  15.212  0.00  0.00    +0.000 A 
BRANCH  22  25
ATOM     25  O   UNL     1      37.491   3.768  15.528  0.00  0.00    +0.000 OA
ATOM     26  H   UNL     1      37.289   4.570  16.045  0.00  0.00    +0.000 HD
ENDBRANCH  22  25
ENDBRANCH  14  15
ENDBRANCH   1  14
TORSDOF 5
ENDMDL
MODEL 5
REMARK VINA RESULT:      -7.5      2.200      7.384
REMARK  Name = IPA3.pdbqt.pdb
REMARK  5 active torsions:
REMARK  status: ('A' for Active; 'I' for Inactive)
REMARK    1  A    between atoms: S_1  and  S_2
REMARK    2  A    between atoms: S_1  and  C_15
REMARK    3  A    between atoms: S_2  and  C_3
REMARK    4  A    between atoms: C_10  and  O_13
REMARK    5  A    between atoms: C_22  and  O_25
REMARK                            x       y       z     vdW  Elec       q    Type
REMARK                         _______ _______ _______ _____ _____    ______ ____
ROOT
ATOM      1  S   UNL     1      38.684   1.176  13.124  0.00  0.00    +0.000 S 
ENDROOT
BRANCH   1   2
ATOM      2  C   UNL     1      39.601   1.318  11.583  0.00  0.00    +0.000 A 
ATOM      3  C   UNL     1      38.953   1.185  10.331  0.00  0.00    +0.000 A 
ATOM      4  C   UNL     1      39.714   1.334   9.147  0.00  0.00    +0.000 A 
ATOM      5  C   UNL     1      37.579   0.925  10.190  0.00  0.00    +0.000 A 
ATOM      6  C   UNL     1      41.081   1.589   9.212  0.00  0.00    +0.000 A 
ATOM      7  C   UNL     1      39.105   1.233   7.896  0.00  0.00    +0.000 A 
ATOM      8  C   UNL     1      41.718   1.703  10.442  0.00  0.00    +0.000 A 
ATOM      9  C   UNL     1      40.982   1.570  11.615  0.00  0.00    +0.000 A 
ATOM     10  C   UNL     1      37.740   0.983   7.791  0.00  0.00    +0.000 A 
ATOM     11  C   UNL     1      36.975   0.827   8.939  0.00  0.00    +0.000 A 
BRANCH   9  12
ATOM     12  O   UNL     1      41.676   1.705  12.788  0.00  0.00    +0.000 OA
ATOM     13  H   UNL     1      42.500   2.187  12.592  0.00  0.00    +0.000 HD
ENDBRANCH   9  12
ENDBRANCH   1   2
BRANCH   1  14
ATOM     14  S   UNL     1      38.137  -0.811  13.101  0.00  0.00    +0.000 S 
BRANCH  14  15
ATOM     15  C   UNL     1      37.047  -0.905  14.528  0.00  0.00    +0.000 A 
ATOM     16  C   UNL     1      35.986   0.016  14.700  0.00  0.00    +0.000 A 
ATOM     17  C   UNL     1      35.139  -0.118  15.825  0.00  0.00    +0.000 A 
ATOM     18  C   UNL     1      35.711   1.062  13.801  0.00  0.00    +0.000 A 
ATOM     19  C   UNL     1      35.357  -1.128  16.758  0.00  0.00    +0.000 A 
ATOM     20  C   UNL     1      34.070   0.757  16.016  0.00  0.00    +0.000 A 
ATOM     21  C   UNL     1      36.409  -2.022  16.596  0.00  0.00    +0.000 A 
ATOM     22  C   UNL     1      37.244  -1.910  15.489  0.00  0.00    +0.000 A 
ATOM     23  C   UNL     1      33.818   1.777  15.102  0.00  0.00    +0.000 A 
ATOM     24  C   UNL     1      34.641   1.932  13.994  0.00  0.00    +0.000 A 
BRANCH  22  25
ATOM     25  O   UNL     1      38.252  -2.832  15.392  0.00  0.00    +0.000 OA
ATOM     26  H   UNL     1      38.616  -2.777  14.489  0.00  0.00    +0.000 HD
ENDBRANCH  22  25
ENDBRANCH  14  15
ENDBRANCH   1  14
TORSDOF 5
ENDMDL
MODEL 6
REMARK VINA RESULT:      -7.4     19.081     22.921
REMARK  Name = IPA3.pdbqt.pdb
REMARK  5 active torsions:
REMARK  status: ('A' for Active; 'I' for Inactive)
REMARK    1  A    between atoms: S_1  and  S_2
REMARK    2  A    between atoms: S_1  and  C_15
REMARK    3  A    between atoms: S_2  and  C_3
REMARK    4  A    between atoms: C_10  and  O_13
REMARK    5  A    between atoms: C_22  and  O_25
REMARK                            x       y       z     vdW  Elec       q    Type
REMARK                         _______ _______ _______ _____ _____    ______ ____
ROOT
ATOM      1  S   UNL     1      19.515  12.438  18.838  0.00  0.00    +0.000 S 
ENDROOT
BRANCH   1   2
ATOM      2  C   UNL     1      20.635  11.285  18.029  0.00  0.00    +0.000 A 
ATOM      3  C   UNL     1      20.501   9.887  18.208  0.00  0.00    +0.000 A 
ATOM      4  C   UNL     1      21.389   9.021  17.527  0.00  0.00    +0.000 A 
ATOM      5  C   UNL     1      19.516   9.298  19.021  0.00  0.00    +0.000 A 
ATOM      6  C   UNL     1      22.391   9.537  16.709  0.00  0.00    +0.000 A 
ATOM      7  C   UNL     1      21.272   7.638  17.660  0.00  0.00    +0.000 A 
ATOM      8  C   UNL     1      22.531  10.910  16.549  0.00  0.00    +0.000 A 
ATOM      9  C   UNL     1      21.659  11.774  17.202  0.00  0.00    +0.000 A 
ATOM     10  C   UNL     1      20.281   7.086  18.466  0.00  0.00    +0.000 A 
ATOM     11  C   UNL     1      19.402   7.916  19.149  0.00  0.00    +0.000 A 
BRANCH   9  12
ATOM     12  O   UNL     1      21.853  13.113  16.988  0.00  0.00    +0.000 OA
ATOM     13  H   UNL     1      22.139  13.510  17.830  0.00  0.00    +0.000 HD
ENDBRANCH   9  12
ENDBRANCH   1   2
BRANCH   1  14
ATOM     14  S   UNL     1      20.577  12.929  20.534  0.00  0.00    +0.000 S 
BRANCH  14  15
ATOM     15  C   UNL     1      20.621  14.724  20.428  0.00  0.00    +0.000 A 
ATOM     16  C   UNL     1      19.622  15.517  21.042  0.00  0.00    +0.000 A 
ATOM     17  C   UNL     1      19.717  16.926  20.955  0.00  0.00    +0.000 A 
ATOM     18  C   UNL     1      18.533  14.983  21.755  0.00  0.00    +0.000 A 
ATOM     19  C   UNL     1      20.765  17.522  20.261  0.00  0.00    +0.000 A 
ATOM     20  C   UNL     1      18.764  17.740  21.566  0.00  0.00    +0.000 A 
ATOM     21  C   UNL     1      21.737  16.742  19.645  0.00  0.00    +0.000 A 
ATOM     22  C   UNL     1      21.663  15.356  19.731  0.00  0.00    +0.000 A 
ATOM     23  C   UNL     1      17.703  17.180  22.273  0.00  0.00    +0.000 A 
ATOM     24  C   UNL     1      17.585  15.799  22.366  0.00  0.00    +0.000 A 
BRANCH  22  25
ATOM     25  O   UNL     1      22.661  14.653  19.108  0.00  0.00    +0.000 OA
ATOM     26  H   UNL     1      22.244  14.071  18.447  0.00  0.00    +0.000 HD
ENDBRANCH  22  25
ENDBRANCH  14  15
ENDBRANCH   1  14
TORSDOF 5
ENDMDL
MODEL 7
REMARK VINA RESULT:      -7.4     19.432     22.612
REMARK  Name = IPA3.pdbqt.pdb
REMARK  5 active torsions:
REMARK  status: ('A' for Active; 'I' for Inactive)
REMARK    1  A    between atoms: S_1  and  S_2
REMARK    2  A    between atoms: S_1  and  C_15
REMARK    3  A    between atoms: S_2  and  C_3
REMARK    4  A    between atoms: C_10  and  O_13
REMARK    5  A    between atoms: C_22  and  O_25
REMARK                            x       y       z     vdW  Elec       q    Type
REMARK                         _______ _______ _______ _____ _____    ______ ____
ROOT
ATOM      1  S   UNL     1      18.686  10.974  19.511  0.00  0.00    +0.000 S 
ENDROOT
BRANCH   1   2
ATOM      2  C   UNL     1      19.631   9.603  18.831  0.00  0.00    +0.000 A 
ATOM      3  C   UNL     1      19.320   8.262  19.165  0.00  0.00    +0.000 A 
ATOM      4  C   UNL     1      20.076   7.218  18.581  0.00  0.00    +0.000 A 
ATOM      5  C   UNL     1      18.283   7.901  20.042  0.00  0.00    +0.000 A 
ATOM      6  C   UNL     1      21.121   7.505  17.706  0.00  0.00    +0.000 A 
ATOM      7  C   UNL     1      19.783   5.885  18.868  0.00  0.00    +0.000 A 
ATOM      8  C   UNL     1      21.435   8.821  17.393  0.00  0.00    +0.000 A 
ATOM      9  C   UNL     1      20.694   9.859  17.950  0.00  0.00    +0.000 A 
ATOM     10  C   UNL     1      18.744   5.560  19.734  0.00  0.00    +0.000 A 
ATOM     11  C   UNL     1      17.993   6.568  20.324  0.00  0.00    +0.000 A 
BRANCH   9  12
ATOM     12  O   UNL     1      21.056  11.130  17.587  0.00  0.00    +0.000 OA
ATOM     13  H   UNL     1      21.477  11.550  18.359  0.00  0.00    +0.000 HD
ENDBRANCH   9  12
ENDBRANCH   1   2
BRANCH   1  14
ATOM     14  S   UNL     1      19.802  11.466  21.172  0.00  0.00    +0.000 S 
BRANCH  14  15
ATOM     15  C   UNL     1      19.527  13.239  21.283  0.00  0.00    +0.000 A 
ATOM     16  C   UNL     1      20.356  14.153  20.589  0.00  0.00    +0.000 A 
ATOM     17  C   UNL     1      20.081  15.538  20.687  0.00  0.00    +0.000 A 
ATOM     18  C   UNL     1      21.444  13.763  19.788  0.00  0.00    +0.000 A 
ATOM     19  C   UNL     1      19.022  15.995  21.466  0.00  0.00    +0.000 A 
ATOM     20  C   UNL     1      20.862  16.466  19.999  0.00  0.00    +0.000 A 
ATOM     21  C   UNL     1      18.218  15.097  22.159  0.00  0.00    +0.000 A 
ATOM     22  C   UNL     1      18.470  13.733  22.065  0.00  0.00    +0.000 A 
ATOM     23  C   UNL     1      21.926  16.047  19.206  0.00  0.00    +0.000 A 
ATOM     24  C   UNL     1      22.220  14.693  19.102  0.00  0.00    +0.000 A 
BRANCH  22  25
ATOM     25  O   UNL     1      17.631  12.909  22.768  0.00  0.00    +0.000 OA
ATOM     26  H   UNL     1      18.176  12.394  23.392  0.00  0.00    +0.000 HD
ENDBRANCH  22  25
ENDBRANCH  14  15
ENDBRANCH   1  14
TORSDOF 5
ENDMDL
MODEL 8
REMARK VINA RESULT:      -7.4      1.894      7.827
REMARK  Name = IPA3.pdbqt.pdb
REMARK  5 active torsions:
REMARK  status: ('A' for Active; 'I' for Inactive)
REMARK    1  A    between atoms: S_1  and  S_2
REMARK    2  A    between atoms: S_1  and  C_15
REMARK    3  A    between atoms: S_2  and  C_3
REMARK    4  A    between atoms: C_10  and  O_13
REMARK    5  A    between atoms: C_22  and  O_25
REMARK                            x       y       z     vdW  Elec       q    Type
REMARK                         _______ _______ _______ _____ _____    ______ ____
ROOT
ATOM      1  S   UNL     1      37.216   0.488  12.042  0.00  0.00    +0.000 S 
ENDROOT
BRANCH   1   2
ATOM      2  C   UNL     1      37.707   0.837  10.346  0.00  0.00    +0.000 A 
ATOM      3  C   UNL     1      38.739   1.763  10.059  0.00  0.00    +0.000 A 
ATOM      4  C   UNL     1      39.107   1.982   8.711  0.00  0.00    +0.000 A 
ATOM      5  C   UNL     1      39.438   2.479  11.047  0.00  0.00    +0.000 A 
ATOM      6  C   UNL     1      38.453   1.310   7.681  0.00  0.00    +0.000 A 
ATOM      7  C   UNL     1      40.134   2.869   8.392  0.00  0.00    +0.000 A 
ATOM      8  C   UNL     1      37.430   0.414   7.964  0.00  0.00    +0.000 A 
ATOM      9  C   UNL     1      37.063   0.180   9.286  0.00  0.00    +0.000 A 
ATOM     10  C   UNL     1      40.813   3.556   9.394  0.00  0.00    +0.000 A 
ATOM     11  C   UNL     1      40.465   3.362  10.724  0.00  0.00    +0.000 A 
BRANCH   9  12
ATOM     12  O   UNL     1      36.054  -0.724   9.488  0.00  0.00    +0.000 OA
ATOM     13  H   UNL     1      35.570  -0.821   8.647  0.00  0.00    +0.000 HD
ENDBRANCH   9  12
ENDBRANCH   1   2
BRANCH   1  14
ATOM     14  S   UNL     1      35.900   2.027  12.419  0.00  0.00    +0.000 S 
BRANCH  14  15
ATOM     15  C   UNL     1      35.895   2.069  14.217  0.00  0.00    +0.000 A 
ATOM     16  C   UNL     1      35.101   1.169  14.967  0.00  0.00    +0.000 A 
ATOM     17  C   UNL     1      35.153   1.223  16.380  0.00  0.00    +0.000 A 
ATOM     18  C   UNL     1      34.260   0.202  14.386  0.00  0.00    +0.000 A 
ATOM     19  C   UNL     1      35.959   2.158  17.022  0.00  0.00    +0.000 A 
ATOM     20  C   UNL     1      34.401   0.337  17.152  0.00  0.00    +0.000 A 
ATOM     21  C   UNL     1      36.726   3.052  16.284  0.00  0.00    +0.000 A 
ATOM     22  C   UNL     1      36.694   3.004  14.895  0.00  0.00    +0.000 A 
ATOM     23  C   UNL     1      33.586  -0.615  16.546  0.00  0.00    +0.000 A 
ATOM     24  C   UNL     1      33.514  -0.682  15.160  0.00  0.00    +0.000 A 
BRANCH  22  25
ATOM     25  O   UNL     1      37.483   3.909  14.236  0.00  0.00    +0.000 OA
ATOM     26  H   UNL     1      37.284   4.793  14.596  0.00  0.00    +0.000 HD
ENDBRANCH  22  25
ENDBRANCH  14  15
ENDBRANCH   1  14
TORSDOF 5
ENDMDL
MODEL 9
REMARK VINA RESULT:      -6.9      2.537      7.269
REMARK  Name = IPA3.pdbqt.pdb
REMARK  5 active torsions:
REMARK  status: ('A' for Active; 'I' for Inactive)
REMARK    1  A    between atoms: S_1  and  S_2
REMARK    2  A    between atoms: S_1  and  C_15
REMARK    3  A    between atoms: S_2  and  C_3
REMARK    4  A    between atoms: C_10  and  O_13
REMARK    5  A    between atoms: C_22  and  O_25
REMARK                            x       y       z     vdW  Elec       q    Type
REMARK                         _______ _______ _______ _____ _____    ______ ____
ROOT
ATOM      1  S   UNL     1      37.048   0.099  11.478  0.00  0.00    +0.000 S 
ENDROOT
BRANCH   1   2
ATOM      2  C   UNL     1      38.000  -0.086   9.963  0.00  0.00    +0.000 A 
ATOM      3  C   UNL     1      39.381  -0.400  10.001  0.00  0.00    +0.000 A 
ATOM      4  C   UNL     1      40.079  -0.564   8.781  0.00  0.00    +0.000 A 
ATOM      5  C   UNL     1      40.106  -0.575  11.192  0.00  0.00    +0.000 A 
ATOM      6  C   UNL     1      39.423  -0.401   7.563  0.00  0.00    +0.000 A 
ATOM      7  C   UNL     1      41.433  -0.897   8.779  0.00  0.00    +0.000 A 
ATOM      8  C   UNL     1      38.073  -0.077   7.530  0.00  0.00    +0.000 A 
ATOM      9  C   UNL     1      37.369   0.077   8.720  0.00  0.00    +0.000 A 
ATOM     10  C   UNL     1      42.121  -1.071   9.976  0.00  0.00    +0.000 A 
ATOM     11  C   UNL     1      41.458  -0.909  11.185  0.00  0.00    +0.000 A 
BRANCH   9  12
ATOM     12  O   UNL     1      36.040   0.387   8.607  0.00  0.00    +0.000 OA
ATOM     13  H   UNL     1      35.596   0.089   9.422  0.00  0.00    +0.000 HD
ENDBRANCH   9  12
ENDBRANCH   1   2
BRANCH   1  14
ATOM     14  S   UNL     1      36.699   2.130  11.504  0.00  0.00    +0.000 S 
BRANCH  14  15
ATOM     15  C   UNL     1      36.701   2.477  13.269  0.00  0.00    +0.000 A 
ATOM     16  C   UNL     1      35.788   1.838  14.141  0.00  0.00    +0.000 A 
ATOM     17  C   UNL     1      35.848   2.124  15.525  0.00  0.00    +0.000 A 
ATOM     18  C   UNL     1      34.819   0.913  13.711  0.00  0.00    +0.000 A 
ATOM     19  C   UNL     1      36.778   3.033  16.019  0.00  0.00    +0.000 A 
ATOM     20  C   UNL     1      34.979   1.496  16.417  0.00  0.00    +0.000 A 
ATOM     21  C   UNL     1      37.664   3.672  15.159  0.00  0.00    +0.000 A 
ATOM     22  C   UNL     1      37.624   3.393  13.798  0.00  0.00    +0.000 A 
ATOM     23  C   UNL     1      34.037   0.577  15.961  0.00  0.00    +0.000 A 
ATOM     24  C   UNL     1      33.955   0.287  14.605  0.00  0.00    +0.000 A 
BRANCH  22  25
ATOM     25  O   UNL     1      38.534   4.054  13.015  0.00  0.00    +0.000 OA
ATOM     26  H   UNL     1      38.611   4.964  13.355  0.00  0.00    +0.000 HD
ENDBRANCH  22  25
ENDBRANCH  14  15
ENDBRANCH   1  14
TORSDOF 5
ENDMDL
