MODEL 1
REMARK VINA RESULT:      -8.8      0.000      0.000
REMARK  Name = 
REMARK  8 active torsions:
REMARK  status: ('A' for Active; 'I' for Inactive)
REMARK    1  A    between atoms: O_1  and  C_21
REMARK    2  A    between atoms: O_1  and  C_38
REMARK    3  A    between atoms: O_4  and  C_26
REMARK    4  A    between atoms: N_7  and  C_11
REMARK    5  A    between atoms: C_26  and  C_33
REMARK    6  A    between atoms: C_29  and  C_37
REMARK    7  A    between atoms: C_33  and  C_42
REMARK    8  A    between atoms: C_37  and  C_43
REMARK                            x       y       z     vdW  Elec       q    Type
REMARK                         _______ _______ _______ _____ _____    ______ ____
ROOT
ATOM      1  O   UNL     1      35.848 -15.821  35.763  0.00  0.00    +0.000 OA
ATOM      2  O   UNL     1      36.090 -11.630  35.406  0.00  0.00    +0.000 OA
ATOM      3  O   UNL     1      36.370 -17.466  37.202  0.00  0.00    +0.000 OA
ATOM      4  N   UNL     1      35.965 -11.345  37.680  0.00  0.00    +0.000 N 
ATOM      5  N   UNL     1      35.723 -10.868  41.227  0.00  0.00    +0.000 NA
ATOM      6  C   UNL     1      35.787 -11.864  38.947  0.00  0.00    +0.000 A 
ATOM      7  C   UNL     1      36.087  -9.592  39.192  0.00  0.00    +0.000 A 
ATOM      8  C   UNL     1      36.168  -9.894  37.723  0.00  0.00    +0.000 C 
ATOM      9  C   UNL     1      35.558 -14.060  37.983  0.00  0.00    +0.000 A 
ATOM     10  C   UNL     1      35.287 -15.532  38.171  0.00  0.00    +0.000 C 
ATOM     11  C   UNL     1      35.860 -10.764  39.903  0.00  0.00    +0.000 A 
ATOM     12  C   UNL     1      35.732 -13.561  36.744  0.00  0.00    +0.000 A 
ATOM     13  C   UNL     1      36.194  -8.392  39.880  0.00  0.00    +0.000 A 
ATOM     14  C   UNL     1      35.585 -13.171  39.139  0.00  0.00    +0.000 A 
ATOM     15  C   UNL     1      35.950 -12.094  36.533  0.00  0.00    +0.000 A 
ATOM     16  C   UNL     1      36.040  -8.444  41.296  0.00  0.00    +0.000 A 
ATOM     17  C   UNL     1      35.702 -14.406  35.519  0.00  0.00    +0.000 C 
ATOM     18  C   UNL     1      35.810  -9.718  41.912  0.00  0.00    +0.000 A 
ATOM     19  C   UNL     1      35.902 -16.343  37.007  0.00  0.00    +0.000 C 
ATOM     20  C   UNL     1      35.931  -7.420  43.505  0.00  0.00    +0.000 A 
ATOM     21  C   UNL     1      36.102  -7.304  42.126  0.00  0.00    +0.000 A 
ATOM     22  C   UNL     1      35.667  -9.788  43.291  0.00  0.00    +0.000 A 
ATOM     23  C   UNL     1      35.732  -8.654  44.101  0.00  0.00    +0.000 A 
ENDROOT
BRANCH  10  24
ATOM     24  O   UNL     1      35.901 -15.961  39.394  0.00  0.00    +0.000 OA
ATOM     25  H   UNL     1      36.253 -16.857  39.223  0.00  0.00    +0.000 HD
ENDBRANCH  10  24
BRANCH  10  26
ATOM     26  C   UNL     1      33.769 -15.796  38.252  0.00  0.00    +0.000 C 
ATOM     27  C   UNL     1      33.322 -16.541  39.506  0.00  0.00    +0.000 C 
ENDBRANCH  10  26
BRANCH  13  28
ATOM     28  C   UNL     1      36.427  -7.109  39.120  0.00  0.00    +0.000 C 
ATOM     29  C   UNL     1      35.195  -6.671  38.342  0.00  0.00    +0.000 C 
ENDBRANCH  13  28
BRANCH  20  30
ATOM     30  O   UNL     1      36.040  -6.281  44.302  0.00  0.00    +0.000 OA
BRANCH  30  38
ATOM     31  O   UNL     1      33.893  -6.050  45.138  0.00  0.00    +0.000 OA
ATOM     32  N   UNL     1      34.814  -4.374  43.855  0.00  0.00    +0.000 N 
ATOM     33  C   UNL     1      34.303  -2.350  41.804  0.00  0.00    +0.000 C 
ATOM     34  C   UNL     1      35.508  -3.322  41.747  0.00  0.00    +0.000 C 
ATOM     35  C   UNL     1      33.174  -3.022  42.627  0.00  0.00    +0.000 C 
ATOM     36  C   UNL     1      35.937  -3.806  43.129  0.00  0.00    +0.000 C 
ATOM     37  C   UNL     1      33.657  -3.511  43.989  0.00  0.00    +0.000 C 
ATOM     38  C   UNL     1      34.837  -5.607  44.489  0.00  0.00    +0.000 C 
BRANCH  33  39
ATOM     39  N   UNL     1      33.835  -1.954  40.438  0.00  0.00    +0.000 NA
ATOM     40  C   UNL     1      34.498  -0.722  39.960  0.00  0.00    +0.000 C 
ATOM     41  C   UNL     1      34.016  -3.037  39.449  0.00  0.00    +0.000 C 
ATOM     42  C   UNL     1      34.010  -0.283  38.578  0.00  0.00    +0.000 C 
ATOM     43  C   UNL     1      33.517  -2.657  38.053  0.00  0.00    +0.000 C 
ATOM     44  C   UNL     1      34.183  -1.388  37.550  0.00  0.00    +0.000 C 
ENDBRANCH  33  39
ENDBRANCH  30  38
ENDBRANCH  20  30
TORSDOF 6
ENDMDL
MODEL 2
REMARK VINA RESULT:      -7.6     26.749     30.288
REMARK  Name = 
REMARK  8 active torsions:
REMARK  status: ('A' for Active; 'I' for Inactive)
REMARK    1  A    between atoms: O_1  and  C_21
REMARK    2  A    between atoms: O_1  and  C_38
REMARK    3  A    between atoms: O_4  and  C_26
REMARK    4  A    between atoms: N_7  and  C_11
REMARK    5  A    between atoms: C_26  and  C_33
REMARK    6  A    between atoms: C_29  and  C_37
REMARK    7  A    between atoms: C_33  and  C_42
REMARK    8  A    between atoms: C_37  and  C_43
REMARK                            x       y       z     vdW  Elec       q    Type
REMARK                         _______ _______ _______ _____ _____    ______ ____
ROOT
ATOM      1  O   UNL     1      51.315  -1.327  14.708  0.00  0.00    +0.000 OA
ATOM      2  O   UNL     1      48.424  -3.504  12.551  0.00  0.00    +0.000 OA
ATOM      3  O   UNL     1      51.977   0.791  15.060  0.00  0.00    +0.000 OA
ATOM      4  N   UNL     1      46.936  -1.758  12.622  0.00  0.00    +0.000 N 
ATOM      5  N   UNL     1      44.571   0.935  12.760  0.00  0.00    +0.000 NA
ATOM      6  C   UNL     1      46.579  -0.503  13.070  0.00  0.00    +0.000 A 
ATOM      7  C   UNL     1      44.837  -1.267  11.768  0.00  0.00    +0.000 A 
ATOM      8  C   UNL     1      45.888  -2.339  11.776  0.00  0.00    +0.000 C 
ATOM      9  C   UNL     1      48.678  -0.358  14.244  0.00  0.00    +0.000 A 
ATOM     10  C   UNL     1      49.591   0.407  15.169  0.00  0.00    +0.000 C 
ATOM     11  C   UNL     1      45.258  -0.188  12.538  0.00  0.00    +0.000 A 
ATOM     12  C   UNL     1      49.033  -1.583  13.810  0.00  0.00    +0.000 A 
ATOM     13  C   UNL     1      43.596  -1.215  11.149  0.00  0.00    +0.000 A 
ATOM     14  C   UNL     1      47.391   0.209  13.858  0.00  0.00    +0.000 A 
ATOM     15  C   UNL     1      48.116  -2.380  12.934  0.00  0.00    +0.000 A 
ATOM     16  C   UNL     1      42.816  -0.043  11.367  0.00  0.00    +0.000 A 
ATOM     17  C   UNL     1      50.322  -2.230  14.177  0.00  0.00    +0.000 C 
ATOM     18  C   UNL     1      43.362   1.001  12.182  0.00  0.00    +0.000 A 
ATOM     19  C   UNL     1      51.059  -0.024  14.950  0.00  0.00    +0.000 C 
ATOM     20  C   UNL     1      40.808   1.309  11.082  0.00  0.00    +0.000 A 
ATOM     21  C   UNL     1      41.527   0.144  10.821  0.00  0.00    +0.000 A 
ATOM     22  C   UNL     1      42.618   2.154  12.397  0.00  0.00    +0.000 A 
ATOM     23  C   UNL     1      41.347   2.328  11.850  0.00  0.00    +0.000 A 
ENDROOT
BRANCH  10  24
ATOM     24  O   UNL     1      49.481   1.806  14.872  0.00  0.00    +0.000 OA
ATOM     25  H   UNL     1      49.812   2.279  15.662  0.00  0.00    +0.000 HD
ENDBRANCH  10  24
BRANCH  10  26
ATOM     26  C   UNL     1      49.188   0.174  16.641  0.00  0.00    +0.000 C 
ATOM     27  C   UNL     1      50.089   0.865  17.661  0.00  0.00    +0.000 C 
ENDBRANCH  10  26
BRANCH  13  28
ATOM     28  C   UNL     1      43.121  -2.384  10.322  0.00  0.00    +0.000 C 
ATOM     29  C   UNL     1      43.689  -2.357   8.911  0.00  0.00    +0.000 C 
ENDBRANCH  13  28
BRANCH  20  30
ATOM     30  O   UNL     1      39.555   1.482  10.493  0.00  0.00    +0.000 OA
BRANCH  30  38
ATOM     31  O   UNL     1      38.941   3.593  11.220  0.00  0.00    +0.000 OA
ATOM     32  N   UNL     1      37.658   1.764  11.781  0.00  0.00    +0.000 N 
ATOM     33  C   UNL     1      36.039   0.504  13.867  0.00  0.00    +0.000 C 
ATOM     34  C   UNL     1      37.123  -0.259  13.065  0.00  0.00    +0.000 C 
ATOM     35  C   UNL     1      36.412   2.008  13.882  0.00  0.00    +0.000 C 
ATOM     36  C   UNL     1      37.366   0.344  11.684  0.00  0.00    +0.000 C 
ATOM     37  C   UNL     1      36.669   2.559  12.483  0.00  0.00    +0.000 C 
ATOM     38  C   UNL     1      38.736   2.383  11.166  0.00  0.00    +0.000 C 
BRANCH  33  39
ATOM     39  N   UNL     1      35.875  -0.043  15.251  0.00  0.00    +0.000 NA
ATOM     40  C   UNL     1      34.487  -0.481  15.514  0.00  0.00    +0.000 C 
ATOM     41  C   UNL     1      36.813  -1.150  15.530  0.00  0.00    +0.000 C 
ATOM     42  C   UNL     1      34.292  -1.014  16.935  0.00  0.00    +0.000 C 
ATOM     43  C   UNL     1      36.676  -1.702  16.951  0.00  0.00    +0.000 C 
ATOM     44  C   UNL     1      35.254  -2.150  17.240  0.00  0.00    +0.000 C 
ENDBRANCH  33  39
ENDBRANCH  30  38
ENDBRANCH  20  30
TORSDOF 6
ENDMDL
MODEL 3
REMARK VINA RESULT:      -7.5     37.190     40.835
REMARK  Name = 
REMARK  8 active torsions:
REMARK  status: ('A' for Active; 'I' for Inactive)
REMARK    1  A    between atoms: O_1  and  C_21
REMARK    2  A    between atoms: O_1  and  C_38
REMARK    3  A    between atoms: O_4  and  C_26
REMARK    4  A    between atoms: N_7  and  C_11
REMARK    5  A    between atoms: C_26  and  C_33
REMARK    6  A    between atoms: C_29  and  C_37
REMARK    7  A    between atoms: C_33  and  C_42
REMARK    8  A    between atoms: C_37  and  C_43
REMARK                            x       y       z     vdW  Elec       q    Type
REMARK                         _______ _______ _______ _____ _____    ______ ____
ROOT
ATOM      1  O   UNL     1      21.214  -2.309   5.345  0.00  0.00    +0.000 OA
ATOM      2  O   UNL     1      22.996  -1.567   1.600  0.00  0.00    +0.000 OA
ATOM      3  O   UNL     1      21.768  -2.944   7.427  0.00  0.00    +0.000 OA
ATOM      4  N   UNL     1      24.982  -0.953   2.573  0.00  0.00    +0.000 N 
ATOM      5  N   UNL     1      28.082   0.058   4.068  0.00  0.00    +0.000 NA
ATOM      6  C   UNL     1      25.732  -0.675   3.697  0.00  0.00    +0.000 A 
ATOM      7  C   UNL     1      27.110  -0.352   1.879  0.00  0.00    +0.000 A 
ATOM      8  C   UNL     1      25.771  -0.778   1.350  0.00  0.00    +0.000 C 
ATOM      9  C   UNL     1      23.815  -1.183   5.066  0.00  0.00    +0.000 A 
ATOM     10  C   UNL     1      23.187  -1.255   6.435  0.00  0.00    +0.000 C 
ATOM     11  C   UNL     1      27.073  -0.294   3.267  0.00  0.00    +0.000 A 
ATOM     12  C   UNL     1      23.076  -1.455   3.972  0.00  0.00    +0.000 A 
ATOM     13  C   UNL     1      28.287  -0.027   1.219  0.00  0.00    +0.000 A 
ATOM     14  C   UNL     1      25.207  -0.772   4.922  0.00  0.00    +0.000 A 
ATOM     15  C   UNL     1      23.667  -1.338   2.600  0.00  0.00    +0.000 A 
ATOM     16  C   UNL     1      29.391   0.370   2.027  0.00  0.00    +0.000 A 
ATOM     17  C   UNL     1      21.647  -1.865   4.042  0.00  0.00    +0.000 C 
ATOM     18  C   UNL     1      29.225   0.389   3.450  0.00  0.00    +0.000 A 
ATOM     19  C   UNL     1      22.011  -2.258   6.433  0.00  0.00    +0.000 C 
ATOM     20  C   UNL     1      31.682   1.141   2.341  0.00  0.00    +0.000 A 
ATOM     21  C   UNL     1      30.644   0.749   1.497  0.00  0.00    +0.000 A 
ATOM     22  C   UNL     1      30.295   0.765   4.253  0.00  0.00    +0.000 A 
ATOM     23  C   UNL     1      31.528   1.135   3.717  0.00  0.00    +0.000 A 
ENDROOT
BRANCH  10  24
ATOM     24  O   UNL     1      24.173  -1.716   7.370  0.00  0.00    +0.000 OA
ATOM     25  H   UNL     1      24.415  -2.620   7.087  0.00  0.00    +0.000 HD
ENDBRANCH  10  24
BRANCH  10  26
ATOM     26  C   UNL     1      22.691   0.139   6.876  0.00  0.00    +0.000 C 
ATOM     27  C   UNL     1      22.245   0.220   8.334  0.00  0.00    +0.000 C 
ENDBRANCH  10  26
BRANCH  13  28
ATOM     28  C   UNL     1      28.338  -0.073  -0.289  0.00  0.00    +0.000 C 
ATOM     29  C   UNL     1      28.711  -1.453  -0.809  0.00  0.00    +0.000 C 
ENDBRANCH  13  28
BRANCH  20  30
ATOM     30  O   UNL     1      32.921   1.468   1.789  0.00  0.00    +0.000 OA
BRANCH  30  38
ATOM     31  O   UNL     1      32.678   3.690   1.182  0.00  0.00    +0.000 OA
ATOM     32  N   UNL     1      33.054   2.091  -0.432  0.00  0.00    +0.000 N 
ATOM     33  C   UNL     1      32.416   1.213  -3.150  0.00  0.00    +0.000 C 
ATOM     34  C   UNL     1      32.404   0.257  -1.930  0.00  0.00    +0.000 C 
ATOM     35  C   UNL     1      32.147   2.653  -2.643  0.00  0.00    +0.000 C 
ATOM     36  C   UNL     1      33.337   0.718  -0.814  0.00  0.00    +0.000 C 
ATOM     37  C   UNL     1      33.086   3.059  -1.512  0.00  0.00    +0.000 C 
ATOM     38  C   UNL     1      32.870   2.517   0.875  0.00  0.00    +0.000 C 
BRANCH  33  39
ATOM     39  N   UNL     1      31.431   0.799  -4.199  0.00  0.00    +0.000 NA
ATOM     40  C   UNL     1      32.005  -0.186  -5.140  0.00  0.00    +0.000 C 
ATOM     41  C   UNL     1      30.183   0.267  -3.614  0.00  0.00    +0.000 C 
ATOM     42  C   UNL     1      31.023  -0.599  -6.239  0.00  0.00    +0.000 C 
ATOM     43  C   UNL     1      29.155  -0.136  -4.674  0.00  0.00    +0.000 C 
ATOM     44  C   UNL     1      29.730  -1.142  -5.655  0.00  0.00    +0.000 C 
ENDBRANCH  33  39
ENDBRANCH  30  38
ENDBRANCH  20  30
TORSDOF 6
ENDMDL
MODEL 4
REMARK VINA RESULT:      -7.2     36.822     40.738
REMARK  Name = 
REMARK  8 active torsions:
REMARK  status: ('A' for Active; 'I' for Inactive)
REMARK    1  A    between atoms: O_1  and  C_21
REMARK    2  A    between atoms: O_1  and  C_38
REMARK    3  A    between atoms: O_4  and  C_26
REMARK    4  A    between atoms: N_7  and  C_11
REMARK    5  A    between atoms: C_26  and  C_33
REMARK    6  A    between atoms: C_29  and  C_37
REMARK    7  A    between atoms: C_33  and  C_42
REMARK    8  A    between atoms: C_37  and  C_43
REMARK                            x       y       z     vdW  Elec       q    Type
REMARK                         _______ _______ _______ _____ _____    ______ ____
ROOT
ATOM      1  O   UNL     1      23.764   0.882   5.888  0.00  0.00    +0.000 OA
ATOM      2  O   UNL     1      27.491  -1.010   5.360  0.00  0.00    +0.000 OA
ATOM      3  O   UNL     1      22.900   2.917   6.292  0.00  0.00    +0.000 OA
ATOM      4  N   UNL     1      28.439   0.904   4.521  0.00  0.00    +0.000 N 
ATOM      5  N   UNL     1      29.931   3.868   3.160  0.00  0.00    +0.000 NA
ATOM      6  C   UNL     1      28.325   2.210   4.090  0.00  0.00    +0.000 A 
ATOM      7  C   UNL     1      30.536   1.613   3.834  0.00  0.00    +0.000 A 
ATOM      8  C   UNL     1      29.818   0.423   4.401  0.00  0.00    +0.000 C 
ATOM      9  C   UNL     1      25.972   2.145   4.608  0.00  0.00    +0.000 A 
ATOM     10  C   UNL     1      24.628   2.829   4.602  0.00  0.00    +0.000 C 
ATOM     11  C   UNL     1      29.641   2.662   3.654  0.00  0.00    +0.000 A 
ATOM     12  C   UNL     1      26.076   0.870   5.031  0.00  0.00    +0.000 A 
ATOM     13  C   UNL     1      31.867   1.791   3.486  0.00  0.00    +0.000 A 
ATOM     14  C   UNL     1      27.151   2.849   4.113  0.00  0.00    +0.000 A 
ATOM     15  C   UNL     1      27.393   0.156   4.995  0.00  0.00    +0.000 A 
ATOM     16  C   UNL     1      32.228   3.057   2.939  0.00  0.00    +0.000 A 
ATOM     17  C   UNL     1      24.915   0.087   5.533  0.00  0.00    +0.000 C 
ATOM     18  C   UNL     1      31.211   4.058   2.805  0.00  0.00    +0.000 A 
ATOM     19  C   UNL     1      23.709   2.215   5.682  0.00  0.00    +0.000 C 
ATOM     20  C   UNL     1      33.823   4.630   1.981  0.00  0.00    +0.000 A 
ATOM     21  C   UNL     1      33.538   3.377   2.521  0.00  0.00    +0.000 A 
ATOM     22  C   UNL     1      31.547   5.300   2.282  0.00  0.00    +0.000 A 
ATOM     23  C   UNL     1      32.846   5.605   1.874  0.00  0.00    +0.000 A 
ENDROOT
BRANCH  10  24
ATOM     24  O   UNL     1      24.816   4.218   4.904  0.00  0.00    +0.000 OA
ATOM     25  H   UNL     1      24.262   4.714   4.268  0.00  0.00    +0.000 HD
ENDBRANCH  10  24
BRANCH  10  26
ATOM     26  C   UNL     1      23.965   2.704   3.213  0.00  0.00    +0.000 C 
ATOM     27  C   UNL     1      24.510   1.568   2.352  0.00  0.00    +0.000 C 
ENDBRANCH  10  26
BRANCH  13  28
ATOM     28  C   UNL     1      32.847   0.657   3.664  0.00  0.00    +0.000 C 
ATOM     29  C   UNL     1      33.510   0.680   5.032  0.00  0.00    +0.000 C 
ENDBRANCH  13  28
BRANCH  20  30
ATOM     30  O   UNL     1      35.137   4.930   1.618  0.00  0.00    +0.000 OA
BRANCH  30  38
ATOM     31  O   UNL     1      35.018   6.119  -0.367  0.00  0.00    +0.000 OA
ATOM     32  N   UNL     1      35.866   3.978  -0.357  0.00  0.00    +0.000 N 
ATOM     33  C   UNL     1      36.029   1.444  -1.811  0.00  0.00    +0.000 C 
ATOM     34  C   UNL     1      35.703   1.529  -0.299  0.00  0.00    +0.000 C 
ATOM     35  C   UNL     1      35.595   2.773  -2.479  0.00  0.00    +0.000 C 
ATOM     36  C   UNL     1      36.277   2.781   0.357  0.00  0.00    +0.000 C 
ATOM     37  C   UNL     1      36.173   3.996  -1.775  0.00  0.00    +0.000 C 
ATOM     38  C   UNL     1      35.316   5.099   0.248  0.00  0.00    +0.000 C 
BRANCH  33  39
ATOM     39  N   UNL     1      35.385   0.258  -2.460  0.00  0.00    +0.000 NA
ATOM     40  C   UNL     1      33.914   0.394  -2.527  0.00  0.00    +0.000 C 
ATOM     41  C   UNL     1      35.928  -0.005  -3.809  0.00  0.00    +0.000 C 
ATOM     42  C   UNL     1      33.234  -0.822  -3.160  0.00  0.00    +0.000 C 
ATOM     43  C   UNL     1      35.298  -1.230  -4.475  0.00  0.00    +0.000 C 
ATOM     44  C   UNL     1      33.786  -1.110  -4.546  0.00  0.00    +0.000 C 
ENDBRANCH  33  39
ENDBRANCH  30  38
ENDBRANCH  20  30
TORSDOF 6
ENDMDL
MODEL 5
REMARK VINA RESULT:      -7.2     37.111     40.776
REMARK  Name = 
REMARK  8 active torsions:
REMARK  status: ('A' for Active; 'I' for Inactive)
REMARK    1  A    between atoms: O_1  and  C_21
REMARK    2  A    between atoms: O_1  and  C_38
REMARK    3  A    between atoms: O_4  and  C_26
REMARK    4  A    between atoms: N_7  and  C_11
REMARK    5  A    between atoms: C_26  and  C_33
REMARK    6  A    between atoms: C_29  and  C_37
REMARK    7  A    between atoms: C_33  and  C_42
REMARK    8  A    between atoms: C_37  and  C_43
REMARK                            x       y       z     vdW  Elec       q    Type
REMARK                         _______ _______ _______ _____ _____    ______ ____
ROOT
ATOM      1  O   UNL     1      24.358  12.740   7.929  0.00  0.00    +0.000 OA
ATOM      2  O   UNL     1      22.588   9.059   6.894  0.00  0.00    +0.000 OA
ATOM      3  O   UNL     1      26.377  13.625   8.367  0.00  0.00    +0.000 OA
ATOM      4  N   UNL     1      24.487   8.353   5.816  0.00  0.00    +0.000 N 
ATOM      5  N   UNL     1      27.426   7.245   4.083  0.00  0.00    +0.000 NA
ATOM      6  C   UNL     1      25.761   8.598   5.345  0.00  0.00    +0.000 A 
ATOM      7  C   UNL     1      25.239   6.431   4.760  0.00  0.00    +0.000 A 
ATOM      8  C   UNL     1      24.055   6.990   5.496  0.00  0.00    +0.000 C 
ATOM      9  C   UNL     1      25.633  10.830   6.243  0.00  0.00    +0.000 A 
ATOM     10  C   UNL     1      26.261  12.190   6.422  0.00  0.00    +0.000 C 
ATOM     11  C   UNL     1      26.239   7.392   4.677  0.00  0.00    +0.000 A 
ATOM     12  C   UNL     1      24.389  10.598   6.706  0.00  0.00    +0.000 A 
ATOM     13  C   UNL     1      25.449   5.183   4.191  0.00  0.00    +0.000 A 
ATOM     14  C   UNL     1      26.353   9.783   5.528  0.00  0.00    +0.000 A 
ATOM     15  C   UNL     1      23.727   9.272   6.492  0.00  0.00    +0.000 A 
ATOM     16  C   UNL     1      26.694   4.977   3.530  0.00  0.00    +0.000 A 
ATOM     17  C   UNL     1      23.590  11.624   7.431  0.00  0.00    +0.000 C 
ATOM     18  C   UNL     1      27.645   6.049   3.514  0.00  0.00    +0.000 A 
ATOM     19  C   UNL     1      25.674  12.892   7.668  0.00  0.00    +0.000 C 
ATOM     20  C   UNL     1      28.272   3.635   2.247  0.00  0.00    +0.000 A 
ATOM     21  C   UNL     1      27.042   3.769   2.888  0.00  0.00    +0.000 A 
ATOM     22  C   UNL     1      28.868   5.862   2.882  0.00  0.00    +0.000 A 
ATOM     23  C   UNL     1      29.200   4.663   2.252  0.00  0.00    +0.000 A 
ENDROOT
BRANCH  10  24
ATOM     24  O   UNL     1      27.672  12.022   6.621  0.00  0.00    +0.000 OA
ATOM     25  H   UNL     1      27.856  11.072   6.481  0.00  0.00    +0.000 HD
ENDBRANCH  10  24
BRANCH  10  26
ATOM     26  C   UNL     1      26.031  13.061   5.169  0.00  0.00    +0.000 C 
ATOM     27  C   UNL     1      27.132  14.083   4.898  0.00  0.00    +0.000 C 
ENDBRANCH  10  26
BRANCH  13  28
ATOM     28  C   UNL     1      24.366   4.134   4.263  0.00  0.00    +0.000 C 
ATOM     29  C   UNL     1      23.400   4.226   3.091  0.00  0.00    +0.000 C 
ENDBRANCH  13  28
BRANCH  20  30
ATOM     30  O   UNL     1      28.603   2.413   1.659  0.00  0.00    +0.000 OA
BRANCH  30  38
ATOM     31  O   UNL     1      26.793   2.029   0.265  0.00  0.00    +0.000 OA
ATOM     32  N   UNL     1      27.285   0.538   1.951  0.00  0.00    +0.000 N 
ATOM     33  C   UNL     1      26.180  -1.250   3.987  0.00  0.00    +0.000 C 
ATOM     34  C   UNL     1      27.323  -0.245   4.278  0.00  0.00    +0.000 C 
ATOM     35  C   UNL     1      25.347  -0.709   2.796  0.00  0.00    +0.000 C 
ATOM     36  C   UNL     1      28.142   0.089   3.034  0.00  0.00    +0.000 C 
ATOM     37  C   UNL     1      26.212  -0.367   1.587  0.00  0.00    +0.000 C 
ATOM     38  C   UNL     1      27.502   1.690   1.209  0.00  0.00    +0.000 C 
BRANCH  33  39
ATOM     39  N   UNL     1      25.329  -1.499   5.193  0.00  0.00    +0.000 NA
ATOM     40  C   UNL     1      24.438  -0.357   5.489  0.00  0.00    +0.000 C 
ATOM     41  C   UNL     1      24.534  -2.738   5.070  0.00  0.00    +0.000 C 
ATOM     42  C   UNL     1      23.581  -0.579   6.738  0.00  0.00    +0.000 C 
ATOM     43  C   UNL     1      23.679  -3.021   6.308  0.00  0.00    +0.000 C 
ATOM     44  C   UNL     1      22.762  -1.854   6.630  0.00  0.00    +0.000 C 
ENDBRANCH  33  39
ENDBRANCH  30  38
ENDBRANCH  20  30
TORSDOF 6
ENDMDL
MODEL 6
REMARK VINA RESULT:      -7.1      3.398      5.799
REMARK  Name = 
REMARK  8 active torsions:
REMARK  status: ('A' for Active; 'I' for Inactive)
REMARK    1  A    between atoms: O_1  and  C_21
REMARK    2  A    between atoms: O_1  and  C_38
REMARK    3  A    between atoms: O_4  and  C_26
REMARK    4  A    between atoms: N_7  and  C_11
REMARK    5  A    between atoms: C_26  and  C_33
REMARK    6  A    between atoms: C_29  and  C_37
REMARK    7  A    between atoms: C_33  and  C_42
REMARK    8  A    between atoms: C_37  and  C_43
REMARK                            x       y       z     vdW  Elec       q    Type
REMARK                         _______ _______ _______ _____ _____    ______ ____
ROOT
ATOM      1  O   UNL     1      37.515 -16.313  34.318  0.00  0.00    +0.000 OA
ATOM      2  O   UNL     1      36.592 -12.207  34.523  0.00  0.00    +0.000 OA
ATOM      3  O   UNL     1      38.457 -17.937  35.553  0.00  0.00    +0.000 OA
ATOM      4  N   UNL     1      36.372 -12.285  36.806  0.00  0.00    +0.000 N 
ATOM      5  N   UNL     1      35.972 -12.389  40.369  0.00  0.00    +0.000 NA
ATOM      6  C   UNL     1      36.331 -13.003  37.984  0.00  0.00    +0.000 A 
ATOM      7  C   UNL     1      35.989 -10.792  38.537  0.00  0.00    +0.000 A 
ATOM      8  C   UNL     1      36.165 -10.855  37.048  0.00  0.00    +0.000 C 
ATOM      9  C   UNL     1      36.728 -15.023  36.732  0.00  0.00    +0.000 A 
ATOM     10  C   UNL     1      36.873 -16.525  36.713  0.00  0.00    +0.000 C 
ATOM     11  C   UNL     1      36.088 -12.069  39.078  0.00  0.00    +0.000 A 
ATOM     12  C   UNL     1      36.769 -14.329  35.578  0.00  0.00    +0.000 A 
ATOM     13  C   UNL     1      35.753  -9.716  39.381  0.00  0.00    +0.000 A 
ATOM     14  C   UNL     1      36.497 -14.329  37.994  0.00  0.00    +0.000 A 
ATOM     15  C   UNL     1      36.575 -12.844  35.571  0.00  0.00    +0.000 A 
ATOM     16  C   UNL     1      35.606 -10.004  40.768  0.00  0.00    +0.000 A 
ATOM     17  C   UNL     1      36.985 -14.973  34.254  0.00  0.00    +0.000 C 
ATOM     18  C   UNL     1      35.731 -11.364  41.201  0.00  0.00    +0.000 A 
ATOM     19  C   UNL     1      37.699 -16.968  35.485  0.00  0.00    +0.000 C 
ATOM     20  C   UNL     1      35.196  -9.365  43.084  0.00  0.00    +0.000 A 
ATOM     21  C   UNL     1      35.342  -9.016  41.743  0.00  0.00    +0.000 A 
ATOM     22  C   UNL     1      35.599 -11.661  42.552  0.00  0.00    +0.000 A 
ATOM     23  C   UNL     1      35.340 -10.676  43.505  0.00  0.00    +0.000 A 
ENDROOT
BRANCH  10  24
ATOM     24  O   UNL     1      37.568 -16.936  37.898  0.00  0.00    +0.000 OA
ATOM     25  H   UNL     1      38.520 -16.932  37.671  0.00  0.00    +0.000 HD
ENDBRANCH  10  24
BRANCH  10  26
ATOM     26  C   UNL     1      35.485 -17.201  36.686  0.00  0.00    +0.000 C 
ATOM     27  C   UNL     1      34.350 -16.299  36.210  0.00  0.00    +0.000 C 
ENDBRANCH  10  26
BRANCH  13  28
ATOM     28  C   UNL     1      35.630  -8.326  38.806  0.00  0.00    +0.000 C 
ATOM     29  C   UNL     1      36.935  -7.549  38.897  0.00  0.00    +0.000 C 
ENDBRANCH  13  28
BRANCH  20  30
ATOM     30  O   UNL     1      34.979  -8.360  44.028  0.00  0.00    +0.000 OA
BRANCH  30  38
ATOM     31  O   UNL     1      35.932  -6.425  43.184  0.00  0.00    +0.000 OA
ATOM     32  N   UNL     1      36.892  -7.488  44.987  0.00  0.00    +0.000 N 
ATOM     33  C   UNL     1      39.404  -8.234  46.289  0.00  0.00    +0.000 C 
ATOM     34  C   UNL     1      38.237  -9.230  46.076  0.00  0.00    +0.000 C 
ATOM     35  C   UNL     1      39.312  -7.136  45.200  0.00  0.00    +0.000 C 
ATOM     36  C   UNL     1      36.880  -8.536  45.993  0.00  0.00    +0.000 C 
ATOM     37  C   UNL     1      37.932  -6.489  45.139  0.00  0.00    +0.000 C 
ATOM     38  C   UNL     1      35.931  -7.345  43.997  0.00  0.00    +0.000 C 
BRANCH  33  39
ATOM     39  N   UNL     1      40.736  -8.918  46.278  0.00  0.00    +0.000 NA
ATOM     40  C   UNL     1      40.754 -10.082  45.367  0.00  0.00    +0.000 C 
ATOM     41  C   UNL     1      41.836  -7.993  45.934  0.00  0.00    +0.000 C 
ATOM     42  C   UNL     1      42.099 -10.814  45.364  0.00  0.00    +0.000 C 
ATOM     43  C   UNL     1      43.208  -8.672  45.944  0.00  0.00    +0.000 C 
ATOM     44  C   UNL     1      43.242  -9.875  45.019  0.00  0.00    +0.000 C 
ENDBRANCH  33  39
ENDBRANCH  30  38
ENDBRANCH  20  30
TORSDOF 6
ENDMDL
MODEL 7
REMARK VINA RESULT:      -7.0     20.290     23.839
REMARK  Name = 
REMARK  8 active torsions:
REMARK  status: ('A' for Active; 'I' for Inactive)
REMARK    1  A    between atoms: O_1  and  C_21
REMARK    2  A    between atoms: O_1  and  C_38
REMARK    3  A    between atoms: O_4  and  C_26
REMARK    4  A    between atoms: N_7  and  C_11
REMARK    5  A    between atoms: C_26  and  C_33
REMARK    6  A    between atoms: C_29  and  C_37
REMARK    7  A    between atoms: C_33  and  C_42
REMARK    8  A    between atoms: C_37  and  C_43
REMARK                            x       y       z     vdW  Elec       q    Type
REMARK                         _______ _______ _______ _____ _____    ______ ____
ROOT
ATOM      1  O   UNL     1      17.028   2.934  50.091  0.00  0.00    +0.000 OA
ATOM      2  O   UNL     1      14.464  -0.015  48.517  0.00  0.00    +0.000 OA
ATOM      3  O   UNL     1      19.045   3.851  49.715  0.00  0.00    +0.000 OA
ATOM      4  N   UNL     1      15.293   0.277  46.397  0.00  0.00    +0.000 N 
ATOM      5  N   UNL     1      16.536   0.746  43.065  0.00  0.00    +0.000 NA
ATOM      6  C   UNL     1      16.097   0.958  45.505  0.00  0.00    +0.000 A 
ATOM      7  C   UNL     1      15.024  -0.692  44.308  0.00  0.00    +0.000 A 
ATOM      8  C   UNL     1      14.561  -0.805  45.732  0.00  0.00    +0.000 C 
ATOM      9  C   UNL     1      16.830   2.385  47.303  0.00  0.00    +0.000 A 
ATOM     10  C   UNL     1      17.641   3.570  47.764  0.00  0.00    +0.000 C 
ATOM     11  C   UNL     1      15.930   0.354  44.188  0.00  0.00    +0.000 A 
ATOM     12  C   UNL     1      16.047   1.725  48.179  0.00  0.00    +0.000 A 
ATOM     13  C   UNL     1      14.689  -1.432  43.182  0.00  0.00    +0.000 A 
ATOM     14  C   UNL     1      16.856   1.985  45.901  0.00  0.00    +0.000 A 
ATOM     15  C   UNL     1      15.193   0.579  47.729  0.00  0.00    +0.000 A 
ATOM     16  C   UNL     1      15.296  -1.045  41.953  0.00  0.00    +0.000 A 
ATOM     17  C   UNL     1      15.959   2.087  49.620  0.00  0.00    +0.000 C 
ATOM     18  C   UNL     1      16.217   0.053  41.961  0.00  0.00    +0.000 A 
ATOM     19  C   UNL     1      17.972   3.440  49.269  0.00  0.00    +0.000 C 
ATOM     20  C   UNL     1      15.655  -1.253  39.551  0.00  0.00    +0.000 A 
ATOM     21  C   UNL     1      15.037  -1.688  40.723  0.00  0.00    +0.000 A 
ATOM     22  C   UNL     1      16.825   0.437  40.773  0.00  0.00    +0.000 A 
ATOM     23  C   UNL     1      16.562  -0.207  39.564  0.00  0.00    +0.000 A 
ENDROOT
BRANCH  10  24
ATOM     24  O   UNL     1      18.874   3.597  47.031  0.00  0.00    +0.000 OA
ATOM     25  H   UNL     1      18.792   4.328  46.386  0.00  0.00    +0.000 HD
ENDBRANCH  10  24
BRANCH  10  26
ATOM     26  C   UNL     1      16.875   4.884  47.505  0.00  0.00    +0.000 C 
ATOM     27  C   UNL     1      17.493   5.776  46.432  0.00  0.00    +0.000 C 
ENDBRANCH  10  26
BRANCH  13  28
ATOM     28  C   UNL     1      13.695  -2.562  43.295  0.00  0.00    +0.000 C 
ATOM     29  C   UNL     1      14.361  -3.875  43.678  0.00  0.00    +0.000 C 
ENDBRANCH  13  28
BRANCH  20  30
ATOM     30  O   UNL     1      15.411  -1.937  38.360  0.00  0.00    +0.000 OA
BRANCH  30  38
ATOM     31  O   UNL     1      17.157  -3.405  38.762  0.00  0.00    +0.000 OA
ATOM     32  N   UNL     1      15.314  -4.108  37.574  0.00  0.00    +0.000 N 
ATOM     33  C   UNL     1      14.365  -5.747  35.344  0.00  0.00    +0.000 C 
ATOM     34  C   UNL     1      13.901  -4.287  35.574  0.00  0.00    +0.000 C 
ATOM     35  C   UNL     1      15.768  -5.919  35.980  0.00  0.00    +0.000 C 
ATOM     36  C   UNL     1      13.985  -3.868  37.039  0.00  0.00    +0.000 C 
ATOM     37  C   UNL     1      15.807  -5.465  37.436  0.00  0.00    +0.000 C 
ATOM     38  C   UNL     1      16.054  -3.169  38.277  0.00  0.00    +0.000 C 
BRANCH  33  39
ATOM     39  N   UNL     1      14.364  -6.116  33.893  0.00  0.00    +0.000 NA
ATOM     40  C   UNL     1      14.112  -4.947  33.024  0.00  0.00    +0.000 C 
ATOM     41  C   UNL     1      15.617  -6.785  33.485  0.00  0.00    +0.000 C 
ATOM     42  C   UNL     1      14.076  -5.308  31.537  0.00  0.00    +0.000 C 
ATOM     43  C   UNL     1      15.620  -7.192  32.009  0.00  0.00    +0.000 C 
ATOM     44  C   UNL     1      15.355  -6.004  31.102  0.00  0.00    +0.000 C 
ENDBRANCH  33  39
ENDBRANCH  30  38
ENDBRANCH  20  30
TORSDOF 6
ENDMDL
MODEL 8
REMARK VINA RESULT:      -7.0     19.727     22.707
REMARK  Name = 
REMARK  8 active torsions:
REMARK  status: ('A' for Active; 'I' for Inactive)
REMARK    1  A    between atoms: O_1  and  C_21
REMARK    2  A    between atoms: O_1  and  C_38
REMARK    3  A    between atoms: O_4  and  C_26
REMARK    4  A    between atoms: N_7  and  C_11
REMARK    5  A    between atoms: C_26  and  C_33
REMARK    6  A    between atoms: C_29  and  C_37
REMARK    7  A    between atoms: C_33  and  C_42
REMARK    8  A    between atoms: C_37  and  C_43
REMARK                            x       y       z     vdW  Elec       q    Type
REMARK                         _______ _______ _______ _____ _____    ______ ____
ROOT
ATOM      1  O   UNL     1      12.673  -4.816  48.043  0.00  0.00    +0.000 OA
ATOM      2  O   UNL     1      14.047  -5.114  44.071  0.00  0.00    +0.000 OA
ATOM      3  O   UNL     1      13.121  -3.714  49.949  0.00  0.00    +0.000 OA
ATOM      4  N   UNL     1      14.789  -2.942  44.077  0.00  0.00    +0.000 N 
ATOM      5  N   UNL     1      15.914   0.464  44.041  0.00  0.00    +0.000 NA
ATOM      6  C   UNL     1      14.899  -1.713  44.694  0.00  0.00    +0.000 A 
ATOM      7  C   UNL     1      15.941  -1.527  42.648  0.00  0.00    +0.000 A 
ATOM      8  C   UNL     1      15.427  -2.933  42.757  0.00  0.00    +0.000 C 
ATOM      9  C   UNL     1      13.701  -2.592  46.591  0.00  0.00    +0.000 A 
ATOM     10  C   UNL     1      13.073  -2.362  47.943  0.00  0.00    +0.000 C 
ATOM     11  C   UNL     1      15.622  -0.817  43.799  0.00  0.00    +0.000 A 
ATOM     12  C   UNL     1      13.590  -3.795  45.994  0.00  0.00    +0.000 A 
ATOM     13  C   UNL     1      16.634  -0.889  41.628  0.00  0.00    +0.000 A 
ATOM     14  C   UNL     1      14.385  -1.499  45.909  0.00  0.00    +0.000 A 
ATOM     15  C   UNL     1      14.160  -4.027  44.628  0.00  0.00    +0.000 A 
ATOM     16  C   UNL     1      16.958   0.484  41.830  0.00  0.00    +0.000 A 
ATOM     17  C   UNL     1      12.892  -4.950  46.623  0.00  0.00    +0.000 C 
ATOM     18  C   UNL     1      16.572   1.104  43.063  0.00  0.00    +0.000 A 
ATOM     19  C   UNL     1      12.982  -3.693  48.725  0.00  0.00    +0.000 C 
ATOM     20  C   UNL     1      17.917   2.611  41.127  0.00  0.00    +0.000 A 
ATOM     21  C   UNL     1      17.641   1.269  40.875  0.00  0.00    +0.000 A 
ATOM     22  C   UNL     1      16.889   2.439  43.279  0.00  0.00    +0.000 A 
ATOM     23  C   UNL     1      17.565   3.203  42.328  0.00  0.00    +0.000 A 
ENDROOT
BRANCH  10  24
ATOM     24  O   UNL     1      13.901  -1.457  48.687  0.00  0.00    +0.000 OA
ATOM     25  H   UNL     1      14.324  -1.990  49.391  0.00  0.00    +0.000 HD
ENDBRANCH  10  24
BRANCH  10  26
ATOM     26  C   UNL     1      11.667  -1.744  47.789  0.00  0.00    +0.000 C 
ATOM     27  C   UNL     1      11.434  -0.487  48.622  0.00  0.00    +0.000 C 
ENDBRANCH  10  26
BRANCH  13  28
ATOM     28  C   UNL     1      16.977  -1.644  40.367  0.00  0.00    +0.000 C 
ATOM     29  C   UNL     1      18.163  -2.577  40.561  0.00  0.00    +0.000 C 
ENDBRANCH  13  28
BRANCH  20  30
ATOM     30  O   UNL     1      18.632   3.348  40.181  0.00  0.00    +0.000 OA
BRANCH  30  38
ATOM     31  O   UNL     1      17.008   3.660  38.559  0.00  0.00    +0.000 OA
ATOM     32  N   UNL     1      18.063   5.480  39.497  0.00  0.00    +0.000 N 
ATOM     33  C   UNL     1      19.158   8.149  39.007  0.00  0.00    +0.000 C 
ATOM     34  C   UNL     1      19.923   7.055  39.794  0.00  0.00    +0.000 C 
ATOM     35  C   UNL     1      18.170   7.451  38.038  0.00  0.00    +0.000 C 
ATOM     36  C   UNL     1      18.989   6.050  40.461  0.00  0.00    +0.000 C 
ATOM     37  C   UNL     1      17.275   6.439  38.746  0.00  0.00    +0.000 C 
ATOM     38  C   UNL     1      17.829   4.121  39.348  0.00  0.00    +0.000 C 
BRANCH  33  39
ATOM     39  N   UNL     1      20.086   9.075  38.284  0.00  0.00    +0.000 NA
ATOM     40  C   UNL     1      19.798   9.129  36.835  0.00  0.00    +0.000 C 
ATOM     41  C   UNL     1      20.069  10.439  38.852  0.00  0.00    +0.000 C 
ATOM     42  C   UNL     1      20.757  10.047  36.073  0.00  0.00    +0.000 C 
ATOM     43  C   UNL     1      21.033  11.391  38.140  0.00  0.00    +0.000 C 
ATOM     44  C   UNL     1      20.756  11.453  36.649  0.00  0.00    +0.000 C 
ENDBRANCH  33  39
ENDBRANCH  30  38
ENDBRANCH  20  30
TORSDOF 6
ENDMDL
MODEL 9
REMARK VINA RESULT:      -6.9      3.778      6.252
REMARK  Name = 
REMARK  8 active torsions:
REMARK  status: ('A' for Active; 'I' for Inactive)
REMARK    1  A    between atoms: O_1  and  C_21
REMARK    2  A    between atoms: O_1  and  C_38
REMARK    3  A    between atoms: O_4  and  C_26
REMARK    4  A    between atoms: N_7  and  C_11
REMARK    5  A    between atoms: C_26  and  C_33
REMARK    6  A    between atoms: C_29  and  C_37
REMARK    7  A    between atoms: C_33  and  C_42
REMARK    8  A    between atoms: C_37  and  C_43
REMARK                            x       y       z     vdW  Elec       q    Type
REMARK                         _______ _______ _______ _____ _____    ______ ____
ROOT
ATOM      1  O   UNL     1      41.316 -20.717  35.741  0.00  0.00    +0.000 OA
ATOM      2  O   UNL     1      38.997 -17.633  34.050  0.00  0.00    +0.000 OA
ATOM      3  O   UNL     1      42.650 -21.107  37.507  0.00  0.00    +0.000 OA
ATOM      4  N   UNL     1      38.609 -16.684  36.104  0.00  0.00    +0.000 N 
ATOM      5  N   UNL     1      37.945 -15.209  39.305  0.00  0.00    +0.000 NA
ATOM      6  C   UNL     1      38.714 -16.716  37.479  0.00  0.00    +0.000 A 
ATOM      7  C   UNL     1      37.570 -14.790  36.942  0.00  0.00    +0.000 A 
ATOM      8  C   UNL     1      37.892 -15.488  35.653  0.00  0.00    +0.000 C 
ATOM      9  C   UNL     1      39.908 -18.802  37.311  0.00  0.00    +0.000 A 
ATOM     10  C   UNL     1      40.571 -19.971  37.996  0.00  0.00    +0.000 C 
ATOM     11  C   UNL     1      38.060 -15.526  38.013  0.00  0.00    +0.000 A 
ATOM     12  C   UNL     1      39.809 -18.778  35.967  0.00  0.00    +0.000 A 
ATOM     13  C   UNL     1      36.894 -13.602  37.188  0.00  0.00    +0.000 A 
ATOM     14  C   UNL     1      39.333 -17.722  38.105  0.00  0.00    +0.000 A 
ATOM     15  C   UNL     1      39.108 -17.652  35.271  0.00  0.00    +0.000 A 
ATOM     16  C   UNL     1      36.731 -13.225  38.552  0.00  0.00    +0.000 A 
ATOM     17  C   UNL     1      40.358 -19.852  35.096  0.00  0.00    +0.000 C 
ATOM     18  C   UNL     1      37.284 -14.072  39.567  0.00  0.00    +0.000 A 
ATOM     19  C   UNL     1      41.610 -20.624  37.056  0.00  0.00    +0.000 C 
ATOM     20  C   UNL     1      35.912 -11.749  40.310  0.00  0.00    +0.000 A 
ATOM     21  C   UNL     1      36.049 -12.057  38.958  0.00  0.00    +0.000 A 
ATOM     22  C   UNL     1      37.142 -13.713  40.902  0.00  0.00    +0.000 A 
ATOM     23  C   UNL     1      36.467 -12.555  41.289  0.00  0.00    +0.000 A 
ENDROOT
BRANCH  10  24
ATOM     24  O   UNL     1      41.255 -19.493  39.163  0.00  0.00    +0.000 OA
ATOM     25  H   UNL     1      40.668 -18.824  39.569  0.00  0.00    +0.000 HD
ENDBRANCH  10  24
BRANCH  10  26
ATOM     26  C   UNL     1      39.518 -21.015  38.424  0.00  0.00    +0.000 C 
ATOM     27  C   UNL     1      39.149 -20.971  39.904  0.00  0.00    +0.000 C 
ENDBRANCH  10  26
BRANCH  13  28
ATOM     28  C   UNL     1      36.345 -12.799  36.035  0.00  0.00    +0.000 C 
ATOM     29  C   UNL     1      35.274 -13.558  35.265  0.00  0.00    +0.000 C 
ENDBRANCH  13  28
BRANCH  20  30
ATOM     30  O   UNL     1      35.270 -10.566  40.677  0.00  0.00    +0.000 OA
BRANCH  30  38
ATOM     31  O   UNL     1      33.749 -11.380  42.222  0.00  0.00    +0.000 OA
ATOM     32  N   UNL     1      35.211  -9.704  42.820  0.00  0.00    +0.000 N 
ATOM     33  C   UNL     1      35.554  -7.240  44.360  0.00  0.00    +0.000 C 
ATOM     34  C   UNL     1      36.019  -7.386  42.889  0.00  0.00    +0.000 C 
ATOM     35  C   UNL     1      34.388  -8.232  44.603  0.00  0.00    +0.000 C 
ATOM     36  C   UNL     1      36.332  -8.832  42.514  0.00  0.00    +0.000 C 
ATOM     37  C   UNL     1      34.739  -9.658  44.191  0.00  0.00    +0.000 C 
ATOM     38  C   UNL     1      34.666 -10.618  41.930  0.00  0.00    +0.000 C 
BRANCH  33  39
ATOM     39  N   UNL     1      35.164  -5.832  44.689  0.00  0.00    +0.000 NA
ATOM     40  C   UNL     1      36.042  -5.239  45.720  0.00  0.00    +0.000 C 
ATOM     41  C   UNL     1      35.138  -4.965  43.492  0.00  0.00    +0.000 C 
ATOM     42  C   UNL     1      35.641  -3.810  46.092  0.00  0.00    +0.000 C 
ATOM     43  C   UNL     1      34.715  -3.529  43.808  0.00  0.00    +0.000 C 
ATOM     44  C   UNL     1      35.603  -2.907  44.871  0.00  0.00    +0.000 C 
ENDBRANCH  33  39
ENDBRANCH  30  38
ENDBRANCH  20  30
TORSDOF 6
ENDMDL
