MODEL 1
REMARK VINA RESULT:      -8.4      0.000      0.000
REMARK  Name = 
REMARK  8 active torsions:
REMARK  status: ('A' for Active; 'I' for Inactive)
REMARK    1  A    between atoms: O_1  and  C_21
REMARK    2  A    between atoms: O_1  and  C_38
REMARK    3  A    between atoms: O_4  and  C_26
REMARK    4  A    between atoms: N_7  and  C_11
REMARK    5  A    between atoms: C_26  and  C_33
REMARK    6  A    between atoms: C_29  and  C_37
REMARK    7  A    between atoms: C_33  and  C_42
REMARK    8  A    between atoms: C_37  and  C_43
REMARK                            x       y       z     vdW  Elec       q    Type
REMARK                         _______ _______ _______ _____ _____    ______ ____
ROOT
ATOM      1  O   UNL     1      37.562   0.652   7.571  0.00  0.00    +0.000 OA
ATOM      2  O   UNL     1      41.611   0.617   6.408  0.00  0.00    +0.000 OA
ATOM      3  O   UNL     1      36.035  -0.669   8.557  0.00  0.00    +0.000 OA
ATOM      4  N   UNL     1      42.168  -0.844   8.088  0.00  0.00    +0.000 N 
ATOM      5  N   UNL     1      43.075  -3.089  10.734  0.00  0.00    +0.000 NA
ATOM      6  C   UNL     1      41.827  -1.562   9.216  0.00  0.00    +0.000 A 
ATOM      7  C   UNL     1      44.048  -2.003   8.791  0.00  0.00    +0.000 A 
ATOM      8  C   UNL     1      43.572  -1.057   7.727  0.00  0.00    +0.000 C 
ATOM      9  C   UNL     1      39.587  -0.687   9.060  0.00  0.00    +0.000 A 
ATOM     10  C   UNL     1      38.198  -0.581   9.637  0.00  0.00    +0.000 C 
ATOM     11  C   UNL     1      43.007  -2.292   9.665  0.00  0.00    +0.000 A 
ATOM     12  C   UNL     1      39.913   0.016   7.958  0.00  0.00    +0.000 A 
ATOM     13  C   UNL     1      45.293  -2.578   9.006  0.00  0.00    +0.000 A 
ATOM     14  C   UNL     1      40.590  -1.514   9.722  0.00  0.00    +0.000 A 
ATOM     15  C   UNL     1      41.302  -0.035   7.400  0.00  0.00    +0.000 A 
ATOM     16  C   UNL     1      45.424  -3.426  10.143  0.00  0.00    +0.000 A 
ATOM     17  C   UNL     1      38.946   0.891   7.241  0.00  0.00    +0.000 C 
ATOM     18  C   UNL     1      44.273  -3.645  10.968  0.00  0.00    +0.000 A 
ATOM     19  C   UNL     1      37.183  -0.221   8.529  0.00  0.00    +0.000 C 
ATOM     20  C   UNL     1      46.698  -4.872  11.635  0.00  0.00    +0.000 A 
ATOM     21  C   UNL     1      46.632  -4.063  10.502  0.00  0.00    +0.000 A 
ATOM     22  C   UNL     1      44.381  -4.477  12.076  0.00  0.00    +0.000 A 
ATOM     23  C   UNL     1      45.580  -5.102  12.418  0.00  0.00    +0.000 A 
ENDROOT
BRANCH  10  24
ATOM     24  O   UNL     1      37.831  -1.852  10.191  0.00  0.00    +0.000 OA
ATOM     25  H   UNL     1      38.545  -2.094  10.815  0.00  0.00    +0.000 HD
ENDBRANCH  10  24
BRANCH  10  26
ATOM     26  C   UNL     1      38.157   0.484  10.755  0.00  0.00    +0.000 C 
ATOM     27  C   UNL     1      36.882   1.322  10.783  0.00  0.00    +0.000 C 
ENDBRANCH  10  26
BRANCH  13  28
ATOM     28  C   UNL     1      46.436  -2.262   8.072  0.00  0.00    +0.000 C 
ATOM     29  C   UNL     1      46.534  -3.259   6.927  0.00  0.00    +0.000 C 
ENDBRANCH  13  28
BRANCH  20  30
ATOM     30  O   UNL     1      47.896  -5.522  11.937  0.00  0.00    +0.000 OA
BRANCH  30  38
ATOM     31  O   UNL     1      49.570  -3.927  11.799  0.00  0.00    +0.000 OA
ATOM     32  N   UNL     1      49.443  -5.601  10.223  0.00  0.00    +0.000 N 
ATOM     33  C   UNL     1      49.767  -6.279   7.395  0.00  0.00    +0.000 C 
ATOM     34  C   UNL     1      48.531  -6.703   8.227  0.00  0.00    +0.000 C 
ATOM     35  C   UNL     1      50.365  -4.998   8.029  0.00  0.00    +0.000 C 
ATOM     36  C   UNL     1      48.838  -6.822   9.717  0.00  0.00    +0.000 C 
ATOM     37  C   UNL     1      50.633  -5.157   9.522  0.00  0.00    +0.000 C 
ATOM     38  C   UNL     1      49.017  -4.932  11.360  0.00  0.00    +0.000 C 
BRANCH  33  39
ATOM     39  N   UNL     1      49.430  -6.079   5.950  0.00  0.00    +0.000 NA
ATOM     40  C   UNL     1      47.999  -6.326   5.674  0.00  0.00    +0.000 C 
ATOM     41  C   UNL     1      49.810  -4.735   5.468  0.00  0.00    +0.000 C 
ATOM     42  C   UNL     1      47.640  -6.157   4.196  0.00  0.00    +0.000 C 
ATOM     43  C   UNL     1      49.496  -4.524   3.985  0.00  0.00    +0.000 C 
ATOM     44  C   UNL     1      48.030  -4.781   3.683  0.00  0.00    +0.000 C 
ENDBRANCH  33  39
ENDBRANCH  30  38
ENDBRANCH  20  30
TORSDOF 6
ENDMDL
MODEL 2
REMARK VINA RESULT:      -8.0      3.043      5.097
REMARK  Name = 
REMARK  8 active torsions:
REMARK  status: ('A' for Active; 'I' for Inactive)
REMARK    1  A    between atoms: O_1  and  C_21
REMARK    2  A    between atoms: O_1  and  C_38
REMARK    3  A    between atoms: O_4  and  C_26
REMARK    4  A    between atoms: N_7  and  C_11
REMARK    5  A    between atoms: C_26  and  C_33
REMARK    6  A    between atoms: C_29  and  C_37
REMARK    7  A    between atoms: C_33  and  C_42
REMARK    8  A    between atoms: C_37  and  C_43
REMARK                            x       y       z     vdW  Elec       q    Type
REMARK                         _______ _______ _______ _____ _____    ______ ____
ROOT
ATOM      1  O   UNL     1      37.831   0.898   7.468  0.00  0.00    +0.000 OA
ATOM      2  O   UNL     1      41.953   0.740   6.612  0.00  0.00    +0.000 OA
ATOM      3  O   UNL     1      36.190  -0.384   8.311  0.00  0.00    +0.000 OA
ATOM      4  N   UNL     1      42.331  -0.768   8.301  0.00  0.00    +0.000 N 
ATOM      5  N   UNL     1      42.958  -3.086  10.965  0.00  0.00    +0.000 NA
ATOM      6  C   UNL     1      41.882  -1.491   9.386  0.00  0.00    +0.000 A 
ATOM      7  C   UNL     1      44.113  -2.003   9.121  0.00  0.00    +0.000 A 
ATOM      8  C   UNL     1      43.751  -1.024   8.042  0.00  0.00    +0.000 C 
ATOM      9  C   UNL     1      39.691  -0.536   9.079  0.00  0.00    +0.000 A 
ATOM     10  C   UNL     1      38.267  -0.390   9.552  0.00  0.00    +0.000 C 
ATOM     11  C   UNL     1      42.999  -2.270   9.909  0.00  0.00    +0.000 A 
ATOM     12  C   UNL     1      40.123   0.174   8.018  0.00  0.00    +0.000 A 
ATOM     13  C   UNL     1      45.317  -2.625   9.418  0.00  0.00    +0.000 A 
ATOM     14  C   UNL     1      40.613  -1.408   9.798  0.00  0.00    +0.000 A 
ATOM     15  C   UNL     1      41.548   0.083   7.565  0.00  0.00    +0.000 A 
ATOM     16  C   UNL     1      45.333  -3.496  10.545  0.00  0.00    +0.000 A 
ATOM     17  C   UNL     1      39.243   1.094   7.247  0.00  0.00    +0.000 C 
ATOM     18  C   UNL     1      44.116  -3.688  11.278  0.00  0.00    +0.000 A 
ATOM     19  C   UNL     1      37.351   0.023   8.377  0.00  0.00    +0.000 C 
ATOM     20  C   UNL     1      46.441  -5.010  12.101  0.00  0.00    +0.000 A 
ATOM     21  C   UNL     1      46.488  -4.181  10.981  0.00  0.00    +0.000 A 
ATOM     22  C   UNL     1      44.112  -4.541  12.374  0.00  0.00    +0.000 A 
ATOM     23  C   UNL     1      45.259  -5.214  12.794  0.00  0.00    +0.000 A 
ENDROOT
BRANCH  10  24
ATOM     24  O   UNL     1      37.816  -1.656  10.053  0.00  0.00    +0.000 OA
ATOM     25  H   UNL     1      37.962  -2.302   9.333  0.00  0.00    +0.000 HD
ENDBRANCH  10  24
BRANCH  10  26
ATOM     26  C   UNL     1      38.177   0.657  10.683  0.00  0.00    +0.000 C 
ATOM     27  C   UNL     1      37.208   0.295  11.805  0.00  0.00    +0.000 C 
ENDBRANCH  10  26
BRANCH  13  28
ATOM     28  C   UNL     1      46.538  -2.335   8.579  0.00  0.00    +0.000 C 
ATOM     29  C   UNL     1      46.661  -3.285   7.397  0.00  0.00    +0.000 C 
ENDBRANCH  13  28
BRANCH  20  30
ATOM     30  O   UNL     1      47.589  -5.707  12.480  0.00  0.00    +0.000 OA
BRANCH  30  38
ATOM     31  O   UNL     1      47.448  -6.012  14.772  0.00  0.00    +0.000 OA
ATOM     32  N   UNL     1      49.021  -4.576  13.897  0.00  0.00    +0.000 N 
ATOM     33  C   UNL     1      50.434  -2.038  14.256  0.00  0.00    +0.000 C 
ATOM     34  C   UNL     1      49.789  -2.461  12.912  0.00  0.00    +0.000 C 
ATOM     35  C   UNL     1      49.679  -2.754  15.405  0.00  0.00    +0.000 C 
ATOM     36  C   UNL     1      49.695  -3.976  12.757  0.00  0.00    +0.000 C 
ATOM     37  C   UNL     1      49.589  -4.262  15.194  0.00  0.00    +0.000 C 
ATOM     38  C   UNL     1      47.975  -5.480  13.798  0.00  0.00    +0.000 C 
BRANCH  33  39
ATOM     39  N   UNL     1      50.438  -0.552  14.435  0.00  0.00    +0.000 NA
ATOM     40  C   UNL     1      49.459   0.116  13.550  0.00  0.00    +0.000 C 
ATOM     41  C   UNL     1      50.197  -0.157  15.838  0.00  0.00    +0.000 C 
ATOM     42  C   UNL     1      49.470   1.640  13.696  0.00  0.00    +0.000 C 
ATOM     43  C   UNL     1      50.225   1.360  16.042  0.00  0.00    +0.000 C 
ATOM     44  C   UNL     1      49.231   2.063  15.135  0.00  0.00    +0.000 C 
ENDBRANCH  33  39
ENDBRANCH  30  38
ENDBRANCH  20  30
TORSDOF 6
ENDMDL
MODEL 3
REMARK VINA RESULT:      -7.5     19.116     26.154
REMARK  Name = 
REMARK  8 active torsions:
REMARK  status: ('A' for Active; 'I' for Inactive)
REMARK    1  A    between atoms: O_1  and  C_21
REMARK    2  A    between atoms: O_1  and  C_38
REMARK    3  A    between atoms: O_4  and  C_26
REMARK    4  A    between atoms: N_7  and  C_11
REMARK    5  A    between atoms: C_26  and  C_33
REMARK    6  A    between atoms: C_29  and  C_37
REMARK    7  A    between atoms: C_33  and  C_42
REMARK    8  A    between atoms: C_37  and  C_43
REMARK                            x       y       z     vdW  Elec       q    Type
REMARK                         _______ _______ _______ _____ _____    ______ ____
ROOT
ATOM      1  O   UNL     1      24.627   1.850   3.408  0.00  0.00    +0.000 OA
ATOM      2  O   UNL     1      20.669   0.408   3.387  0.00  0.00    +0.000 OA
ATOM      3  O   UNL     1      26.257   2.407   4.851  0.00  0.00    +0.000 OA
ATOM      4  N   UNL     1      20.978  -0.713   5.366  0.00  0.00    +0.000 N 
ATOM      5  N   UNL     1      21.449  -2.515   8.432  0.00  0.00    +0.000 NA
ATOM      6  C   UNL     1      21.802  -1.139   6.388  0.00  0.00    +0.000 A 
ATOM      7  C   UNL     1      19.697  -1.956   6.844  0.00  0.00    +0.000 A 
ATOM      8  C   UNL     1      19.603  -1.182   5.561  0.00  0.00    +0.000 C 
ATOM      9  C   UNL     1      23.649  -0.011   5.329  0.00  0.00    +0.000 A 
ATOM     10  C   UNL     1      25.121   0.320   5.307  0.00  0.00    +0.000 C 
ATOM     11  C   UNL     1      21.001  -1.924   7.321  0.00  0.00    +0.000 A 
ATOM     12  C   UNL     1      22.851   0.408   4.328  0.00  0.00    +0.000 A 
ATOM     13  C   UNL     1      18.731  -2.652   7.558  0.00  0.00    +0.000 A 
ATOM     14  C   UNL     1      23.101  -0.823   6.409  0.00  0.00    +0.000 A 
ATOM     15  C   UNL     1      21.398   0.046   4.305  0.00  0.00    +0.000 A 
ATOM     16  C   UNL     1      19.159  -3.314   8.745  0.00  0.00    +0.000 A 
ATOM     17  C   UNL     1      23.345   1.227   3.187  0.00  0.00    +0.000 C 
ATOM     18  C   UNL     1      20.535  -3.204   9.131  0.00  0.00    +0.000 A 
ATOM     19  C   UNL     1      25.365   1.625   4.516  0.00  0.00    +0.000 C 
ATOM     20  C   UNL     1      18.780  -4.711  10.705  0.00  0.00    +0.000 A 
ATOM     21  C   UNL     1      18.296  -4.077   9.563  0.00  0.00    +0.000 A 
ATOM     22  C   UNL     1      20.966  -3.836  10.290  0.00  0.00    +0.000 A 
ATOM     23  C   UNL     1      20.104  -4.585  11.091  0.00  0.00    +0.000 A 
ENDROOT
BRANCH  10  24
ATOM     24  O   UNL     1      25.569   0.518   6.655  0.00  0.00    +0.000 OA
ATOM     25  H   UNL     1      26.445   0.948   6.591  0.00  0.00    +0.000 HD
ENDBRANCH  10  24
BRANCH  10  26
ATOM     26  C   UNL     1      25.925  -0.837   4.676  0.00  0.00    +0.000 C 
ATOM     27  C   UNL     1      27.390  -0.895   5.102  0.00  0.00    +0.000 C 
ENDBRANCH  10  26
BRANCH  13  28
ATOM     28  C   UNL     1      17.313  -2.707   7.045  0.00  0.00    +0.000 C 
ATOM     29  C   UNL     1      16.475  -1.541   7.548  0.00  0.00    +0.000 C 
ENDBRANCH  13  28
BRANCH  20  30
ATOM     30  O   UNL     1      17.893  -5.421  11.516  0.00  0.00    +0.000 OA
BRANCH  30  38
ATOM     31  O   UNL     1      15.666  -5.174  10.929  0.00  0.00    +0.000 OA
ATOM     32  N   UNL     1      16.581  -3.833  12.562  0.00  0.00    +0.000 N 
ATOM     33  C   UNL     1      16.640  -1.148  13.723  0.00  0.00    +0.000 C 
ATOM     34  C   UNL     1      17.923  -1.951  13.392  0.00  0.00    +0.000 C 
ATOM     35  C   UNL     1      15.503  -1.640  12.793  0.00  0.00    +0.000 C 
ATOM     36  C   UNL     1      17.694  -3.460  13.418  0.00  0.00    +0.000 C 
ATOM     37  C   UNL     1      15.329  -3.154  12.835  0.00  0.00    +0.000 C 
ATOM     38  C   UNL     1      16.631  -4.841  11.611  0.00  0.00    +0.000 C 
BRANCH  33  39
ATOM     39  N   UNL     1      16.856   0.329  13.606  0.00  0.00    +0.000 NA
ATOM     40  C   UNL     1      17.411   0.706  12.288  0.00  0.00    +0.000 C 
ATOM     41  C   UNL     1      15.620   1.097  13.868  0.00  0.00    +0.000 C 
ATOM     42  C   UNL     1      17.668   2.209  12.159  0.00  0.00    +0.000 C 
ATOM     43  C   UNL     1      15.831   2.610  13.777  0.00  0.00    +0.000 C 
ATOM     44  C   UNL     1      16.409   3.014  12.433  0.00  0.00    +0.000 C 
ENDBRANCH  33  39
ENDBRANCH  30  38
ENDBRANCH  20  30
TORSDOF 6
ENDMDL
MODEL 4
REMARK VINA RESULT:      -7.2     42.184     47.929
REMARK  Name = 
REMARK  8 active torsions:
REMARK  status: ('A' for Active; 'I' for Inactive)
REMARK    1  A    between atoms: O_1  and  C_21
REMARK    2  A    between atoms: O_1  and  C_38
REMARK    3  A    between atoms: O_4  and  C_26
REMARK    4  A    between atoms: N_7  and  C_11
REMARK    5  A    between atoms: C_26  and  C_33
REMARK    6  A    between atoms: C_29  and  C_37
REMARK    7  A    between atoms: C_33  and  C_42
REMARK    8  A    between atoms: C_37  and  C_43
REMARK                            x       y       z     vdW  Elec       q    Type
REMARK                         _______ _______ _______ _____ _____    ______ ____
ROOT
ATOM      1  O   UNL     1      14.587  -1.544  54.001  0.00  0.00    +0.000 OA
ATOM      2  O   UNL     1      14.213  -2.151  49.848  0.00  0.00    +0.000 OA
ATOM      3  O   UNL     1      15.896  -0.474  55.480  0.00  0.00    +0.000 OA
ATOM      4  N   UNL     1      15.171  -0.119  49.380  0.00  0.00    +0.000 N 
ATOM      5  N   UNL     1      16.620   3.073  48.621  0.00  0.00    +0.000 NA
ATOM      6  C   UNL     1      15.676   1.095  49.800  0.00  0.00    +0.000 A 
ATOM      7  C   UNL     1      15.832   1.066  47.501  0.00  0.00    +0.000 A 
ATOM      8  C   UNL     1      15.226  -0.241  47.921  0.00  0.00    +0.000 C 
ATOM      9  C   UNL     1      15.230   0.458  52.081  0.00  0.00    +0.000 A 
ATOM     10  C   UNL     1      15.229   0.816  53.546  0.00  0.00    +0.000 C 
ATOM     11  C   UNL     1      16.092   1.847  48.621  0.00  0.00    +0.000 A 
ATOM     12  C   UNL     1      14.735  -0.729  51.678  0.00  0.00    +0.000 A 
ATOM     13  C   UNL     1      16.138   1.564  46.242  0.00  0.00    +0.000 A 
ATOM     14  C   UNL     1      15.722   1.416  51.097  0.00  0.00    +0.000 A 
ATOM     15  C   UNL     1      14.679  -1.081  50.223  0.00  0.00    +0.000 A 
ATOM     16  C   UNL     1      16.691   2.876  46.185  0.00  0.00    +0.000 A 
ATOM     17  C   UNL     1      14.203  -1.746  52.625  0.00  0.00    +0.000 C 
ATOM     18  C   UNL     1      16.912   3.579  47.414  0.00  0.00    +0.000 A 
ATOM     19  C   UNL     1      15.285  -0.464  54.411  0.00  0.00    +0.000 C 
ATOM     20  C   UNL     1      17.558   4.813  44.987  0.00  0.00    +0.000 A 
ATOM     21  C   UNL     1      17.032   3.523  44.977  0.00  0.00    +0.000 A 
ATOM     22  C   UNL     1      17.458   4.856  47.376  0.00  0.00    +0.000 A 
ATOM     23  C   UNL     1      17.793   5.483  46.175  0.00  0.00    +0.000 A 
ENDROOT
BRANCH  10  24
ATOM     24  O   UNL     1      16.394   1.603  53.829  0.00  0.00    +0.000 OA
ATOM     25  H   UNL     1      16.544   2.163  53.040  0.00  0.00    +0.000 HD
ENDBRANCH  10  24
BRANCH  10  26
ATOM     26  C   UNL     1      13.971   1.638  53.901  0.00  0.00    +0.000 C 
ATOM     27  C   UNL     1      14.260   3.001  54.523  0.00  0.00    +0.000 C 
ENDBRANCH  10  26
BRANCH  13  28
ATOM     28  C   UNL     1      15.849   0.733  45.016  0.00  0.00    +0.000 C 
ATOM     29  C   UNL     1      17.041  -0.119  44.606  0.00  0.00    +0.000 C 
ENDBRANCH  13  28
BRANCH  20  30
ATOM     30  O   UNL     1      17.925   5.407  43.779  0.00  0.00    +0.000 OA
BRANCH  30  38
ATOM     31  O   UNL     1      15.798   6.092  43.169  0.00  0.00    +0.000 OA
ATOM     32  N   UNL     1      17.156   5.047  41.630  0.00  0.00    +0.000 N 
ATOM     33  C   UNL     1      17.260   3.162  39.394  0.00  0.00    +0.000 C 
ATOM     34  C   UNL     1      18.245   3.108  40.589  0.00  0.00    +0.000 C 
ATOM     35  C   UNL     1      15.946   3.829  39.875  0.00  0.00    +0.000 C 
ATOM     36  C   UNL     1      18.435   4.467  41.256  0.00  0.00    +0.000 C 
ATOM     37  C   UNL     1      16.189   5.172  40.556  0.00  0.00    +0.000 C 
ATOM     38  C   UNL     1      16.870   5.563  42.885  0.00  0.00    +0.000 C 
BRANCH  33  39
ATOM     39  N   UNL     1      17.014   1.808  38.806  0.00  0.00    +0.000 NA
ATOM     40  C   UNL     1      16.110   0.994  39.647  0.00  0.00    +0.000 C 
ATOM     41  C   UNL     1      16.485   1.884  37.428  0.00  0.00    +0.000 C 
ATOM     42  C   UNL     1      15.870  -0.407  39.078  0.00  0.00    +0.000 C 
ATOM     43  C   UNL     1      16.253   0.506  36.803  0.00  0.00    +0.000 C 
ATOM     44  C   UNL     1      15.333  -0.346  37.659  0.00  0.00    +0.000 C 
ENDBRANCH  33  39
ENDBRANCH  30  38
ENDBRANCH  20  30
TORSDOF 6
ENDMDL
MODEL 5
REMARK VINA RESULT:      -7.2     18.706     25.603
REMARK  Name = 
REMARK  8 active torsions:
REMARK  status: ('A' for Active; 'I' for Inactive)
REMARK    1  A    between atoms: O_1  and  C_21
REMARK    2  A    between atoms: O_1  and  C_38
REMARK    3  A    between atoms: O_4  and  C_26
REMARK    4  A    between atoms: N_7  and  C_11
REMARK    5  A    between atoms: C_26  and  C_33
REMARK    6  A    between atoms: C_29  and  C_37
REMARK    7  A    between atoms: C_33  and  C_42
REMARK    8  A    between atoms: C_37  and  C_43
REMARK                            x       y       z     vdW  Elec       q    Type
REMARK                         _______ _______ _______ _____ _____    ______ ____
ROOT
ATOM      1  O   UNL     1      25.320   0.565   1.499  0.00  0.00    +0.000 OA
ATOM      2  O   UNL     1      22.105  -1.986   2.448  0.00  0.00    +0.000 OA
ATOM      3  O   UNL     1      26.327   2.429   2.247  0.00  0.00    +0.000 OA
ATOM      4  N   UNL     1      22.279  -1.510   4.687  0.00  0.00    +0.000 N 
ATOM      5  N   UNL     1      22.561  -0.823   8.196  0.00  0.00    +0.000 NA
ATOM      6  C   UNL     1      22.936  -0.902   5.737  0.00  0.00    +0.000 A 
ATOM      7  C   UNL     1      21.134  -2.022   6.636  0.00  0.00    +0.000 A 
ATOM      8  C   UNL     1      21.106  -2.255   5.154  0.00  0.00    +0.000 C 
ATOM      9  C   UNL     1      24.543  -0.012   4.177  0.00  0.00    +0.000 A 
ATOM     10  C   UNL     1      25.808   0.771   3.930  0.00  0.00    +0.000 C 
ATOM     11  C   UNL     1      22.222  -1.222   6.968  0.00  0.00    +0.000 A 
ATOM     12  C   UNL     1      23.906  -0.604   3.147  0.00  0.00    +0.000 A 
ATOM     13  C   UNL     1      20.290  -2.468   7.643  0.00  0.00    +0.000 A 
ATOM     14  C   UNL     1      24.036  -0.170   5.536  0.00  0.00    +0.000 A 
ATOM     15  C   UNL     1      22.679  -1.430   3.378  0.00  0.00    +0.000 A 
ATOM     16  C   UNL     1      20.615  -2.083   8.976  0.00  0.00    +0.000 A 
ATOM     17  C   UNL     1      24.375  -0.499   1.738  0.00  0.00    +0.000 C 
ATOM     18  C   UNL     1      21.765  -1.254   9.186  0.00  0.00    +0.000 A 
ATOM     19  C   UNL     1      25.817   1.334   2.491  0.00  0.00    +0.000 C 
ATOM     20  C   UNL     1      20.241  -2.078  11.384  0.00  0.00    +0.000 A 
ATOM     21  C   UNL     1      19.863  -2.478  10.104  0.00  0.00    +0.000 A 
ATOM     22  C   UNL     1      22.091  -0.862  10.479  0.00  0.00    +0.000 A 
ATOM     23  C   UNL     1      21.339  -1.257  11.585  0.00  0.00    +0.000 A 
ENDROOT
BRANCH  10  24
ATOM     24  O   UNL     1      25.853   1.874   4.847  0.00  0.00    +0.000 OA
ATOM     25  H   UNL     1      26.110   1.498   5.713  0.00  0.00    +0.000 HD
ENDBRANCH  10  24
BRANCH  10  26
ATOM     26  C   UNL     1      27.048  -0.119   4.156  0.00  0.00    +0.000 C 
ATOM     27  C   UNL     1      28.259   0.615   4.725  0.00  0.00    +0.000 C 
ENDBRANCH  10  26
BRANCH  13  28
ATOM     28  C   UNL     1      19.113  -3.348   7.300  0.00  0.00    +0.000 C 
ATOM     29  C   UNL     1      17.867  -2.538   6.971  0.00  0.00    +0.000 C 
ENDBRANCH  13  28
BRANCH  20  30
ATOM     30  O   UNL     1      19.452  -2.448  12.473  0.00  0.00    +0.000 OA
BRANCH  30  38
ATOM     31  O   UNL     1      17.464  -3.495  11.910  0.00  0.00    +0.000 OA
ATOM     32  N   UNL     1      17.505  -1.221  12.270  0.00  0.00    +0.000 N 
ATOM     33  C   UNL     1      16.454   1.374  11.418  0.00  0.00    +0.000 C 
ATOM     34  C   UNL     1      17.962   1.113  11.659  0.00  0.00    +0.000 C 
ATOM     35  C   UNL     1      15.780   0.028  11.048  0.00  0.00    +0.000 C 
ATOM     36  C   UNL     1      18.211  -0.013  12.660  0.00  0.00    +0.000 C 
ATOM     37  C   UNL     1      16.077  -1.071  12.064  0.00  0.00    +0.000 C 
ATOM     38  C   UNL     1      18.088  -2.477  12.196  0.00  0.00    +0.000 C 
BRANCH  33  39
ATOM     39  N   UNL     1      16.225   2.417  10.369  0.00  0.00    +0.000 NA
ATOM     40  C   UNL     1      16.571   1.929   9.016  0.00  0.00    +0.000 C 
ATOM     41  C   UNL     1      14.837   2.925  10.380  0.00  0.00    +0.000 C 
ATOM     42  C   UNL     1      16.372   2.992   7.933  0.00  0.00    +0.000 C 
ATOM     43  C   UNL     1      14.594   4.012   9.330  0.00  0.00    +0.000 C 
ATOM     44  C   UNL     1      14.952   3.530   7.935  0.00  0.00    +0.000 C 
ENDBRANCH  33  39
ENDBRANCH  30  38
ENDBRANCH  20  30
TORSDOF 6
ENDMDL
MODEL 6
REMARK VINA RESULT:      -7.1     18.414     26.352
REMARK  Name = 
REMARK  8 active torsions:
REMARK  status: ('A' for Active; 'I' for Inactive)
REMARK    1  A    between atoms: O_1  and  C_21
REMARK    2  A    between atoms: O_1  and  C_38
REMARK    3  A    between atoms: O_4  and  C_26
REMARK    4  A    between atoms: N_7  and  C_11
REMARK    5  A    between atoms: C_26  and  C_33
REMARK    6  A    between atoms: C_29  and  C_37
REMARK    7  A    between atoms: C_33  and  C_42
REMARK    8  A    between atoms: C_37  and  C_43
REMARK                            x       y       z     vdW  Elec       q    Type
REMARK                         _______ _______ _______ _____ _____    ______ ____
ROOT
ATOM      1  O   UNL     1      25.627   0.349   2.054  0.00  0.00    +0.000 OA
ATOM      2  O   UNL     1      22.176  -1.941   2.825  0.00  0.00    +0.000 OA
ATOM      3  O   UNL     1      26.747   2.117   2.872  0.00  0.00    +0.000 OA
ATOM      4  N   UNL     1      22.288  -1.506   5.075  0.00  0.00    +0.000 N 
ATOM      5  N   UNL     1      22.467  -0.882   8.603  0.00  0.00    +0.000 NA
ATOM      6  C   UNL     1      22.945  -0.965   6.162  0.00  0.00    +0.000 A 
ATOM      7  C   UNL     1      21.019  -1.943   6.965  0.00  0.00    +0.000 A 
ATOM      8  C   UNL     1      21.039  -2.157   5.479  0.00  0.00    +0.000 C 
ATOM      9  C   UNL     1      24.686  -0.192   4.687  0.00  0.00    +0.000 A 
ATOM     10  C   UNL     1      26.020   0.488   4.507  0.00  0.00    +0.000 C 
ATOM     11  C   UNL     1      22.152  -1.239   7.355  0.00  0.00    +0.000 A 
ATOM     12  C   UNL     1      24.051  -0.718   3.621  0.00  0.00    +0.000 A 
ATOM     13  C   UNL     1      20.097  -2.330   7.928  0.00  0.00    +0.000 A 
ATOM     14  C   UNL     1      24.108  -0.322   6.019  0.00  0.00    +0.000 A 
ATOM     15  C   UNL     1      22.751  -1.444   3.787  0.00  0.00    +0.000 A 
ATOM     16  C   UNL     1      20.393  -1.988   9.279  0.00  0.00    +0.000 A 
ATOM     17  C   UNL     1      24.589  -0.636   2.236  0.00  0.00    +0.000 C 
ATOM     18  C   UNL     1      21.596  -1.258   9.551  0.00  0.00    +0.000 A 
ATOM     19  C   UNL     1      26.140   1.065   3.078  0.00  0.00    +0.000 C 
ATOM     20  C   UNL     1      19.913  -1.979  11.668  0.00  0.00    +0.000 A 
ATOM     21  C   UNL     1      19.561  -2.332  10.367  0.00  0.00    +0.000 A 
ATOM     22  C   UNL     1      21.894  -0.908  10.862  0.00  0.00    +0.000 A 
ATOM     23  C   UNL     1      21.063  -1.253  11.928  0.00  0.00    +0.000 A 
ENDROOT
BRANCH  10  24
ATOM     24  O   UNL     1      26.113   1.573   5.441  0.00  0.00    +0.000 OA
ATOM     25  H   UNL     1      27.066   1.776   5.530  0.00  0.00    +0.000 HD
ENDBRANCH  10  24
BRANCH  10  26
ATOM     26  C   UNL     1      27.173  -0.503   4.774  0.00  0.00    +0.000 C 
ATOM     27  C   UNL     1      28.562   0.038   4.445  0.00  0.00    +0.000 C 
ENDBRANCH  10  26
BRANCH  13  28
ATOM     28  C   UNL     1      18.869  -3.107   7.520  0.00  0.00    +0.000 C 
ATOM     29  C   UNL     1      17.716  -2.195   7.131  0.00  0.00    +0.000 C 
ENDBRANCH  13  28
BRANCH  20  30
ATOM     30  O   UNL     1      19.049  -2.296  12.716  0.00  0.00    +0.000 OA
BRANCH  30  38
ATOM     31  O   UNL     1      18.769  -0.113  13.439  0.00  0.00    +0.000 OA
ATOM     32  N   UNL     1      16.952  -1.522  13.304  0.00  0.00    +0.000 N 
ATOM     33  C   UNL     1      14.426  -2.324  14.543  0.00  0.00    +0.000 C 
ATOM     34  C   UNL     1      15.495  -3.342  14.074  0.00  0.00    +0.000 C 
ATOM     35  C   UNL     1      15.137  -0.985  14.866  0.00  0.00    +0.000 C 
ATOM     36  C   UNL     1      16.365  -2.801  12.943  0.00  0.00    +0.000 C 
ATOM     37  C   UNL     1      16.012  -0.497  13.716  0.00  0.00    +0.000 C 
ATOM     38  C   UNL     1      18.299  -1.216  13.173  0.00  0.00    +0.000 C 
BRANCH  33  39
ATOM     39  N   UNL     1      13.640  -2.833  15.711  0.00  0.00    +0.000 NA
ATOM     40  C   UNL     1      13.845  -4.280  15.930  0.00  0.00    +0.000 C 
ATOM     41  C   UNL     1      13.940  -2.090  16.953  0.00  0.00    +0.000 C 
ATOM     42  C   UNL     1      13.026  -4.826  17.102  0.00  0.00    +0.000 C 
ATOM     43  C   UNL     1      13.125  -2.580  18.152  0.00  0.00    +0.000 C 
ATOM     44  C   UNL     1      13.318  -4.068  18.386  0.00  0.00    +0.000 C 
ENDBRANCH  33  39
ENDBRANCH  30  38
ENDBRANCH  20  30
TORSDOF 6
ENDMDL
MODEL 7
REMARK VINA RESULT:      -7.1     38.596     43.728
REMARK  Name = 
REMARK  8 active torsions:
REMARK  status: ('A' for Active; 'I' for Inactive)
REMARK    1  A    between atoms: O_1  and  C_21
REMARK    2  A    between atoms: O_1  and  C_38
REMARK    3  A    between atoms: O_4  and  C_26
REMARK    4  A    between atoms: N_7  and  C_11
REMARK    5  A    between atoms: C_26  and  C_33
REMARK    6  A    between atoms: C_29  and  C_37
REMARK    7  A    between atoms: C_33  and  C_42
REMARK    8  A    between atoms: C_37  and  C_43
REMARK                            x       y       z     vdW  Elec       q    Type
REMARK                         _______ _______ _______ _____ _____    ______ ____
ROOT
ATOM      1  O   UNL     1      22.526 -10.549  49.993  0.00  0.00    +0.000 OA
ATOM      2  O   UNL     1      23.344  -8.703  46.296  0.00  0.00    +0.000 OA
ATOM      3  O   UNL     1      20.803 -10.965  51.374  0.00  0.00    +0.000 OA
ATOM      4  N   UNL     1      21.234  -9.150  45.511  0.00  0.00    +0.000 N 
ATOM      5  N   UNL     1      17.961  -9.880  44.239  0.00  0.00    +0.000 NA
ATOM      6  C   UNL     1      20.001  -9.751  45.659  0.00  0.00    +0.000 A 
ATOM      7  C   UNL     1      19.981  -8.681  43.618  0.00  0.00    +0.000 A 
ATOM      8  C   UNL     1      21.327  -8.435  44.235  0.00  0.00    +0.000 C 
ATOM      9  C   UNL     1      20.700 -10.588  47.808  0.00  0.00    +0.000 A 
ATOM     10  C   UNL     1      20.401 -11.417  49.032  0.00  0.00    +0.000 C 
ATOM     11  C   UNL     1      19.207  -9.461  44.470  0.00  0.00    +0.000 A 
ATOM     12  C   UNL     1      21.907 -10.004  47.669  0.00  0.00    +0.000 A 
ATOM     13  C   UNL     1      19.448  -8.272  42.404  0.00  0.00    +0.000 A 
ATOM     14  C   UNL     1      19.700 -10.457  46.754  0.00  0.00    +0.000 A 
ATOM     15  C   UNL     1      22.241  -9.221  46.437  0.00  0.00    +0.000 A 
ATOM     16  C   UNL     1      18.125  -8.705  42.101  0.00  0.00    +0.000 A 
ATOM     17  C   UNL     1      22.979 -10.109  48.696  0.00  0.00    +0.000 C 
ATOM     18  C   UNL     1      17.431  -9.507  43.065  0.00  0.00    +0.000 A 
ATOM     19  C   UNL     1      21.253 -10.935  50.228  0.00  0.00    +0.000 C 
ATOM     20  C   UNL     1      16.169  -8.852  40.655  0.00  0.00    +0.000 A 
ATOM     21  C   UNL     1      17.460  -8.386  40.897  0.00  0.00    +0.000 A 
ATOM     22  C   UNL     1      16.137  -9.930  42.789  0.00  0.00    +0.000 A 
ATOM     23  C   UNL     1      15.490  -9.607  41.596  0.00  0.00    +0.000 A 
ENDROOT
BRANCH  10  24
ATOM     24  O   UNL     1      19.016 -11.257  49.370  0.00  0.00    +0.000 OA
ATOM     25  H   UNL     1      18.991 -10.651  50.137  0.00  0.00    +0.000 HD
ENDBRANCH  10  24
BRANCH  10  26
ATOM     26  C   UNL     1      20.680 -12.910  48.754  0.00  0.00    +0.000 C 
ATOM     27  C   UNL     1      19.768 -13.875  49.507  0.00  0.00    +0.000 C 
ENDBRANCH  10  26
BRANCH  13  28
ATOM     28  C   UNL     1      20.281  -7.436  41.463  0.00  0.00    +0.000 C 
ATOM     29  C   UNL     1      20.765  -8.234  40.262  0.00  0.00    +0.000 C 
ENDBRANCH  13  28
BRANCH  20  30
ATOM     30  O   UNL     1      15.523  -8.483  39.474  0.00  0.00    +0.000 OA
BRANCH  30  38
ATOM     31  O   UNL     1      14.621  -6.449  40.119  0.00  0.00    +0.000 OA
ATOM     32  N   UNL     1      15.973  -6.570  38.258  0.00  0.00    +0.000 N 
ATOM     33  C   UNL     1      16.432  -5.579  35.543  0.00  0.00    +0.000 C 
ATOM     34  C   UNL     1      16.472  -7.084  35.909  0.00  0.00    +0.000 C 
ATOM     35  C   UNL     1      15.518  -4.854  36.563  0.00  0.00    +0.000 C 
ATOM     36  C   UNL     1      16.842  -7.324  37.371  0.00  0.00    +0.000 C 
ATOM     37  C   UNL     1      15.911  -5.143  38.008  0.00  0.00    +0.000 C 
ATOM     38  C   UNL     1      15.314  -7.112  39.352  0.00  0.00    +0.000 C 
BRANCH  33  39
ATOM     39  N   UNL     1      15.981  -5.355  34.134  0.00  0.00    +0.000 NA
ATOM     40  C   UNL     1      16.480  -6.403  33.218  0.00  0.00    +0.000 C 
ATOM     41  C   UNL     1      14.511  -5.254  34.027  0.00  0.00    +0.000 C 
ATOM     42  C   UNL     1      16.055  -6.175  31.765  0.00  0.00    +0.000 C 
ATOM     43  C   UNL     1      14.035  -4.998  32.595  0.00  0.00    +0.000 C 
ATOM     44  C   UNL     1      14.546  -6.061  31.639  0.00  0.00    +0.000 C 
ENDBRANCH  33  39
ENDBRANCH  30  38
ENDBRANCH  20  30
TORSDOF 6
ENDMDL
MODEL 8
REMARK VINA RESULT:      -7.1     39.289     45.313
REMARK  Name = 
REMARK  8 active torsions:
REMARK  status: ('A' for Active; 'I' for Inactive)
REMARK    1  A    between atoms: O_1  and  C_21
REMARK    2  A    between atoms: O_1  and  C_38
REMARK    3  A    between atoms: O_4  and  C_26
REMARK    4  A    between atoms: N_7  and  C_11
REMARK    5  A    between atoms: C_26  and  C_33
REMARK    6  A    between atoms: C_29  and  C_37
REMARK    7  A    between atoms: C_33  and  C_42
REMARK    8  A    between atoms: C_37  and  C_43
REMARK                            x       y       z     vdW  Elec       q    Type
REMARK                         _______ _______ _______ _____ _____    ______ ____
ROOT
ATOM      1  O   UNL     1      15.225  -1.130  50.689  0.00  0.00    +0.000 OA
ATOM      2  O   UNL     1      14.874  -1.410  46.499  0.00  0.00    +0.000 OA
ATOM      3  O   UNL     1      16.470  -0.108  52.255  0.00  0.00    +0.000 OA
ATOM      4  N   UNL     1      15.702   0.710  46.205  0.00  0.00    +0.000 N 
ATOM      5  N   UNL     1      16.946   4.039  45.718  0.00  0.00    +0.000 NA
ATOM      6  C   UNL     1      16.131   1.914  46.725  0.00  0.00    +0.000 A 
ATOM      7  C   UNL     1      16.280   2.087  44.432  0.00  0.00    +0.000 A 
ATOM      8  C   UNL     1      15.758   0.714  44.740  0.00  0.00    +0.000 C 
ATOM      9  C   UNL     1      15.734   1.063  48.944  0.00  0.00    +0.000 A 
ATOM     10  C   UNL     1      15.717   1.296  50.434  0.00  0.00    +0.000 C 
ATOM     11  C   UNL     1      16.495   2.786  45.614  0.00  0.00    +0.000 A 
ATOM     12  C   UNL     1      15.313  -0.115  48.443  0.00  0.00    +0.000 A 
ATOM     13  C   UNL     1      16.550   2.707  43.220  0.00  0.00    +0.000 A 
ATOM     14  C   UNL     1      16.162   2.128  48.044  0.00  0.00    +0.000 A 
ATOM     15  C   UNL     1      15.273  -0.347  46.964  0.00  0.00    +0.000 A 
ATOM     16  C   UNL     1      17.019   4.051  43.273  0.00  0.00    +0.000 A 
ATOM     17  C   UNL     1      14.849  -1.240  49.300  0.00  0.00    +0.000 C 
ATOM     18  C   UNL     1      17.200   4.662  44.557  0.00  0.00    +0.000 A 
ATOM     19  C   UNL     1      15.855  -0.046  51.189  0.00  0.00    +0.000 C 
ATOM     20  C   UNL     1      17.759   6.132  42.243  0.00  0.00    +0.000 A 
ATOM     21  C   UNL     1      17.315   4.817  42.124  0.00  0.00    +0.000 A 
ATOM     22  C   UNL     1      17.666   5.969  44.627  0.00  0.00    +0.000 A 
ATOM     23  C   UNL     1      17.956   6.713  43.484  0.00  0.00    +0.000 A 
ENDROOT
BRANCH  10  24
ATOM     24  O   UNL     1      16.832   2.128  50.783  0.00  0.00    +0.000 OA
ATOM     25  H   UNL     1      17.631   1.660  50.469  0.00  0.00    +0.000 HD
ENDBRANCH  10  24
BRANCH  10  26
ATOM     26  C   UNL     1      14.411   2.004  50.855  0.00  0.00    +0.000 C 
ATOM     27  C   UNL     1      14.610   3.192  51.792  0.00  0.00    +0.000 C 
ENDBRANCH  10  26
BRANCH  13  28
ATOM     28  C   UNL     1      16.308   1.965  41.928  0.00  0.00    +0.000 C 
ATOM     29  C   UNL     1      17.589   1.378  41.355  0.00  0.00    +0.000 C 
ENDBRANCH  13  28
BRANCH  20  30
ATOM     30  O   UNL     1      18.084   6.847  41.089  0.00  0.00    +0.000 OA
BRANCH  30  38
ATOM     31  O   UNL     1      20.107   5.816  40.632  0.00  0.00    +0.000 OA
ATOM     32  N   UNL     1      18.527   6.036  38.971  0.00  0.00    +0.000 N 
ATOM     33  C   UNL     1      18.075   6.554  36.127  0.00  0.00    +0.000 C 
ATOM     34  C   UNL     1      17.274   7.260  37.250  0.00  0.00    +0.000 C 
ATOM     35  C   UNL     1      19.453   6.135  36.700  0.00  0.00    +0.000 C 
ATOM     36  C   UNL     1      17.200   6.431  38.529  0.00  0.00    +0.000 C 
ATOM     37  C   UNL     1      19.328   5.330  37.990  0.00  0.00    +0.000 C 
ATOM     38  C   UNL     1      18.999   6.198  40.265  0.00  0.00    +0.000 C 
BRANCH  33  39
ATOM     39  N   UNL     1      18.217   7.415  34.911  0.00  0.00    +0.000 NA
ATOM     40  C   UNL     1      16.909   7.717  34.289  0.00  0.00    +0.000 C 
ATOM     41  C   UNL     1      18.939   8.672  35.197  0.00  0.00    +0.000 C 
ATOM     42  C   UNL     1      17.036   8.572  33.025  0.00  0.00    +0.000 C 
ATOM     43  C   UNL     1      19.116   9.552  33.957  0.00  0.00    +0.000 C 
ATOM     44  C   UNL     1      17.783   9.865  33.301  0.00  0.00    +0.000 C 
ENDBRANCH  33  39
ENDBRANCH  30  38
ENDBRANCH  20  30
TORSDOF 6
ENDMDL
MODEL 9
REMARK VINA RESULT:      -7.0     39.222     45.282
REMARK  Name = 
REMARK  8 active torsions:
REMARK  status: ('A' for Active; 'I' for Inactive)
REMARK    1  A    between atoms: O_1  and  C_21
REMARK    2  A    between atoms: O_1  and  C_38
REMARK    3  A    between atoms: O_4  and  C_26
REMARK    4  A    between atoms: N_7  and  C_11
REMARK    5  A    between atoms: C_26  and  C_33
REMARK    6  A    between atoms: C_29  and  C_37
REMARK    7  A    between atoms: C_33  and  C_42
REMARK    8  A    between atoms: C_37  and  C_43
REMARK                            x       y       z     vdW  Elec       q    Type
REMARK                         _______ _______ _______ _____ _____    ______ ____
ROOT
ATOM      1  O   UNL     1      15.392  -0.896  49.770  0.00  0.00    +0.000 OA
ATOM      2  O   UNL     1      15.355  -0.556  45.570  0.00  0.00    +0.000 OA
ATOM      3  O   UNL     1      16.485  -0.091  51.560  0.00  0.00    +0.000 OA
ATOM      4  N   UNL     1      16.131   1.603  45.655  0.00  0.00    +0.000 N 
ATOM      5  N   UNL     1      17.295   4.994  45.760  0.00  0.00    +0.000 NA
ATOM      6  C   UNL     1      16.481   2.725  46.378  0.00  0.00    +0.000 A 
ATOM      7  C   UNL     1      16.790   3.241  44.154  0.00  0.00    +0.000 A 
ATOM      8  C   UNL     1      16.293   1.826  44.216  0.00  0.00    +0.000 C 
ATOM      9  C   UNL     1      15.953   1.543  48.411  0.00  0.00    +0.000 A 
ATOM     10  C   UNL     1      15.819   1.551  49.913  0.00  0.00    +0.000 C 
ATOM     11  C   UNL     1      16.895   3.761  45.439  0.00  0.00    +0.000 A 
ATOM     12  C   UNL     1      15.609   0.444  47.711  0.00  0.00    +0.000 A 
ATOM     13  C   UNL     1      17.126   4.041  43.070  0.00  0.00    +0.000 A 
ATOM     14  C   UNL     1      16.409   2.740  47.713  0.00  0.00    +0.000 A 
ATOM     15  C   UNL     1      15.684   0.434  46.215  0.00  0.00    +0.000 A 
ATOM     16  C   UNL     1      17.545   5.372  43.357  0.00  0.00    +0.000 A 
ATOM     17  C   UNL     1      15.121  -0.806  48.355  0.00  0.00    +0.000 C 
ATOM     18  C   UNL     1      17.612   5.788  44.726  0.00  0.00    +0.000 A 
ATOM     19  C   UNL     1      15.947   0.115  50.471  0.00  0.00    +0.000 C 
ATOM     20  C   UNL     1      18.287   7.599  42.703  0.00  0.00    +0.000 A 
ATOM     21  C   UNL     1      17.897   6.306  42.358  0.00  0.00    +0.000 A 
ATOM     22  C   UNL     1      18.028   7.080  45.023  0.00  0.00    +0.000 A 
ATOM     23  C   UNL     1      18.375   7.993  44.027  0.00  0.00    +0.000 A 
ENDROOT
BRANCH  10  24
ATOM     24  O   UNL     1      16.877   2.347  50.465  0.00  0.00    +0.000 OA
ATOM     25  H   UNL     1      17.674   1.779  50.465  0.00  0.00    +0.000 HD
ENDBRANCH  10  24
BRANCH  10  26
ATOM     26  C   UNL     1      14.464   2.160  50.332  0.00  0.00    +0.000 C 
ATOM     27  C   UNL     1      14.573   3.411  51.198  0.00  0.00    +0.000 C 
ENDBRANCH  10  26
BRANCH  13  28
ATOM     28  C   UNL     1      17.004   3.494  41.669  0.00  0.00    +0.000 C 
ATOM     29  C   UNL     1      18.310   2.893  41.171  0.00  0.00    +0.000 C 
ENDBRANCH  13  28
BRANCH  20  30
ATOM     30  O   UNL     1      18.671   8.485  41.695  0.00  0.00    +0.000 OA
BRANCH  30  38
ATOM     31  O   UNL     1      16.548   9.291  41.240  0.00  0.00    +0.000 OA
ATOM     32  N   UNL     1      17.946   8.691  39.511  0.00  0.00    +0.000 N 
ATOM     33  C   UNL     1      18.114   7.453  36.865  0.00  0.00    +0.000 C 
ATOM     34  C   UNL     1      19.077   7.096  38.025  0.00  0.00    +0.000 C 
ATOM     35  C   UNL     1      16.784   7.963  37.475  0.00  0.00    +0.000 C 
ATOM     36  C   UNL     1      19.238   8.237  39.026  0.00  0.00    +0.000 C 
ATOM     37  C   UNL     1      16.998   9.084  38.487  0.00  0.00    +0.000 C 
ATOM     38  C   UNL     1      17.631   8.861  40.851  0.00  0.00    +0.000 C 
BRANCH  33  39
ATOM     39  N   UNL     1      17.895   6.296  35.940  0.00  0.00    +0.000 NA
ATOM     40  C   UNL     1      17.926   6.706  34.520  0.00  0.00    +0.000 C 
ATOM     41  C   UNL     1      18.865   5.205  36.170  0.00  0.00    +0.000 C 
ATOM     42  C   UNL     1      17.673   5.542  33.559  0.00  0.00    +0.000 C 
ATOM     43  C   UNL     1      18.637   4.003  35.250  0.00  0.00    +0.000 C 
ATOM     44  C   UNL     1      18.659   4.409  33.787  0.00  0.00    +0.000 C 
ENDBRANCH  33  39
ENDBRANCH  30  38
ENDBRANCH  20  30
TORSDOF 6
ENDMDL
