MODEL 1
REMARK VINA RESULT:      -5.7      0.000      0.000
REMARK  Name = 
REMARK  4 active torsions:
REMARK  status: ('A' for Active; 'I' for Inactive)
REMARK    1  A    between atoms: C_1  and  C_6
REMARK    2  A    between atoms: C_1  and  C_7
REMARK    3  A    between atoms: C_9  and  C_14
REMARK    4  A    between atoms: C_11  and  C_15
REMARK                            x       y       z     vdW  Elec       q    Type
REMARK                         _______ _______ _______ _____ _____    ______ ____
ROOT
ATOM      1  C   UNL     1      18.063  11.448  19.044  0.00  0.00    +0.000 C 
ATOM      2  C   UNL     1      19.501  11.023  19.324  0.00  0.00    +0.000 C 
ATOM      3  C   UNL     1      19.221  12.113  18.320  0.00  0.00    +0.000 C 
ATOM      4  C   UNL     1      19.961   9.691  18.936  0.00  0.00    +0.000 C 
ATOM      5  C   UNL     1      19.535  11.930  16.869  0.00  0.00    +0.000 C 
ATOM      6  C   UNL     1      17.115  10.547  18.287  0.00  0.00    +0.000 C 
ATOM      7  C   UNL     1      17.369  12.259  20.113  0.00  0.00    +0.000 C 
ATOM      8  C   UNL     1      20.696   9.282  17.884  0.00  0.00    +0.000 C 
ATOM      9  C   UNL     1      19.584   8.521  19.825  0.00  0.00    +0.000 C 
ATOM     10  C   UNL     1      21.011  11.577  16.685  0.00  0.00    +0.000 C 
ATOM     11  C   UNL     1      21.295  10.062  16.737  0.00  0.00    +0.000 C 
ATOM     12  C   UNL     1      20.871   7.785  17.905  0.00  0.00    +0.000 C 
ATOM     13  C   UNL     1      19.811   7.326  18.898  0.00  0.00    +0.000 C 
ATOM     14  C   UNL     1      20.448   8.449  21.081  0.00  0.00    +0.000 C 
ATOM     15  C   UNL     1      22.814   9.851  16.669  0.00  0.00    +0.000 C 
ENDROOT
TORSDOF 0
ENDMDL
MODEL 2
REMARK VINA RESULT:      -5.3     20.093     22.397
REMARK  Name = 
REMARK  4 active torsions:
REMARK  status: ('A' for Active; 'I' for Inactive)
REMARK    1  A    between atoms: C_1  and  C_6
REMARK    2  A    between atoms: C_1  and  C_7
REMARK    3  A    between atoms: C_9  and  C_14
REMARK    4  A    between atoms: C_11  and  C_15
REMARK                            x       y       z     vdW  Elec       q    Type
REMARK                         _______ _______ _______ _____ _____    ______ ____
ROOT
ATOM      1  C   UNL     1      32.871   0.306   4.501  0.00  0.00    +0.000 C 
ATOM      2  C   UNL     1      32.668   1.390   3.447  0.00  0.00    +0.000 C 
ATOM      3  C   UNL     1      31.638   1.193   4.529  0.00  0.00    +0.000 C 
ATOM      4  C   UNL     1      32.430   1.022   2.053  0.00  0.00    +0.000 C 
ATOM      5  C   UNL     1      30.251   0.734   4.206  0.00  0.00    +0.000 C 
ATOM      6  C   UNL     1      32.740  -1.158   4.151  0.00  0.00    +0.000 C 
ATOM      7  C   UNL     1      33.922   0.562   5.554  0.00  0.00    +0.000 C 
ATOM      8  C   UNL     1      31.292   0.976   1.334  0.00  0.00    +0.000 C 
ATOM      9  C   UNL     1      33.623   0.613   1.210  0.00  0.00    +0.000 C 
ATOM     10  C   UNL     1      29.602   1.677   3.193  0.00  0.00    +0.000 C 
ATOM     11  C   UNL     1      29.865   1.283   1.726  0.00  0.00    +0.000 C 
ATOM     12  C   UNL     1      31.564   0.490  -0.067  0.00  0.00    +0.000 C 
ATOM     13  C   UNL     1      32.958  -0.115   0.042  0.00  0.00    +0.000 C 
ATOM     14  C   UNL     1      34.443   1.816   0.748  0.00  0.00    +0.000 C 
ATOM     15  C   UNL     1      29.274   2.372   0.818  0.00  0.00    +0.000 C 
ENDROOT
TORSDOF 0
ENDMDL
MODEL 3
REMARK VINA RESULT:      -5.1     38.581     40.896
REMARK  Name = 
REMARK  4 active torsions:
REMARK  status: ('A' for Active; 'I' for Inactive)
REMARK    1  A    between atoms: C_1  and  C_6
REMARK    2  A    between atoms: C_1  and  C_7
REMARK    3  A    between atoms: C_9  and  C_14
REMARK    4  A    between atoms: C_11  and  C_15
REMARK                            x       y       z     vdW  Elec       q    Type
REMARK                         _______ _______ _______ _____ _____    ______ ____
ROOT
ATOM      1  C   UNL     1      40.158 -16.625  -1.501  0.00  0.00    +0.000 C 
ATOM      2  C   UNL     1      41.556 -17.221  -1.644  0.00  0.00    +0.000 C 
ATOM      3  C   UNL     1      41.380 -15.859  -1.022  0.00  0.00    +0.000 C 
ATOM      4  C   UNL     1      42.139 -17.415  -2.970  0.00  0.00    +0.000 C 
ATOM      5  C   UNL     1      41.925 -14.630  -1.679  0.00  0.00    +0.000 C 
ATOM      6  C   UNL     1      39.388 -16.142  -2.708  0.00  0.00    +0.000 C 
ATOM      7  C   UNL     1      39.265 -17.221  -0.439  0.00  0.00    +0.000 C 
ATOM      8  C   UNL     1      43.049 -16.690  -3.649  0.00  0.00    +0.000 C 
ATOM      9  C   UNL     1      41.690 -18.618  -3.776  0.00  0.00    +0.000 C 
ATOM     10  C   UNL     1      43.427 -14.777  -1.916  0.00  0.00    +0.000 C 
ATOM     11  C   UNL     1      43.778 -15.420  -3.273  0.00  0.00    +0.000 C 
ATOM     12  C   UNL     1      43.297 -17.286  -5.011  0.00  0.00    +0.000 C 
ATOM     13  C   UNL     1      42.120 -18.236  -5.193  0.00  0.00    +0.000 C 
ATOM     14  C   UNL     1      42.351 -19.910  -3.302  0.00  0.00    +0.000 C 
ATOM     15  C   UNL     1      45.298 -15.628  -3.333  0.00  0.00    +0.000 C 
ENDROOT
TORSDOF 0
ENDMDL
MODEL 4
REMARK VINA RESULT:      -5.1     41.022     42.869
REMARK  Name = 
REMARK  4 active torsions:
REMARK  status: ('A' for Active; 'I' for Inactive)
REMARK    1  A    between atoms: C_1  and  C_6
REMARK    2  A    between atoms: C_1  and  C_7
REMARK    3  A    between atoms: C_9  and  C_14
REMARK    4  A    between atoms: C_11  and  C_15
REMARK                            x       y       z     vdW  Elec       q    Type
REMARK                         _______ _______ _______ _____ _____    ______ ____
ROOT
ATOM      1  C   UNL     1      42.997 -16.091  -4.698  0.00  0.00    +0.000 C 
ATOM      2  C   UNL     1      41.926 -17.163  -4.517  0.00  0.00    +0.000 C 
ATOM      3  C   UNL     1      42.307 -16.279  -3.357  0.00  0.00    +0.000 C 
ATOM      4  C   UNL     1      42.286 -18.578  -4.584  0.00  0.00    +0.000 C 
ATOM      5  C   UNL     1      42.962 -16.842  -2.135  0.00  0.00    +0.000 C 
ATOM      6  C   UNL     1      44.453 -16.462  -4.857  0.00  0.00    +0.000 C 
ATOM      7  C   UNL     1      42.614 -14.870  -5.499  0.00  0.00    +0.000 C 
ATOM      8  C   UNL     1      42.483 -19.486  -3.608  0.00  0.00    +0.000 C 
ATOM      9  C   UNL     1      42.485 -19.199  -5.953  0.00  0.00    +0.000 C 
ATOM     10  C   UNL     1      42.099 -17.952  -1.534  0.00  0.00    +0.000 C 
ATOM     11  C   UNL     1      42.406 -19.350  -2.105  0.00  0.00    +0.000 C 
ATOM     12  C   UNL     1      42.882 -20.818  -4.191  0.00  0.00    +0.000 C 
ATOM     13  C   UNL     1      43.272 -20.467  -5.622  0.00  0.00    +0.000 C 
ATOM     14  C   UNL     1      41.159 -19.507  -6.645  0.00  0.00    +0.000 C 
ATOM     15  C   UNL     1      41.394 -20.346  -1.520  0.00  0.00    +0.000 C 
ENDROOT
TORSDOF 0
ENDMDL
MODEL 5
REMARK VINA RESULT:      -5.0     40.578     42.287
REMARK  Name = 
REMARK  4 active torsions:
REMARK  status: ('A' for Active; 'I' for Inactive)
REMARK    1  A    between atoms: C_1  and  C_6
REMARK    2  A    between atoms: C_1  and  C_7
REMARK    3  A    between atoms: C_9  and  C_14
REMARK    4  A    between atoms: C_11  and  C_15
REMARK                            x       y       z     vdW  Elec       q    Type
REMARK                         _______ _______ _______ _____ _____    ______ ____
ROOT
ATOM      1  C   UNL     1      41.518 -18.927  -1.925  0.00  0.00    +0.000 C 
ATOM      2  C   UNL     1      42.734 -18.831  -2.842  0.00  0.00    +0.000 C 
ATOM      3  C   UNL     1      42.767 -18.184  -1.480  0.00  0.00    +0.000 C 
ATOM      4  C   UNL     1      42.661 -18.061  -4.081  0.00  0.00    +0.000 C 
ATOM      5  C   UNL     1      42.865 -16.699  -1.329  0.00  0.00    +0.000 C 
ATOM      6  C   UNL     1      40.251 -18.161  -2.228  0.00  0.00    +0.000 C 
ATOM      7  C   UNL     1      41.251 -20.265  -1.279  0.00  0.00    +0.000 C 
ATOM      8  C   UNL     1      43.109 -16.826  -4.381  0.00  0.00    +0.000 C 
ATOM      9  C   UNL     1      41.979 -18.698  -5.276  0.00  0.00    +0.000 C 
ATOM     10  C   UNL     1      44.101 -16.172  -2.059  0.00  0.00    +0.000 C 
ATOM     11  C   UNL     1      43.838 -15.809  -3.534  0.00  0.00    +0.000 C 
ATOM     12  C   UNL     1      42.749 -16.458  -5.798  0.00  0.00    +0.000 C 
ATOM     13  C   UNL     1      41.689 -17.488  -6.165  0.00  0.00    +0.000 C 
ATOM     14  C   UNL     1      42.872 -19.723  -5.972  0.00  0.00    +0.000 C 
ATOM     15  C   UNL     1      45.174 -15.419  -4.183  0.00  0.00    +0.000 C 
ENDROOT
TORSDOF 0
ENDMDL
MODEL 6
REMARK VINA RESULT:      -5.0     20.208     23.345
REMARK  Name = 
REMARK  4 active torsions:
REMARK  status: ('A' for Active; 'I' for Inactive)
REMARK    1  A    between atoms: C_1  and  C_6
REMARK    2  A    between atoms: C_1  and  C_7
REMARK    3  A    between atoms: C_9  and  C_14
REMARK    4  A    between atoms: C_11  and  C_15
REMARK                            x       y       z     vdW  Elec       q    Type
REMARK                         _______ _______ _______ _____ _____    ______ ____
ROOT
ATOM      1  C   UNL     1      32.041   0.820   3.597  0.00  0.00    +0.000 C 
ATOM      2  C   UNL     1      32.118   1.450   2.210  0.00  0.00    +0.000 C 
ATOM      3  C   UNL     1      32.047  -0.049   2.351  0.00  0.00    +0.000 C 
ATOM      4  C   UNL     1      33.330   2.148   1.786  0.00  0.00    +0.000 C 
ATOM      5  C   UNL     1      33.186  -0.922   1.928  0.00  0.00    +0.000 C 
ATOM      6  C   UNL     1      33.236   0.823   4.523  0.00  0.00    +0.000 C 
ATOM      7  C   UNL     1      30.730   0.947   4.336  0.00  0.00    +0.000 C 
ATOM      8  C   UNL     1      34.341   1.756   0.988  0.00  0.00    +0.000 C 
ATOM      9  C   UNL     1      33.552   3.560   2.292  0.00  0.00    +0.000 C 
ATOM     10  C   UNL     1      33.534  -0.668   0.461  0.00  0.00    +0.000 C 
ATOM     11  C   UNL     1      34.573   0.452   0.258  0.00  0.00    +0.000 C 
ATOM     12  C   UNL     1      35.391   2.832   0.889  0.00  0.00    +0.000 C 
ATOM     13  C   UNL     1      35.048   3.759   2.049  0.00  0.00    +0.000 C 
ATOM     14  C   UNL     1      32.705   4.584   1.540  0.00  0.00    +0.000 C 
ATOM     15  C   UNL     1      34.737   0.695  -1.249  0.00  0.00    +0.000 C 
ENDROOT
TORSDOF 0
ENDMDL
MODEL 7
REMARK VINA RESULT:      -4.8     40.503     42.380
REMARK  Name = 
REMARK  4 active torsions:
REMARK  status: ('A' for Active; 'I' for Inactive)
REMARK    1  A    between atoms: C_1  and  C_6
REMARK    2  A    between atoms: C_1  and  C_7
REMARK    3  A    between atoms: C_9  and  C_14
REMARK    4  A    between atoms: C_11  and  C_15
REMARK                            x       y       z     vdW  Elec       q    Type
REMARK                         _______ _______ _______ _____ _____    ______ ____
ROOT
ATOM      1  C   UNL     1      44.783 -14.104  -3.904  0.00  0.00    +0.000 C 
ATOM      2  C   UNL     1      44.853 -15.612  -3.681  0.00  0.00    +0.000 C 
ATOM      3  C   UNL     1      45.537 -14.996  -4.876  0.00  0.00    +0.000 C 
ATOM      4  C   UNL     1      43.646 -16.428  -3.796  0.00  0.00    +0.000 C 
ATOM      5  C   UNL     1      45.091 -15.305  -6.270  0.00  0.00    +0.000 C 
ATOM      6  C   UNL     1      43.496 -13.437  -4.333  0.00  0.00    +0.000 C 
ATOM      7  C   UNL     1      45.611 -13.237  -2.987  0.00  0.00    +0.000 C 
ATOM      8  C   UNL     1      43.206 -17.218  -4.794  0.00  0.00    +0.000 C 
ATOM      9  C   UNL     1      42.678 -16.436  -2.628  0.00  0.00    +0.000 C 
ATOM     10  C   UNL     1      45.123 -16.813  -6.516  0.00  0.00    +0.000 C 
ATOM     11  C   UNL     1      43.808 -17.528  -6.145  0.00  0.00    +0.000 C 
ATOM     12  C   UNL     1      41.870 -17.823  -4.446  0.00  0.00    +0.000 C 
ATOM     13  C   UNL     1      41.400 -16.973  -3.272  0.00  0.00    +0.000 C 
ATOM     14  C   UNL     1      43.163 -17.322  -1.483  0.00  0.00    +0.000 C 
ATOM     15  C   UNL     1      44.013 -19.040  -6.315  0.00  0.00    +0.000 C 
ENDROOT
TORSDOF 0
ENDMDL
MODEL 8
REMARK VINA RESULT:      -4.7     45.000     47.694
REMARK  Name = 
REMARK  4 active torsions:
REMARK  status: ('A' for Active; 'I' for Inactive)
REMARK    1  A    between atoms: C_1  and  C_6
REMARK    2  A    between atoms: C_1  and  C_7
REMARK    3  A    between atoms: C_9  and  C_14
REMARK    4  A    between atoms: C_11  and  C_15
REMARK                            x       y       z     vdW  Elec       q    Type
REMARK                         _______ _______ _______ _____ _____    ______ ____
ROOT
ATOM      1  C   UNL     1      45.921 -28.105   2.343  0.00  0.00    +0.000 C 
ATOM      2  C   UNL     1      45.016 -27.062   1.693  0.00  0.00    +0.000 C 
ATOM      3  C   UNL     1      45.407 -26.920   3.142  0.00  0.00    +0.000 C 
ATOM      4  C   UNL     1      43.665 -27.423   1.271  0.00  0.00    +0.000 C 
ATOM      5  C   UNL     1      44.386 -27.006   4.233  0.00  0.00    +0.000 C 
ATOM      6  C   UNL     1      45.415 -29.497   2.645  0.00  0.00    +0.000 C 
ATOM      7  C   UNL     1      47.379 -28.087   1.951  0.00  0.00    +0.000 C 
ATOM      8  C   UNL     1      42.469 -27.199   1.850  0.00  0.00    +0.000 C 
ATOM      9  C   UNL     1      43.504 -28.179  -0.034  0.00  0.00    +0.000 C 
ATOM     10  C   UNL     1      43.280 -25.976   4.007  0.00  0.00    +0.000 C 
ATOM     11  C   UNL     1      42.116 -26.501   3.143  0.00  0.00    +0.000 C 
ATOM     12  C   UNL     1      41.359 -27.811   1.036  0.00  0.00    +0.000 C 
ATOM     13  C   UNL     1      42.097 -28.762   0.101  0.00  0.00    +0.000 C 
ATOM     14  C   UNL     1      43.635 -27.265  -1.250  0.00  0.00    +0.000 C 
ATOM     15  C   UNL     1      41.142 -25.342   2.886  0.00  0.00    +0.000 C 
ENDROOT
TORSDOF 0
ENDMDL
MODEL 9
REMARK VINA RESULT:      -4.6     32.457     34.664
REMARK  Name = 
REMARK  4 active torsions:
REMARK  status: ('A' for Active; 'I' for Inactive)
REMARK    1  A    between atoms: C_1  and  C_6
REMARK    2  A    between atoms: C_1  and  C_7
REMARK    3  A    between atoms: C_9  and  C_14
REMARK    4  A    between atoms: C_11  and  C_15
REMARK                            x       y       z     vdW  Elec       q    Type
REMARK                         _______ _______ _______ _____ _____    ______ ____
ROOT
ATOM      1  C   UNL     1      51.863  -1.901  31.531  0.00  0.00    +0.000 C 
ATOM      2  C   UNL     1      50.444  -1.393  31.770  0.00  0.00    +0.000 C 
ATOM      3  C   UNL     1      50.717  -2.876  31.745  0.00  0.00    +0.000 C 
ATOM      4  C   UNL     1      49.722  -0.705  30.703  0.00  0.00    +0.000 C 
ATOM      5  C   UNL     1      50.136  -3.754  30.681  0.00  0.00    +0.000 C 
ATOM      6  C   UNL     1      52.515  -1.787  30.172  0.00  0.00    +0.000 C 
ATOM      7  C   UNL     1      52.848  -1.743  32.665  0.00  0.00    +0.000 C 
ATOM      8  C   UNL     1      48.763  -1.139  29.862  0.00  0.00    +0.000 C 
ATOM      9  C   UNL     1      50.055   0.752  30.442  0.00  0.00    +0.000 C 
ATOM     10  C   UNL     1      48.614  -3.620  30.656  0.00  0.00    +0.000 C 
ATOM     11  C   UNL     1      48.109  -2.495  29.730  0.00  0.00    +0.000 C 
ATOM     12  C   UNL     1      48.361  -0.049  28.902  0.00  0.00    +0.000 C 
ATOM     13  C   UNL     1      49.489   0.966  29.038  0.00  0.00    +0.000 C 
ATOM     14  C   UNL     1      49.417   1.683  31.469  0.00  0.00    +0.000 C 
ATOM     15  C   UNL     1      46.586  -2.382  29.891  0.00  0.00    +0.000 C 
ENDROOT
TORSDOF 0
ENDMDL
