MODEL 1
REMARK VINA RESULT:      -8.1      0.000      0.000
REMARK  Name = JAK3_Inhibitor.pdbqt.pdb
REMARK  1 active torsions:
REMARK  status: ('A' for Active; 'I' for Inactive)
REMARK    1  A    between atoms: C_7  and  C_20
REMARK                            x       y       z     vdW  Elec       q    Type
REMARK                         _______ _______ _______ _____ _____    ______ ____
ROOT
ATOM      1  O   UNL     1      20.197   6.288  18.312  0.00  0.00    +0.000 OA
ATOM      2  N   UNL     1      21.563   7.838  17.208  0.00  0.00    +0.000 N 
ATOM      3  C   UNL     1      20.814   9.797  18.138  0.00  0.00    +0.000 A 
ATOM      4  C   UNL     1      21.709   9.226  17.231  0.00  0.00    +0.000 A 
ATOM      5  C   UNL     1      20.069   8.688  18.708  0.00  0.00    +0.000 C 
ATOM      6  C   UNL     1      20.773  11.163  18.332  0.00  0.00    +0.000 A 
ATOM      7  C   UNL     1      21.653  11.981  17.602  0.00  0.00    +0.000 A 
ATOM      8  C   UNL     1      20.572   7.423  18.090  0.00  0.00    +0.000 C 
ATOM      9  C   UNL     1      22.590   9.984  16.492  0.00  0.00    +0.000 A 
ATOM     10  C   UNL     1      19.127   8.736  19.596  0.00  0.00    +0.000 C 
ATOM     11  C   UNL     1      22.547  11.366  16.693  0.00  0.00    +0.000 A 
ATOM     12  H   UNL     1      22.095   7.197  16.636  0.00  0.00    +0.000 HD
ATOM     13  N   UNL     1      17.470   7.602  21.018  0.00  0.00    +0.000 N 
ATOM     14  C   UNL     1      18.093   8.736  20.566  0.00  0.00    +0.000 C 
ATOM     15  C   UNL     1      17.536   9.813  21.216  0.00  0.00    +0.000 C 
ATOM     16  C   UNL     1      16.522   7.943  21.946  0.00  0.00    +0.000 C 
ATOM     17  C   UNL     1      16.542   9.311  22.088  0.00  0.00    +0.000 C 
ATOM     18  H   UNL     1      17.679   6.661  20.711  0.00  0.00    +0.000 HD
ENDROOT
BRANCH   7  20
ATOM     19  N   UNL     1      21.096  15.647  16.905  0.00  0.00    +0.000 NA
ATOM     20  C   UNL     1      21.645  13.438  17.776  0.00  0.00    +0.000 A 
ATOM     21  C   UNL     1      22.151  14.052  18.924  0.00  0.00    +0.000 A 
ATOM     22  C   UNL     1      21.135  14.299  16.810  0.00  0.00    +0.000 A 
ATOM     23  C   UNL     1      22.135  15.434  19.072  0.00  0.00    +0.000 A 
ATOM     24  C   UNL     1      21.599  16.181  18.038  0.00  0.00    +0.000 A 
ENDBRANCH   7  20
TORSDOF 1
ENDMDL
MODEL 2
REMARK VINA RESULT:      -7.8      3.132      6.826
REMARK  Name = JAK3_Inhibitor.pdbqt.pdb
REMARK  1 active torsions:
REMARK  status: ('A' for Active; 'I' for Inactive)
REMARK    1  A    between atoms: C_7  and  C_20
REMARK                            x       y       z     vdW  Elec       q    Type
REMARK                         _______ _______ _______ _____ _____    ______ ____
ROOT
ATOM      1  O   UNL     1      20.415  12.784  18.641  0.00  0.00    +0.000 OA
ATOM      2  N   UNL     1      20.967  10.632  17.899  0.00  0.00    +0.000 N 
ATOM      3  C   UNL     1      19.631   9.360  19.264  0.00  0.00    +0.000 A 
ATOM      4  C   UNL     1      20.576   9.335  18.236  0.00  0.00    +0.000 A 
ATOM      5  C   UNL     1      19.428  10.764  19.579  0.00  0.00    +0.000 C 
ATOM      6  C   UNL     1      19.097   8.191  19.768  0.00  0.00    +0.000 A 
ATOM      7  C   UNL     1      19.517   6.963  19.229  0.00  0.00    +0.000 A 
ATOM      8  C   UNL     1      20.306  11.573  18.679  0.00  0.00    +0.000 C 
ATOM      9  C   UNL     1      21.020   8.158  17.676  0.00  0.00    +0.000 A 
ATOM     10  C   UNL     1      18.639  11.272  20.471  0.00  0.00    +0.000 C 
ATOM     11  C   UNL     1      20.476   6.977  18.188  0.00  0.00    +0.000 A 
ATOM     12  H   UNL     1      21.637  10.880  17.186  0.00  0.00    +0.000 HD
ATOM     13  N   UNL     1      17.699  13.231  21.626  0.00  0.00    +0.000 N 
ATOM     14  C   UNL     1      17.791  11.878  21.433  0.00  0.00    +0.000 C 
ATOM     15  C   UNL     1      16.936  11.265  22.319  0.00  0.00    +0.000 C 
ATOM     16  C   UNL     1      16.797  13.488  22.623  0.00  0.00    +0.000 C 
ATOM     17  C   UNL     1      16.307  12.284  23.072  0.00  0.00    +0.000 C 
ATOM     18  H   UNL     1      18.218  13.930  21.110  0.00  0.00    +0.000 HD
ENDROOT
BRANCH   7  20
ATOM     19  N   UNL     1      17.517   4.514  21.288  0.00  0.00    +0.000 NA
ATOM     20  C   UNL     1      18.976   5.696  19.733  0.00  0.00    +0.000 A 
ATOM     21  C   UNL     1      19.351   4.462  19.198  0.00  0.00    +0.000 A 
ATOM     22  C   UNL     1      18.055   5.643  20.775  0.00  0.00    +0.000 A 
ATOM     23  C   UNL     1      18.826   3.271  19.689  0.00  0.00    +0.000 A 
ATOM     24  C   UNL     1      17.918   3.354  20.728  0.00  0.00    +0.000 A 
ENDBRANCH   7  20
TORSDOF 1
ENDMDL
MODEL 3
REMARK VINA RESULT:      -7.6     17.792     21.165
REMARK  Name = JAK3_Inhibitor.pdbqt.pdb
REMARK  1 active torsions:
REMARK  status: ('A' for Active; 'I' for Inactive)
REMARK    1  A    between atoms: C_7  and  C_20
REMARK                            x       y       z     vdW  Elec       q    Type
REMARK                         _______ _______ _______ _____ _____    ______ ____
ROOT
ATOM      1  O   UNL     1      32.046   2.798   3.150  0.00  0.00    +0.000 OA
ATOM      2  N   UNL     1      29.917   3.173   4.052  0.00  0.00    +0.000 N 
ATOM      3  C   UNL     1      29.107   1.027   4.127  0.00  0.00    +0.000 A 
ATOM      4  C   UNL     1      28.829   2.369   4.396  0.00  0.00    +0.000 A 
ATOM      5  C   UNL     1      30.454   1.006   3.582  0.00  0.00    +0.000 C 
ATOM      6  C   UNL     1      28.176   0.042   4.386  0.00  0.00    +0.000 A 
ATOM      7  C   UNL     1      26.933   0.407   4.930  0.00  0.00    +0.000 A 
ATOM      8  C   UNL     1      30.962   2.412   3.542  0.00  0.00    +0.000 C 
ATOM      9  C   UNL     1      27.626   2.776   4.929  0.00  0.00    +0.000 A 
ATOM     10  C   UNL     1      31.135  -0.022   3.186  0.00  0.00    +0.000 C 
ATOM     11  C   UNL     1      26.687   1.776   5.190  0.00  0.00    +0.000 A 
ATOM     12  H   UNL     1      29.964   4.177   4.152  0.00  0.00    +0.000 HD
ATOM     13  N   UNL     1      33.191  -0.989   2.241  0.00  0.00    +0.000 N 
ATOM     14  C   UNL     1      31.921  -1.115   2.741  0.00  0.00    +0.000 C 
ATOM     15  C   UNL     1      31.588  -2.450   2.720  0.00  0.00    +0.000 C 
ATOM     16  C   UNL     1      33.671  -2.226   1.903  0.00  0.00    +0.000 C 
ATOM     17  C   UNL     1      32.695  -3.152   2.190  0.00  0.00    +0.000 C 
ATOM     18  H   UNL     1      33.693  -0.117   2.140  0.00  0.00    +0.000 HD
ENDROOT
BRANCH   7  20
ATOM     19  N   UNL     1      24.534  -1.778   6.856  0.00  0.00    +0.000 NA
ATOM     20  C   UNL     1      25.913  -0.607   5.222  0.00  0.00    +0.000 A 
ATOM     21  C   UNL     1      25.325  -1.381   4.219  0.00  0.00    +0.000 A 
ATOM     22  C   UNL     1      25.467  -0.862   6.515  0.00  0.00    +0.000 A 
ATOM     23  C   UNL     1      24.360  -2.336   4.515  0.00  0.00    +0.000 A 
ATOM     24  C   UNL     1      24.002  -2.494   5.842  0.00  0.00    +0.000 A 
ENDBRANCH   7  20
TORSDOF 1
ENDMDL
MODEL 4
REMARK VINA RESULT:      -6.8      3.483      6.383
REMARK  Name = JAK3_Inhibitor.pdbqt.pdb
REMARK  1 active torsions:
REMARK  status: ('A' for Active; 'I' for Inactive)
REMARK    1  A    between atoms: C_7  and  C_20
REMARK                            x       y       z     vdW  Elec       q    Type
REMARK                         _______ _______ _______ _____ _____    ______ ____
ROOT
ATOM      1  O   UNL     1      21.174  16.274  18.982  0.00  0.00    +0.000 OA
ATOM      2  N   UNL     1      21.760  14.365  17.756  0.00  0.00    +0.000 N 
ATOM      3  C   UNL     1      20.667  12.743  18.955  0.00  0.00    +0.000 A 
ATOM      4  C   UNL     1      21.487  13.000  17.854  0.00  0.00    +0.000 A 
ATOM      5  C   UNL     1      20.420  14.035  19.573  0.00  0.00    +0.000 C 
ATOM      6  C   UNL     1      20.262  11.458  19.256  0.00  0.00    +0.000 A 
ATOM      7  C   UNL     1      20.688  10.400  18.433  0.00  0.00    +0.000 A 
ATOM      8  C   UNL     1      21.140  15.076  18.778  0.00  0.00    +0.000 C 
ATOM      9  C   UNL     1      21.931  11.999  17.019  0.00  0.00    +0.000 A 
ATOM     10  C   UNL     1      19.711  14.289  20.626  0.00  0.00    +0.000 C 
ATOM     11  C   UNL     1      21.518  10.700  17.327  0.00  0.00    +0.000 A 
ATOM     12  H   UNL     1      22.329  14.804  17.047  0.00  0.00    +0.000 HD
ATOM     13  N   UNL     1      18.798  15.895  22.252  0.00  0.00    +0.000 N 
ATOM     14  C   UNL     1      18.945  14.619  21.773  0.00  0.00    +0.000 C 
ATOM     15  C   UNL     1      18.234  13.775  22.594  0.00  0.00    +0.000 C 
ATOM     16  C   UNL     1      18.003  15.874  23.367  0.00  0.00    +0.000 C 
ATOM     17  C   UNL     1      17.638  14.568  23.602  0.00  0.00    +0.000 C 
ATOM     18  H   UNL     1      19.213  16.722  21.843  0.00  0.00    +0.000 HD
ENDROOT
BRANCH   7  20
ATOM     19  N   UNL     1      19.061   7.440  20.114  0.00  0.00    +0.000 NA
ATOM     20  C   UNL     1      20.283   9.019  18.715  0.00  0.00    +0.000 A 
ATOM     21  C   UNL     1      20.686   7.948  17.914  0.00  0.00    +0.000 A 
ATOM     22  C   UNL     1      19.472   8.688  19.796  0.00  0.00    +0.000 A 
ATOM     23  C   UNL     1      20.290   6.645  18.197  0.00  0.00    +0.000 A 
ATOM     24  C   UNL     1      19.482   6.448  19.302  0.00  0.00    +0.000 A 
ENDBRANCH   7  20
TORSDOF 1
ENDMDL
MODEL 5
REMARK VINA RESULT:      -6.1      3.022      5.744
REMARK  Name = JAK3_Inhibitor.pdbqt.pdb
REMARK  1 active torsions:
REMARK  status: ('A' for Active; 'I' for Inactive)
REMARK    1  A    between atoms: C_7  and  C_20
REMARK                            x       y       z     vdW  Elec       q    Type
REMARK                         _______ _______ _______ _____ _____    ______ ____
ROOT
ATOM      1  O   UNL     1      18.654  11.235  20.555  0.00  0.00    +0.000 OA
ATOM      2  N   UNL     1      18.689  13.495  21.169  0.00  0.00    +0.000 N 
ATOM      3  C   UNL     1      20.359  14.277  19.804  0.00  0.00    +0.000 A 
ATOM      4  C   UNL     1      19.427  14.616  20.787  0.00  0.00    +0.000 A 
ATOM      5  C   UNL     1      20.181  12.854  19.567  0.00  0.00    +0.000 C 
ATOM      6  C   UNL     1      21.208  15.226  19.270  0.00  0.00    +0.000 A 
ATOM      7  C   UNL     1      21.121  16.551  19.730  0.00  0.00    +0.000 A 
ATOM      8  C   UNL     1      19.090  12.366  20.464  0.00  0.00    +0.000 C 
ATOM      9  C   UNL     1      19.304  15.900  21.270  0.00  0.00    +0.000 A 
ATOM     10  C   UNL     1      20.829  12.100  18.737  0.00  0.00    +0.000 C 
ATOM     11  C   UNL     1      20.164  16.857  20.727  0.00  0.00    +0.000 A 
ATOM     12  H   UNL     1      17.954  13.480  21.862  0.00  0.00    +0.000 HD
ATOM     13  N   UNL     1      21.236   9.895  17.723  0.00  0.00    +0.000 N 
ATOM     14  C   UNL     1      21.508  11.233  17.844  0.00  0.00    +0.000 C 
ATOM     15  C   UNL     1      22.522  11.540  16.966  0.00  0.00    +0.000 C 
ATOM     16  C   UNL     1      22.064   9.346  16.780  0.00  0.00    +0.000 C 
ATOM     17  C   UNL     1      22.873  10.346  16.293  0.00  0.00    +0.000 C 
ATOM     18  H   UNL     1      20.533   9.394  18.249  0.00  0.00    +0.000 HD
ENDROOT
BRANCH   7  20
ATOM     19  N   UNL     1      23.269  18.498  17.315  0.00  0.00    +0.000 NA
ATOM     20  C   UNL     1      22.002  17.593  19.191  0.00  0.00    +0.000 A 
ATOM     21  C   UNL     1      22.439  18.671  19.964  0.00  0.00    +0.000 A 
ATOM     22  C   UNL     1      22.458  17.574  17.876  0.00  0.00    +0.000 A 
ATOM     23  C   UNL     1      23.274  19.649  19.435  0.00  0.00    +0.000 A 
ATOM     24  C   UNL     1      23.657  19.515  18.112  0.00  0.00    +0.000 A 
ENDBRANCH   7  20
TORSDOF 1
ENDMDL
MODEL 6
REMARK VINA RESULT:      -6.1     16.331     20.254
REMARK  Name = JAK3_Inhibitor.pdbqt.pdb
REMARK  1 active torsions:
REMARK  status: ('A' for Active; 'I' for Inactive)
REMARK    1  A    between atoms: C_7  and  C_20
REMARK                            x       y       z     vdW  Elec       q    Type
REMARK                         _______ _______ _______ _____ _____    ______ ____
ROOT
ATOM      1  O   UNL     1      18.504   4.609  41.538  0.00  0.00    +0.000 OA
ATOM      2  N   UNL     1      17.603   3.240  39.865  0.00  0.00    +0.000 N 
ATOM      3  C   UNL     1      18.099   4.476  37.997  0.00  0.00    +0.000 A 
ATOM      4  C   UNL     1      17.508   3.304  38.474  0.00  0.00    +0.000 A 
ATOM      5  C   UNL     1      18.590   5.177  39.172  0.00  0.00    +0.000 C 
ATOM      6  C   UNL     1      18.125   4.760  36.646  0.00  0.00    +0.000 A 
ATOM      7  C   UNL     1      17.546   3.848  35.748  0.00  0.00    +0.000 A 
ATOM      8  C   UNL     1      18.257   4.355  40.376  0.00  0.00    +0.000 C 
ATOM      9  C   UNL     1      16.927   2.380  37.634  0.00  0.00    +0.000 A 
ATOM     10  C   UNL     1      19.209   6.313  39.218  0.00  0.00    +0.000 C 
ATOM     11  C   UNL     1      16.957   2.671  36.268  0.00  0.00    +0.000 A 
ATOM     12  H   UNL     1      17.253   2.492  40.447  0.00  0.00    +0.000 HD
ATOM     13  N   UNL     1      20.299   8.102  40.508  0.00  0.00    +0.000 N 
ATOM     14  C   UNL     1      19.891   7.552  39.321  0.00  0.00    +0.000 C 
ATOM     15  C   UNL     1      20.262   8.406  38.309  0.00  0.00    +0.000 C 
ATOM     16  C   UNL     1      20.924   9.296  40.265  0.00  0.00    +0.000 C 
ATOM     17  C   UNL     1      20.915   9.510  38.906  0.00  0.00    +0.000 C 
ATOM     18  H   UNL     1      20.159   7.689  41.421  0.00  0.00    +0.000 HD
ENDROOT
BRANCH   7  20
ATOM     19  N   UNL     1      18.726   4.922  32.328  0.00  0.00    +0.000 NA
ATOM     20  C   UNL     1      17.551   4.109  34.303  0.00  0.00    +0.000 A 
ATOM     21  C   UNL     1      16.452   3.822  33.492  0.00  0.00    +0.000 A 
ATOM     22  C   UNL     1      18.652   4.657  33.652  0.00  0.00    +0.000 A 
ATOM     23  C   UNL     1      16.476   4.076  32.125  0.00  0.00    +0.000 A 
ATOM     24  C   UNL     1      17.631   4.623  31.597  0.00  0.00    +0.000 A 
ENDBRANCH   7  20
TORSDOF 1
ENDMDL
MODEL 7
REMARK VINA RESULT:      -6.1      3.340      6.823
REMARK  Name = JAK3_Inhibitor.pdbqt.pdb
REMARK  1 active torsions:
REMARK  status: ('A' for Active; 'I' for Inactive)
REMARK    1  A    between atoms: C_7  and  C_20
REMARK                            x       y       z     vdW  Elec       q    Type
REMARK                         _______ _______ _______ _____ _____    ______ ____
ROOT
ATOM      1  O   UNL     1      21.456  12.743  17.910  0.00  0.00    +0.000 OA
ATOM      2  N   UNL     1      20.423  13.962  19.622  0.00  0.00    +0.000 N 
ATOM      3  C   UNL     1      19.373  12.273  20.768  0.00  0.00    +0.000 A 
ATOM      4  C   UNL     1      19.609  13.649  20.712  0.00  0.00    +0.000 A 
ATOM      5  C   UNL     1      20.089  11.705  19.638  0.00  0.00    +0.000 C 
ATOM      6  C   UNL     1      18.590  11.725  21.764  0.00  0.00    +0.000 A 
ATOM      7  C   UNL     1      18.029  12.575  22.732  0.00  0.00    +0.000 A 
ATOM      8  C   UNL     1      20.764  12.820  18.907  0.00  0.00    +0.000 C 
ATOM      9  C   UNL     1      19.081  14.522  21.638  0.00  0.00    +0.000 A 
ATOM     10  C   UNL     1      20.158  10.461  19.285  0.00  0.00    +0.000 C 
ATOM     11  C   UNL     1      18.290  13.963  22.644  0.00  0.00    +0.000 A 
ATOM     12  H   UNL     1      20.737  14.887  19.367  0.00  0.00    +0.000 HD
ATOM     13  N   UNL     1      20.981   8.714  17.761  0.00  0.00    +0.000 N 
ATOM     14  C   UNL     1      20.265   9.113  18.859  0.00  0.00    +0.000 C 
ATOM     15  C   UNL     1      19.705   7.993  19.429  0.00  0.00    +0.000 C 
ATOM     16  C   UNL     1      20.883   7.355  17.623  0.00  0.00    +0.000 C 
ATOM     17  C   UNL     1      20.096   6.881  18.647  0.00  0.00    +0.000 C 
ATOM     18  H   UNL     1      21.500   9.329  17.148  0.00  0.00    +0.000 HD
ENDROOT
BRANCH   7  20
ATOM     19  N   UNL     1      16.587  11.998  26.172  0.00  0.00    +0.000 NA
ATOM     20  C   UNL     1      17.191  12.036  23.810  0.00  0.00    +0.000 A 
ATOM     21  C   UNL     1      16.207  11.073  23.576  0.00  0.00    +0.000 A 
ATOM     22  C   UNL     1      17.323  12.451  25.132  0.00  0.00    +0.000 A 
ATOM     23  C   UNL     1      15.423  10.575  24.611  0.00  0.00    +0.000 A 
ATOM     24  C   UNL     1      15.652  11.069  25.882  0.00  0.00    +0.000 A 
ENDBRANCH   7  20
TORSDOF 1
ENDMDL
MODEL 8
REMARK VINA RESULT:      -6.1     40.786     43.811
REMARK  Name = JAK3_Inhibitor.pdbqt.pdb
REMARK  1 active torsions:
REMARK  status: ('A' for Active; 'I' for Inactive)
REMARK    1  A    between atoms: C_7  and  C_20
REMARK                            x       y       z     vdW  Elec       q    Type
REMARK                         _______ _______ _______ _____ _____    ______ ____
ROOT
ATOM      1  O   UNL     1      40.134 -18.660  -0.978  0.00  0.00    +0.000 OA
ATOM      2  N   UNL     1      40.455 -20.285  -2.634  0.00  0.00    +0.000 N 
ATOM      3  C   UNL     1      41.875 -19.169  -4.049  0.00  0.00    +0.000 A 
ATOM      4  C   UNL     1      41.184 -20.361  -3.822  0.00  0.00    +0.000 A 
ATOM      5  C   UNL     1      41.549 -18.304  -2.927  0.00  0.00    +0.000 C 
ATOM      6  C   UNL     1      42.667 -19.007  -5.169  0.00  0.00    +0.000 A 
ATOM      7  C   UNL     1      42.772 -20.067  -6.086  0.00  0.00    +0.000 A 
ATOM      8  C   UNL     1      40.625 -19.050  -2.020  0.00  0.00    +0.000 C 
ATOM      9  C   UNL     1      41.255 -21.427  -4.691  0.00  0.00    +0.000 A 
ATOM     10  C   UNL     1      41.961 -17.096  -2.710  0.00  0.00    +0.000 C 
ATOM     11  C   UNL     1      42.058 -21.260  -5.822  0.00  0.00    +0.000 A 
ATOM     12  H   UNL     1      39.875 -21.017  -2.250  0.00  0.00    +0.000 HD
ATOM     13  N   UNL     1      41.992 -15.067  -1.319  0.00  0.00    +0.000 N 
ATOM     14  C   UNL     1      42.383 -15.772  -2.426  0.00  0.00    +0.000 C 
ATOM     15  C   UNL     1      43.225 -14.971  -3.163  0.00  0.00    +0.000 C 
ATOM     16  C   UNL     1      42.572 -13.826  -1.340  0.00  0.00    +0.000 C 
ATOM     17  C   UNL     1      43.344 -13.740  -2.476  0.00  0.00    +0.000 C 
ATOM     18  H   UNL     1      41.370 -15.410  -0.598  0.00  0.00    +0.000 HD
ENDROOT
BRANCH   7  20
ATOM     19  N   UNL     1      43.810 -20.087  -9.714  0.00  0.00    +0.000 NA
ATOM     20  C   UNL     1      43.603 -19.940  -7.289  0.00  0.00    +0.000 A 
ATOM     21  C   UNL     1      44.947 -19.568  -7.229  0.00  0.00    +0.000 A 
ATOM     22  C   UNL     1      43.103 -20.184  -8.565  0.00  0.00    +0.000 A 
ATOM     23  C   UNL     1      45.718 -19.453  -8.381  0.00  0.00    +0.000 A 
ATOM     24  C   UNL     1      45.103 -19.722  -9.590  0.00  0.00    +0.000 A 
ENDBRANCH   7  20
TORSDOF 1
ENDMDL
MODEL 9
REMARK VINA RESULT:      -6.1     30.027     32.342
REMARK  Name = JAK3_Inhibitor.pdbqt.pdb
REMARK  1 active torsions:
REMARK  status: ('A' for Active; 'I' for Inactive)
REMARK    1  A    between atoms: C_7  and  C_20
REMARK                            x       y       z     vdW  Elec       q    Type
REMARK                         _______ _______ _______ _____ _____    ______ ____
ROOT
ATOM      1  O   UNL     1      49.141  -7.645   8.976  0.00  0.00    +0.000 OA
ATOM      2  N   UNL     1      48.926  -6.752   6.821  0.00  0.00    +0.000 N 
ATOM      3  C   UNL     1      47.265  -5.208   7.168  0.00  0.00    +0.000 A 
ATOM      4  C   UNL     1      48.129  -5.772   6.228  0.00  0.00    +0.000 A 
ATOM      5  C   UNL     1      47.549  -5.886   8.422  0.00  0.00    +0.000 C 
ATOM      6  C   UNL     1      46.376  -4.213   6.812  0.00  0.00    +0.000 A 
ATOM      7  C   UNL     1      46.352  -3.769   5.479  0.00  0.00    +0.000 A 
ATOM      8  C   UNL     1      48.633  -6.886   8.173  0.00  0.00    +0.000 C 
ATOM      9  C   UNL     1      48.143  -5.371   4.910  0.00  0.00    +0.000 A 
ATOM     10  C   UNL     1      46.990  -5.694   9.574  0.00  0.00    +0.000 C 
ATOM     11  C   UNL     1      47.243  -4.364   4.554  0.00  0.00    +0.000 A 
ATOM     12  H   UNL     1      49.630  -7.304   6.353  0.00  0.00    +0.000 HD
ATOM     13  N   UNL     1      46.778  -6.239  11.964  0.00  0.00    +0.000 N 
ATOM     14  C   UNL     1      46.410  -5.521  10.856  0.00  0.00    +0.000 C 
ATOM     15  C   UNL     1      45.416  -4.647  11.229  0.00  0.00    +0.000 C 
ATOM     16  C   UNL     1      46.030  -5.834  13.038  0.00  0.00    +0.000 C 
ATOM     17  C   UNL     1      45.176  -4.845  12.609  0.00  0.00    +0.000 C 
ATOM     18  H   UNL     1      47.491  -6.956  11.983  0.00  0.00    +0.000 HD
ENDROOT
BRANCH   7  20
ATOM     19  N   UNL     1      44.380  -1.446   3.253  0.00  0.00    +0.000 NA
ATOM     20  C   UNL     1      45.425  -2.713   5.054  0.00  0.00    +0.000 A 
ATOM     21  C   UNL     1      44.694  -1.954   5.970  0.00  0.00    +0.000 A 
ATOM     22  C   UNL     1      45.216  -2.403   3.714  0.00  0.00    +0.000 A 
ATOM     23  C   UNL     1      43.820  -0.958   5.549  0.00  0.00    +0.000 A 
ATOM     24  C   UNL     1      43.701  -0.746   4.187  0.00  0.00    +0.000 A 
ENDBRANCH   7  20
TORSDOF 1
ENDMDL
