REMARK  Name = Leptomycin.pdbqt.pdb
REMARK  12 active torsions:
REMARK  status: ('A' for Active; 'I' for Inactive)
REMARK    1  A    between atoms: C_2  and  C_4
REMARK    2  A    between atoms: C_5  and  C_6
REMARK    3  A    between atoms: C_6  and  C_7
REMARK    4  A    between atoms: C_10  and  C_11
REMARK    5  A    between atoms: C_10  and  C_21
REMARK    6  A    between atoms: C_12  and  C_13
REMARK    7  A    between atoms: C_23  and  C_25
REMARK    8  A    between atoms: C_25  and  C_27
REMARK    9  A    between atoms: C_27  and  C_29
REMARK   10  A    between atoms: C_29  and  O_30
REMARK   11  A    between atoms: C_29  and  C_32
REMARK   12  A    between atoms: C_38  and  O_40
REMARK                            x       y       z     vdW  Elec       q    Type
REMARK                         _______ _______ _______ _____ _____    ______ ____
ROOT
ATOM      1  C   UNL     1       0.628   1.175  -2.846  0.00  0.00    +0.000 C 
ATOM      2  C   UNL     1      -0.376   1.990  -2.870  0.00  0.00    +0.000 C 
ATOM      3  C   UNL     1      -1.206   2.075  -4.118  0.00  0.00    +0.000 C 
ATOM      4  C   UNL     1       1.709   0.263  -2.747  0.00  0.00    +0.000 C 
ATOM      5  C   UNL     1       3.011   0.733  -3.376  0.00  0.00    +0.000 C 
ENDROOT
BRANCH   2   6
ATOM      6  C   UNL     1      -0.957   2.393  -1.642  0.00  0.00    +0.000 C 
ATOM      7  C   UNL     1      -1.478   2.676  -0.597  0.00  0.00    +0.000 C 
BRANCH   7   8
ATOM      8  C   UNL     1      -2.196   2.923   0.733  0.00  0.00    +0.000 C 
BRANCH   8   9
ATOM      9  C   UNL     1      -2.931   2.964   1.943  0.00  0.00    +0.000 C 
ATOM     10  C   UNL     1      -2.808   4.155   2.842  0.00  0.00    +0.000 C 
ATOM     11  C   UNL     1      -3.696   1.853   2.375  0.00  0.00    +0.000 C 
ATOM     12  C   UNL     1      -4.324   0.742   2.613  0.00  0.00    +0.000 C 
BRANCH  12  13
ATOM     13  C   UNL     1      -4.086  -0.309   1.687  0.00  0.00    +0.000 C 
ATOM     14  C   UNL     1      -3.797  -1.112   0.842  0.00  0.00    +0.000 C 
BRANCH  14  15
ATOM     15  C   UNL     1      -3.364  -1.968  -0.203  0.00  0.00    +0.000 A 
ATOM     16  O   UNL     1      -2.291  -1.464  -1.054  0.00  0.00    +0.000 OA
ATOM     17  C   UNL     1      -1.753  -2.219  -2.093  0.00  0.00    +0.000 A 
ATOM     18  O   UNL     1      -0.832  -1.859  -2.810  0.00  0.00    +0.000 OA
ATOM     19  C   UNL     1      -2.397  -3.494  -2.211  0.00  0.00    +0.000 A 
ATOM     20  C   UNL     1      -3.279  -3.948  -1.547  0.00  0.00    +0.000 A 
ATOM     21  C   UNL     1      -3.910  -3.306  -0.458  0.00  0.00    +0.000 A 
ATOM     22  C   UNL     1      -4.976  -3.995   0.333  0.00  0.00    +0.000 C 
ENDBRANCH  14  15
ENDBRANCH  12  13
BRANCH  12  23
ATOM     23  C   UNL     1      -5.159   0.649   3.754  0.00  0.00    +0.000 C 
ATOM     24  C   UNL     1      -6.064   0.541   4.987  0.00  0.00    +0.000 C 
ENDBRANCH  12  23
ENDBRANCH   8   9
ENDBRANCH   7   8
ENDBRANCH   2   6
BRANCH   4  25
ATOM     25  C   UNL     1       1.705  -0.750  -1.646  0.00  0.00    +0.000 C 
ATOM     26  O   UNL     1       0.928  -0.681  -0.688  0.00  0.00    +0.000 OA
BRANCH  25  27
ATOM     27  C   UNL     1       2.731  -1.834  -1.717  0.00  0.00    +0.000 C 
ATOM     28  C   UNL     1       2.929  -2.600  -3.023  0.00  0.00    +0.000 C 
BRANCH  27  29
ATOM     29  C   UNL     1       3.307  -2.332  -0.472  0.00  0.00    +0.000 C 
BRANCH  29  30
ATOM     30  C   UNL     1       3.610  -1.597   0.743  0.00  0.00    +0.000 C 
ATOM     31  C   UNL     1       4.028  -2.333   1.998  0.00  0.00    +0.000 C 
ATOM     32  C   UNL     1       3.715  -0.188   0.803  0.00  0.00    +0.000 C 
ATOM     33  C   UNL     1       3.819   1.213   0.930  0.00  0.00    +0.000 C 
ATOM     34  C   UNL     1       2.817   2.077   0.228  0.00  0.00    +0.000 C 
ATOM     35  C   UNL     1       4.825   1.738   1.540  0.00  0.00    +0.000 C 
ATOM     36  C   UNL     1       5.952   2.297   2.203  0.00  0.00    +0.000 C 
ATOM     37  O   UNL     1       7.096   2.113   1.831  0.00  0.00    +0.000 OA
BRANCH  36  38
ATOM     38  O   UNL     1       5.644   3.027   3.286  0.00  0.00    +0.000 OA
ATOM     39  H   UNL     1       6.508   3.341   3.624  0.00  0.00    +0.000 HD
ENDBRANCH  36  38
ENDBRANCH  29  30
BRANCH  29  40
ATOM     40  O   UNL     1       3.566  -3.704  -0.431  0.00  0.00    +0.000 OA
ATOM     41  H   UNL     1       3.932  -3.982   0.434  0.00  0.00    +0.000 HD
ENDBRANCH  29  40
ENDBRANCH  27  29
ENDBRANCH  25  27
ENDBRANCH   4  25
TORSDOF 12
