MODEL 1
REMARK VINA RESULT:      -8.3      0.000      0.000
REMARK  Name = Lobelin.pdbqt.pdb
REMARK  3 active torsions:
REMARK  status: ('A' for Active; 'I' for Inactive)
REMARK    1  A    between atoms: C_9  and  O_10
REMARK    2  A    between atoms: C_9  and  C_12
REMARK    3  A    between atoms: C_19  and  C_21
REMARK                            x       y       z     vdW  Elec       q    Type
REMARK                         _______ _______ _______ _____ _____    ______ ____
ROOT
ATOM      1  N   UNL     1      38.098   1.940  13.206  0.00  0.00    +0.000 N 
ATOM      2  C   UNL     1      39.474   2.127  12.758  0.00  0.00    +0.000 C 
ATOM      3  C   UNL     1      37.510   2.862  14.173  0.00  0.00    +0.000 C 
ATOM      4  C   UNL     1      40.131   3.271  13.306  0.00  0.00    +0.000 C 
ATOM      5  C   UNL     1      38.367   3.931  14.578  0.00  0.00    +0.000 C 
ATOM      6  C   UNL     1      39.783   4.383  14.279  0.00  0.00    +0.000 C 
ATOM      7  C   UNL     1      37.355   0.770  12.790  0.00  0.00    +0.000 C 
ATOM      8  C   UNL     1      40.107   1.247  11.840  0.00  0.00    +0.000 C 
ATOM      9  C   UNL     1      40.724   0.378  10.903  0.00  0.00    +0.000 C 
ATOM     10  C   UNL     1      36.187   2.709  14.660  0.00  0.00    +0.000 C 
ATOM     11  C   UNL     1      34.833   2.573  15.128  0.00  0.00    +0.000 C 
ATOM     12  O   UNL     1      34.077   3.531  15.053  0.00  0.00    +0.000 OA
ENDROOT
BRANCH   9  13
ATOM     13  C   UNL     1      40.264   0.191   9.526  0.00  0.00    +0.000 A 
ATOM     14  C   UNL     1      41.178   0.072   8.476  0.00  0.00    +0.000 A 
ATOM     15  C   UNL     1      40.741  -0.106   7.165  0.00  0.00    +0.000 A 
ATOM     16  C   UNL     1      39.379  -0.169   6.889  0.00  0.00    +0.000 A 
ATOM     17  C   UNL     1      38.455  -0.051   7.924  0.00  0.00    +0.000 A 
ATOM     18  C   UNL     1      38.899   0.128   9.233  0.00  0.00    +0.000 A 
ENDBRANCH   9  13
BRANCH  11  19
ATOM     19  C   UNL     1      34.411   1.280  15.694  0.00  0.00    +0.000 A 
ATOM     20  C   UNL     1      34.880   0.845  16.933  0.00  0.00    +0.000 A 
ATOM     21  C   UNL     1      34.458  -0.379  17.445  0.00  0.00    +0.000 A 
ATOM     22  C   UNL     1      33.566  -1.167  16.719  0.00  0.00    +0.000 A 
ATOM     23  C   UNL     1      33.095  -0.730  15.483  0.00  0.00    +0.000 A 
ATOM     24  C   UNL     1      33.515   0.494  14.969  0.00  0.00    +0.000 A 
ENDBRANCH  11  19
BRANCH   9  25
ATOM     25  O   UNL     1      41.832  -0.340  11.291  0.00  0.00    +0.000 OA
ATOM     26  H   UNL     1      41.760  -1.279  11.048  0.00  0.00    +0.000 HD
ENDBRANCH   9  25
TORSDOF 3
ENDMDL
MODEL 2
REMARK VINA RESULT:      -7.3     19.293     22.473
REMARK  Name = Lobelin.pdbqt.pdb
REMARK  3 active torsions:
REMARK  status: ('A' for Active; 'I' for Inactive)
REMARK    1  A    between atoms: C_9  and  O_10
REMARK    2  A    between atoms: C_9  and  C_12
REMARK    3  A    between atoms: C_19  and  C_21
REMARK                            x       y       z     vdW  Elec       q    Type
REMARK                         _______ _______ _______ _____ _____    ______ ____
ROOT
ATOM      1  N   UNL     1      39.315 -13.554  -1.581  0.00  0.00    +0.000 N 
ATOM      2  C   UNL     1      38.144 -12.794  -1.158  0.00  0.00    +0.000 C 
ATOM      3  C   UNL     1      40.099 -14.299  -0.600  0.00  0.00    +0.000 C 
ATOM      4  C   UNL     1      37.840 -12.888   0.235  0.00  0.00    +0.000 C 
ATOM      5  C   UNL     1      39.597 -14.239   0.736  0.00  0.00    +0.000 C 
ATOM      6  C   UNL     1      38.435 -13.576   1.450  0.00  0.00    +0.000 C 
ATOM      7  C   UNL     1      39.776 -13.470  -2.950  0.00  0.00    +0.000 C 
ATOM      8  C   UNL     1      37.359 -12.029  -2.063  0.00  0.00    +0.000 C 
ATOM      9  C   UNL     1      36.566 -11.288  -2.977  0.00  0.00    +0.000 C 
ATOM     10  C   UNL     1      41.260 -15.032  -0.954  0.00  0.00    +0.000 C 
ATOM     11  C   UNL     1      42.419 -15.803  -1.321  0.00  0.00    +0.000 C 
ATOM     12  O   UNL     1      42.485 -16.976  -0.985  0.00  0.00    +0.000 OA
ENDROOT
BRANCH   9  13
ATOM     13  C   UNL     1      35.824 -11.880  -4.091  0.00  0.00    +0.000 A 
ATOM     14  C   UNL     1      35.378 -11.090  -5.154  0.00  0.00    +0.000 A 
ATOM     15  C   UNL     1      34.671 -11.653  -6.216  0.00  0.00    +0.000 A 
ATOM     16  C   UNL     1      34.404 -13.018  -6.225  0.00  0.00    +0.000 A 
ATOM     17  C   UNL     1      34.840 -13.819  -5.174  0.00  0.00    +0.000 A 
ATOM     18  C   UNL     1      35.545 -13.250  -4.115  0.00  0.00    +0.000 A 
ENDBRANCH   9  13
BRANCH  11  19
ATOM     19  C   UNL     1      43.493 -15.140  -2.080  0.00  0.00    +0.000 A 
ATOM     20  C   UNL     1      44.435 -15.880  -2.796  0.00  0.00    +0.000 A 
ATOM     21  C   UNL     1      45.435 -15.224  -3.510  0.00  0.00    +0.000 A 
ATOM     22  C   UNL     1      45.492 -13.833  -3.510  0.00  0.00    +0.000 A 
ATOM     23  C   UNL     1      44.549 -13.094  -2.798  0.00  0.00    +0.000 A 
ATOM     24  C   UNL     1      43.548 -13.747  -2.083  0.00  0.00    +0.000 A 
ENDBRANCH  11  19
BRANCH   9  25
ATOM     25  O   UNL     1      36.469  -9.924  -2.821  0.00  0.00    +0.000 OA
ATOM     26  H   UNL     1      35.576  -9.599  -3.023  0.00  0.00    +0.000 HD
ENDBRANCH   9  25
TORSDOF 3
ENDMDL
MODEL 3
REMARK VINA RESULT:      -7.3     18.962     22.219
REMARK  Name = Lobelin.pdbqt.pdb
REMARK  3 active torsions:
REMARK  status: ('A' for Active; 'I' for Inactive)
REMARK    1  A    between atoms: C_9  and  O_10
REMARK    2  A    between atoms: C_9  and  C_12
REMARK    3  A    between atoms: C_19  and  C_21
REMARK                            x       y       z     vdW  Elec       q    Type
REMARK                         _______ _______ _______ _____ _____    ______ ____
ROOT
ATOM      1  N   UNL     1      19.716   9.900  18.907  0.00  0.00    +0.000 N 
ATOM      2  C   UNL     1      20.567  10.264  17.780  0.00  0.00    +0.000 C 
ATOM      3  C   UNL     1      19.643   8.511  19.352  0.00  0.00    +0.000 C 
ATOM      4  C   UNL     1      21.313   9.182  17.219  0.00  0.00    +0.000 C 
ATOM      5  C   UNL     1      20.481   7.607  18.631  0.00  0.00    +0.000 C 
ATOM      6  C   UNL     1      21.457   7.692  17.472  0.00  0.00    +0.000 C 
ATOM      7  C   UNL     1      18.847  10.889  19.506  0.00  0.00    +0.000 C 
ATOM      8  C   UNL     1      20.657  11.593  17.286  0.00  0.00    +0.000 C 
ATOM      9  C   UNL     1      20.761  12.928  16.815  0.00  0.00    +0.000 C 
ATOM     10  C   UNL     1      18.812   8.100  20.425  0.00  0.00    +0.000 C 
ATOM     11  C   UNL     1      17.994   7.690  21.536  0.00  0.00    +0.000 C 
ATOM     12  O   UNL     1      18.501   7.051  22.446  0.00  0.00    +0.000 OA
ENDROOT
BRANCH   9  13
ATOM     13  C   UNL     1      21.275  14.044  17.610  0.00  0.00    +0.000 A 
ATOM     14  C   UNL     1      21.260  15.348  17.107  0.00  0.00    +0.000 A 
ATOM     15  C   UNL     1      21.749  16.412  17.863  0.00  0.00    +0.000 A 
ATOM     16  C   UNL     1      22.259  16.181  19.137  0.00  0.00    +0.000 A 
ATOM     17  C   UNL     1      22.282  14.889  19.652  0.00  0.00    +0.000 A 
ATOM     18  C   UNL     1      21.793  13.829  18.890  0.00  0.00    +0.000 A 
ENDBRANCH   9  13
BRANCH  11  19
ATOM     19  C   UNL     1      16.565   8.047  21.527  0.00  0.00    +0.000 A 
ATOM     20  C   UNL     1      16.010   8.838  22.533  0.00  0.00    +0.000 A 
ATOM     21  C   UNL     1      14.657   9.164  22.493  0.00  0.00    +0.000 A 
ATOM     22  C   UNL     1      13.860   8.703  21.448  0.00  0.00    +0.000 A 
ATOM     23  C   UNL     1      14.415   7.916  20.440  0.00  0.00    +0.000 A 
ATOM     24  C   UNL     1      15.768   7.588  20.478  0.00  0.00    +0.000 A 
ENDBRANCH  11  19
BRANCH   9  25
ATOM     25  O   UNL     1      20.364  13.212  15.528  0.00  0.00    +0.000 OA
ATOM     26  H   UNL     1      20.711  12.566  14.890  0.00  0.00    +0.000 HD
ENDBRANCH   9  25
TORSDOF 3
ENDMDL
MODEL 4
REMARK VINA RESULT:      -6.9     19.191     22.954
REMARK  Name = Lobelin.pdbqt.pdb
REMARK  3 active torsions:
REMARK  status: ('A' for Active; 'I' for Inactive)
REMARK    1  A    between atoms: C_9  and  O_10
REMARK    2  A    between atoms: C_9  and  C_12
REMARK    3  A    between atoms: C_19  and  C_21
REMARK                            x       y       z     vdW  Elec       q    Type
REMARK                         _______ _______ _______ _____ _____    ______ ____
ROOT
ATOM      1  N   UNL     1      18.737   7.696  19.420  0.00  0.00    +0.000 N 
ATOM      2  C   UNL     1      19.099   9.075  19.112  0.00  0.00    +0.000 C 
ATOM      3  C   UNL     1      19.508   6.593  18.854  0.00  0.00    +0.000 C 
ATOM      4  C   UNL     1      20.250   9.221  18.278  0.00  0.00    +0.000 C 
ATOM      5  C   UNL     1      20.616   6.990  18.045  0.00  0.00    +0.000 C 
ATOM      6  C   UNL     1      21.232   8.297  17.581  0.00  0.00    +0.000 C 
ATOM      7  C   UNL     1      17.542   7.415  20.184  0.00  0.00    +0.000 C 
ATOM      8  C   UNL     1      18.370  10.188  19.612  0.00  0.00    +0.000 C 
ATOM      9  C   UNL     1      17.652  11.294  20.137  0.00  0.00    +0.000 C 
ATOM     10  C   UNL     1      19.183   5.235  19.100  0.00  0.00    +0.000 C 
ATOM     11  C   UNL     1      18.872   3.857  19.378  0.00  0.00    +0.000 C 
ATOM     12  O   UNL     1      19.753   3.120  19.796  0.00  0.00    +0.000 OA
ENDROOT
BRANCH   9  13
ATOM     13  C   UNL     1      17.543  11.604  21.563  0.00  0.00    +0.000 A 
ATOM     14  C   UNL     1      16.496  11.085  22.329  0.00  0.00    +0.000 A 
ATOM     15  C   UNL     1      16.391  11.378  23.688  0.00  0.00    +0.000 A 
ATOM     16  C   UNL     1      17.337  12.197  24.296  0.00  0.00    +0.000 A 
ATOM     17  C   UNL     1      18.384  12.723  23.547  0.00  0.00    +0.000 A 
ATOM     18  C   UNL     1      18.484  12.427  22.189  0.00  0.00    +0.000 A 
ENDBRANCH   9  13
BRANCH  11  19
ATOM     19  C   UNL     1      17.499   3.382  19.135  0.00  0.00    +0.000 A 
ATOM     20  C   UNL     1      17.028   2.204  19.715  0.00  0.00    +0.000 A 
ATOM     21  C   UNL     1      15.722   1.785  19.471  0.00  0.00    +0.000 A 
ATOM     22  C   UNL     1      14.889   2.543  18.652  0.00  0.00    +0.000 A 
ATOM     23  C   UNL     1      15.359   3.722  18.076  0.00  0.00    +0.000 A 
ATOM     24  C   UNL     1      16.664   4.143  18.318  0.00  0.00    +0.000 A 
ENDBRANCH  11  19
BRANCH   9  25
ATOM     25  O   UNL     1      17.016  12.148  19.265  0.00  0.00    +0.000 OA
ATOM     26  H   UNL     1      17.043  13.069  19.575  0.00  0.00    +0.000 HD
ENDBRANCH   9  25
TORSDOF 3
ENDMDL
MODEL 5
REMARK VINA RESULT:      -6.7     20.775     25.996
REMARK  Name = Lobelin.pdbqt.pdb
REMARK  3 active torsions:
REMARK  status: ('A' for Active; 'I' for Inactive)
REMARK    1  A    between atoms: C_9  and  O_10
REMARK    2  A    between atoms: C_9  and  C_12
REMARK    3  A    between atoms: C_19  and  C_21
REMARK                            x       y       z     vdW  Elec       q    Type
REMARK                         _______ _______ _______ _____ _____    ______ ____
ROOT
ATOM      1  N   UNL     1      41.919 -17.379  -3.305  0.00  0.00    +0.000 N 
ATOM      2  C   UNL     1      41.375 -17.288  -1.954  0.00  0.00    +0.000 C 
ATOM      3  C   UNL     1      42.344 -18.670  -3.838  0.00  0.00    +0.000 C 
ATOM      4  C   UNL     1      41.269 -18.536  -1.267  0.00  0.00    +0.000 C 
ATOM      5  C   UNL     1      42.140 -19.777  -2.959  0.00  0.00    +0.000 C 
ATOM      6  C   UNL     1      41.595 -19.989  -1.560  0.00  0.00    +0.000 C 
ATOM      7  C   UNL     1      42.156 -16.176  -4.071  0.00  0.00    +0.000 C 
ATOM      8  C   UNL     1      40.971 -16.056  -1.373  0.00  0.00    +0.000 C 
ATOM      9  C   UNL     1      40.546 -14.826  -0.809  0.00  0.00    +0.000 C 
ATOM     10  C   UNL     1      42.903 -18.809  -5.134  0.00  0.00    +0.000 C 
ATOM     11  C   UNL     1      43.439 -18.954  -6.462  0.00  0.00    +0.000 C 
ATOM     12  O   UNL     1      42.944 -19.777  -7.218  0.00  0.00    +0.000 OA
ENDROOT
BRANCH   9  13
ATOM     13  C   UNL     1      39.455 -14.008  -1.342  0.00  0.00    +0.000 A 
ATOM     14  C   UNL     1      39.624 -13.266  -2.514  0.00  0.00    +0.000 A 
ATOM     15  C   UNL     1      38.585 -12.487  -3.023  0.00  0.00    +0.000 A 
ATOM     16  C   UNL     1      37.362 -12.444  -2.362  0.00  0.00    +0.000 A 
ATOM     17  C   UNL     1      37.178 -13.177  -1.193  0.00  0.00    +0.000 A 
ATOM     18  C   UNL     1      38.220 -13.953  -0.689  0.00  0.00    +0.000 A 
ENDBRANCH   9  13
BRANCH  11  19
ATOM     19  C   UNL     1      44.580 -18.109  -6.856  0.00  0.00    +0.000 A 
ATOM     20  C   UNL     1      45.344 -18.406  -7.984  0.00  0.00    +0.000 A 
ATOM     21  C   UNL     1      46.412 -17.583  -8.335  0.00  0.00    +0.000 A 
ATOM     22  C   UNL     1      46.714 -16.466  -7.560  0.00  0.00    +0.000 A 
ATOM     23  C   UNL     1      45.948 -16.168  -6.435  0.00  0.00    +0.000 A 
ATOM     24  C   UNL     1      44.880 -16.988  -6.082  0.00  0.00    +0.000 A 
ENDBRANCH  11  19
BRANCH   9  25
ATOM     25  O   UNL     1      41.182 -14.354   0.317  0.00  0.00    +0.000 OA
ATOM     26  H   UNL     1      41.226 -15.027   1.018  0.00  0.00    +0.000 HD
ENDBRANCH   9  25
TORSDOF 3
ENDMDL
MODEL 6
REMARK VINA RESULT:      -6.5     20.739     23.150
REMARK  Name = Lobelin.pdbqt.pdb
REMARK  3 active torsions:
REMARK  status: ('A' for Active; 'I' for Inactive)
REMARK    1  A    between atoms: C_9  and  O_10
REMARK    2  A    between atoms: C_9  and  C_12
REMARK    3  A    between atoms: C_19  and  C_21
REMARK                            x       y       z     vdW  Elec       q    Type
REMARK                         _______ _______ _______ _____ _____    ______ ____
ROOT
ATOM      1  N   UNL     1      17.547   9.280  20.683  0.00  0.00    +0.000 N 
ATOM      2  C   UNL     1      16.311   8.510  20.757  0.00  0.00    +0.000 C 
ATOM      3  C   UNL     1      17.723  10.464  21.519  0.00  0.00    +0.000 C 
ATOM      4  C   UNL     1      15.363   8.988  21.713  0.00  0.00    +0.000 C 
ATOM      5  C   UNL     1      16.632  10.745  22.397  0.00  0.00    +0.000 C 
ATOM      6  C   UNL     1      15.277  10.134  22.703  0.00  0.00    +0.000 C 
ATOM      7  C   UNL     1      18.549   8.948  19.694  0.00  0.00    +0.000 C 
ATOM      8  C   UNL     1      16.073   7.365  19.949  0.00  0.00    +0.000 C 
ATOM      9  C   UNL     1      15.853   6.209  19.156  0.00  0.00    +0.000 C 
ATOM     10  C   UNL     1      18.894  11.263  21.468  0.00  0.00    +0.000 C 
ATOM     11  C   UNL     1      20.096  12.053  21.439  0.00  0.00    +0.000 C 
ATOM     12  O   UNL     1      20.682  12.287  22.486  0.00  0.00    +0.000 OA
ENDROOT
BRANCH   9  13
ATOM     13  C   UNL     1      16.660   4.990  19.236  0.00  0.00    +0.000 A 
ATOM     14  C   UNL     1      16.082   3.772  19.606  0.00  0.00    +0.000 A 
ATOM     15  C   UNL     1      16.849   2.611  19.682  0.00  0.00    +0.000 A 
ATOM     16  C   UNL     1      18.208   2.656  19.387  0.00  0.00    +0.000 A 
ATOM     17  C   UNL     1      18.799   3.861  19.019  0.00  0.00    +0.000 A 
ATOM     18  C   UNL     1      18.027   5.019  18.945  0.00  0.00    +0.000 A 
ENDBRANCH   9  13
BRANCH  11  19
ATOM     19  C   UNL     1      20.571  12.564  20.141  0.00  0.00    +0.000 A 
ATOM     20  C   UNL     1      21.313  13.742  20.055  0.00  0.00    +0.000 A 
ATOM     21  C   UNL     1      21.753  14.196  18.814  0.00  0.00    +0.000 A 
ATOM     22  C   UNL     1      21.455  13.472  17.662  0.00  0.00    +0.000 A 
ATOM     23  C   UNL     1      20.717  12.293  17.749  0.00  0.00    +0.000 A 
ATOM     24  C   UNL     1      20.276  11.837  18.988  0.00  0.00    +0.000 A 
ENDBRANCH  11  19
BRANCH   9  25
ATOM     25  O   UNL     1      14.815   6.209  18.252  0.00  0.00    +0.000 OA
ATOM     26  H   UNL     1      14.987   6.803  17.502  0.00  0.00    +0.000 HD
ENDBRANCH   9  25
TORSDOF 3
ENDMDL
MODEL 7
REMARK VINA RESULT:      -6.5     19.772     22.473
REMARK  Name = Lobelin.pdbqt.pdb
REMARK  3 active torsions:
REMARK  status: ('A' for Active; 'I' for Inactive)
REMARK    1  A    between atoms: C_9  and  O_10
REMARK    2  A    between atoms: C_9  and  C_12
REMARK    3  A    between atoms: C_19  and  C_21
REMARK                            x       y       z     vdW  Elec       q    Type
REMARK                         _______ _______ _______ _____ _____    ______ ____
ROOT
ATOM      1  N   UNL     1      39.402 -14.045  -1.984  0.00  0.00    +0.000 N 
ATOM      2  C   UNL     1      40.151 -15.042  -1.226  0.00  0.00    +0.000 C 
ATOM      3  C   UNL     1      38.523 -13.107  -1.292  0.00  0.00    +0.000 C 
ATOM      4  C   UNL     1      39.973 -14.974   0.190  0.00  0.00    +0.000 C 
ATOM      5  C   UNL     1      38.509 -13.237   0.130  0.00  0.00    +0.000 C 
ATOM      6  C   UNL     1      39.173 -14.127   1.163  0.00  0.00    +0.000 C 
ATOM      7  C   UNL     1      39.432 -14.065  -3.430  0.00  0.00    +0.000 C 
ATOM      8  C   UNL     1      41.001 -15.997  -1.846  0.00  0.00    +0.000 C 
ATOM      9  C   UNL     1      41.867 -16.931  -2.472  0.00  0.00    +0.000 C 
ATOM     10  C   UNL     1      37.754 -12.137  -1.984  0.00  0.00    +0.000 C 
ATOM     11  C   UNL     1      37.000 -11.131  -2.684  0.00  0.00    +0.000 C 
ATOM     12  O   UNL     1      37.093  -9.963  -2.333  0.00  0.00    +0.000 OA
ENDROOT
BRANCH   9  13
ATOM     13  C   UNL     1      43.059 -16.564  -3.236  0.00  0.00    +0.000 A 
ATOM     14  C   UNL     1      44.094 -15.836  -2.642  0.00  0.00    +0.000 A 
ATOM     15  C   UNL     1      45.231 -15.487  -3.369  0.00  0.00    +0.000 A 
ATOM     16  C   UNL     1      45.345 -15.864  -4.704  0.00  0.00    +0.000 A 
ATOM     17  C   UNL     1      44.323 -16.588  -5.310  0.00  0.00    +0.000 A 
ATOM     18  C   UNL     1      43.188 -16.934  -4.578  0.00  0.00    +0.000 A 
ENDBRANCH   9  13
BRANCH  11  19
ATOM     19  C   UNL     1      36.129 -11.551  -3.796  0.00  0.00    +0.000 A 
ATOM     20  C   UNL     1      35.787 -10.668  -4.820  0.00  0.00    +0.000 A 
ATOM     21  C   UNL     1      34.968 -11.097  -5.861  0.00  0.00    +0.000 A 
ATOM     22  C   UNL     1      34.491 -12.405  -5.879  0.00  0.00    +0.000 A 
ATOM     23  C   UNL     1      34.836 -13.288  -4.856  0.00  0.00    +0.000 A 
ATOM     24  C   UNL     1      35.655 -12.862  -3.815  0.00  0.00    +0.000 A 
ENDBRANCH  11  19
BRANCH   9  25
ATOM     25  O   UNL     1      41.589 -18.274  -2.359  0.00  0.00    +0.000 OA
ATOM     26  H   UNL     1      40.786 -18.521  -2.847  0.00  0.00    +0.000 HD
ENDBRANCH   9  25
TORSDOF 3
ENDMDL
MODEL 8
REMARK VINA RESULT:      -6.4     17.098     20.219
REMARK  Name = Lobelin.pdbqt.pdb
REMARK  3 active torsions:
REMARK  status: ('A' for Active; 'I' for Inactive)
REMARK    1  A    between atoms: C_9  and  O_10
REMARK    2  A    between atoms: C_9  and  C_12
REMARK    3  A    between atoms: C_19  and  C_21
REMARK                            x       y       z     vdW  Elec       q    Type
REMARK                         _______ _______ _______ _____ _____    ______ ____
ROOT
ATOM      1  N   UNL     1      22.852  -1.311   0.630  0.00  0.00    +0.000 N 
ATOM      2  C   UNL     1      22.312  -1.664   1.938  0.00  0.00    +0.000 C 
ATOM      3  C   UNL     1      21.953  -1.091  -0.499  0.00  0.00    +0.000 C 
ATOM      4  C   UNL     1      20.885  -1.725   2.000  0.00  0.00    +0.000 C 
ATOM      5  C   UNL     1      20.564  -1.212  -0.190  0.00  0.00    +0.000 C 
ATOM      6  C   UNL     1      19.730  -1.532   1.035  0.00  0.00    +0.000 C 
ATOM      7  C   UNL     1      24.283  -1.301   0.418  0.00  0.00    +0.000 C 
ATOM      8  C   UNL     1      23.138  -1.916   3.066  0.00  0.00    +0.000 C 
ATOM      9  C   UNL     1      23.970  -2.141   4.194  0.00  0.00    +0.000 C 
ATOM     10  C   UNL     1      22.428  -0.772  -1.797  0.00  0.00    +0.000 C 
ATOM     11  C   UNL     1      22.910  -0.415  -3.105  0.00  0.00    +0.000 C 
ATOM     12  O   UNL     1      22.452   0.574  -3.660  0.00  0.00    +0.000 OA
ENDROOT
BRANCH   9  13
ATOM     13  C   UNL     1      24.843  -1.128   4.788  0.00  0.00    +0.000 A 
ATOM     14  C   UNL     1      24.314   0.053   5.316  0.00  0.00    +0.000 A 
ATOM     15  C   UNL     1      25.145   1.018   5.883  0.00  0.00    +0.000 A 
ATOM     16  C   UNL     1      26.520   0.810   5.928  0.00  0.00    +0.000 A 
ATOM     17  C   UNL     1      27.063  -0.359   5.405  0.00  0.00    +0.000 A 
ATOM     18  C   UNL     1      26.227  -1.320   4.839  0.00  0.00    +0.000 A 
ENDBRANCH   9  13
BRANCH  11  19
ATOM     19  C   UNL     1      23.934  -1.267  -3.735  0.00  0.00    +0.000 A 
ATOM     20  C   UNL     1      23.648  -2.018  -4.875  0.00  0.00    +0.000 A 
ATOM     21  C   UNL     1      24.639  -2.808  -5.451  0.00  0.00    +0.000 A 
ATOM     22  C   UNL     1      25.913  -2.848  -4.889  0.00  0.00    +0.000 A 
ATOM     23  C   UNL     1      26.199  -2.094  -3.752  0.00  0.00    +0.000 A 
ATOM     24  C   UNL     1      25.210  -1.303  -3.174  0.00  0.00    +0.000 A 
ENDBRANCH  11  19
BRANCH   9  25
ATOM     25  O   UNL     1      23.966  -3.383   4.787  0.00  0.00    +0.000 OA
ATOM     26  H   UNL     1      24.672  -3.472   5.449  0.00  0.00    +0.000 HD
ENDBRANCH   9  25
TORSDOF 3
ENDMDL
MODEL 9
REMARK VINA RESULT:      -6.4     16.882     19.199
REMARK  Name = Lobelin.pdbqt.pdb
REMARK  3 active torsions:
REMARK  status: ('A' for Active; 'I' for Inactive)
REMARK    1  A    between atoms: C_9  and  O_10
REMARK    2  A    between atoms: C_9  and  C_12
REMARK    3  A    between atoms: C_19  and  C_21
REMARK                            x       y       z     vdW  Elec       q    Type
REMARK                         _______ _______ _______ _____ _____    ______ ____
ROOT
ATOM      1  N   UNL     1      19.268  -3.196  11.755  0.00  0.00    +0.000 N 
ATOM      2  C   UNL     1      19.799  -1.841  11.663  0.00  0.00    +0.000 C 
ATOM      3  C   UNL     1      18.282  -3.529  12.779  0.00  0.00    +0.000 C 
ATOM      4  C   UNL     1      19.248  -0.917  12.603  0.00  0.00    +0.000 C 
ATOM      5  C   UNL     1      17.886  -2.434  13.607  0.00  0.00    +0.000 C 
ATOM      6  C   UNL     1      18.232  -0.962  13.730  0.00  0.00    +0.000 C 
ATOM      7  C   UNL     1      19.807  -4.243  10.915  0.00  0.00    +0.000 C 
ATOM      8  C   UNL     1      20.779  -1.466  10.704  0.00  0.00    +0.000 C 
ATOM      9  C   UNL     1      21.739  -1.093   9.728  0.00  0.00    +0.000 C 
ATOM     10  C   UNL     1      17.753  -4.836  12.928  0.00  0.00    +0.000 C 
ATOM     11  C   UNL     1      17.193  -6.155  13.056  0.00  0.00    +0.000 C 
ATOM     12  O   UNL     1      15.977  -6.288  13.069  0.00  0.00    +0.000 OA
ENDROOT
BRANCH   9  13
ATOM     13  C   UNL     1      21.505  -1.138   8.284  0.00  0.00    +0.000 A 
ATOM     14  C   UNL     1      20.826  -2.211   7.702  0.00  0.00    +0.000 A 
ATOM     15  C   UNL     1      20.602  -2.255   6.327  0.00  0.00    +0.000 A 
ATOM     16  C   UNL     1      21.058  -1.220   5.517  0.00  0.00    +0.000 A 
ATOM     17  C   UNL     1      21.737  -0.144   6.080  0.00  0.00    +0.000 A 
ATOM     18  C   UNL     1      21.958  -0.107   7.456  0.00  0.00    +0.000 A 
ENDBRANCH   9  13
BRANCH  11  19
ATOM     19  C   UNL     1      18.111  -7.301  13.181  0.00  0.00    +0.000 A 
ATOM     20  C   UNL     1      19.367  -7.290  12.574  0.00  0.00    +0.000 A 
ATOM     21  C   UNL     1      20.215  -8.386  12.716  0.00  0.00    +0.000 A 
ATOM     22  C   UNL     1      19.809  -9.489  13.463  0.00  0.00    +0.000 A 
ATOM     23  C   UNL     1      18.555  -9.498  14.071  0.00  0.00    +0.000 A 
ATOM     24  C   UNL     1      17.705  -8.404  13.932  0.00  0.00    +0.000 A 
ENDBRANCH  11  19
BRANCH   9  25
ATOM     25  O   UNL     1      22.975  -0.652  10.144  0.00  0.00    +0.000 OA
ATOM     26  H   UNL     1      23.663  -0.817   9.478  0.00  0.00    +0.000 HD
ENDBRANCH   9  25
TORSDOF 3
ENDMDL
