MODEL 1
REMARK VINA RESULT:      -6.2      0.000      0.000
REMARK  Name = LUCANTHONE.pdbqt.pdb
REMARK  5 active torsions:
REMARK  status: ('A' for Active; 'I' for Inactive)
REMARK    1  A    between atoms: C_3  and  N_17
REMARK    2  A    between atoms: N_17  and  C_19
REMARK    3  A    between atoms: C_20  and  N_21
REMARK    4  A    between atoms: N_21  and  C_22
REMARK    5  A    between atoms: N_21  and  C_24
REMARK                            x       y       z     vdW  Elec       q    Type
REMARK                         _______ _______ _______ _____ _____    ______ ____
ROOT
ATOM      1  S   UNL     1      20.999  11.236  17.794  0.00  0.00    +0.000 S 
ATOM      2  O   UNL     1      17.917   9.874  20.523  0.00  0.00    +0.000 OA
ATOM      3  C   UNL     1      18.946  12.387  21.191  0.00  0.00    +0.000 A 
ATOM      4  C   UNL     1      19.449  11.612  20.109  0.00  0.00    +0.000 A 
ATOM      5  C   UNL     1      20.378  12.162  19.200  0.00  0.00    +0.000 A 
ATOM      6  C   UNL     1      20.800  13.497  19.400  0.00  0.00    +0.000 A 
ATOM      7  C   UNL     1      18.953  10.214  19.953  0.00  0.00    +0.000 A 
ATOM      8  C   UNL     1      19.418  13.693  21.358  0.00  0.00    +0.000 A 
ATOM      9  C   UNL     1      19.678   9.211  19.162  0.00  0.00    +0.000 A 
ATOM     10  C   UNL     1      20.322  14.249  20.469  0.00  0.00    +0.000 A 
ATOM     11  C   UNL     1      20.620   9.567  18.208  0.00  0.00    +0.000 A 
ATOM     12  C   UNL     1      21.790  14.206  18.501  0.00  0.00    +0.000 C 
ATOM     13  C   UNL     1      19.379   7.863  19.390  0.00  0.00    +0.000 A 
ATOM     14  C   UNL     1      21.266   8.560  17.488  0.00  0.00    +0.000 A 
ATOM     15  C   UNL     1      20.034   6.866  18.673  0.00  0.00    +0.000 A 
ATOM     16  C   UNL     1      20.984   7.215  17.720  0.00  0.00    +0.000 A 
ENDROOT
BRANCH   3  17
ATOM     17  N   UNL     1      18.110  11.823  22.191  0.00  0.00    +0.000 N 
ATOM     18  H   UNL     1      17.231  11.465  21.787  0.00  0.00    +0.000 HD
BRANCH  17  19
ATOM     19  C   UNL     1      18.010  12.468  23.489  0.00  0.00    +0.000 C 
ATOM     20  C   UNL     1      17.903  13.151  24.857  0.00  0.00    +0.000 C 
BRANCH  20  21
ATOM     21  N   UNL     1      17.801  13.808  26.149  0.00  0.00    +0.000 N 
BRANCH  21  22
ATOM     22  C   UNL     1      17.335  12.817  27.102  0.00  0.00    +0.000 C 
ATOM     23  C   UNL     1      16.843  11.761  28.096  0.00  0.00    +0.000 C 
ENDBRANCH  21  22
BRANCH  21  24
ATOM     24  C   UNL     1      16.749  14.801  26.041  0.00  0.00    +0.000 C 
ATOM     25  C   UNL     1      15.628  15.838  25.913  0.00  0.00    +0.000 C 
ENDBRANCH  21  24
ENDBRANCH  20  21
ENDBRANCH  17  19
ENDBRANCH   3  17
TORSDOF 5
ENDMDL
MODEL 2
REMARK VINA RESULT:      -5.3     37.080     38.100
REMARK  Name = LUCANTHONE.pdbqt.pdb
REMARK  5 active torsions:
REMARK  status: ('A' for Active; 'I' for Inactive)
REMARK    1  A    between atoms: C_3  and  N_17
REMARK    2  A    between atoms: N_17  and  C_19
REMARK    3  A    between atoms: C_20  and  N_21
REMARK    4  A    between atoms: N_21  and  C_22
REMARK    5  A    between atoms: N_21  and  C_24
REMARK                            x       y       z     vdW  Elec       q    Type
REMARK                         _______ _______ _______ _____ _____    ______ ____
ROOT
ATOM      1  S   UNL     1      50.380  -2.285  38.996  0.00  0.00    +0.000 S 
ATOM      2  O   UNL     1      49.663   1.785  40.307  0.00  0.00    +0.000 OA
ATOM      3  C   UNL     1      49.220  -0.112  42.314  0.00  0.00    +0.000 A 
ATOM      4  C   UNL     1      49.568  -0.469  40.981  0.00  0.00    +0.000 A 
ATOM      5  C   UNL     1      49.888  -1.803  40.653  0.00  0.00    +0.000 A 
ATOM      6  C   UNL     1      49.844  -2.774  41.681  0.00  0.00    +0.000 A 
ATOM      7  C   UNL     1      49.603   0.609  39.950  0.00  0.00    +0.000 A 
ATOM      8  C   UNL     1      49.166  -1.117  43.285  0.00  0.00    +0.000 A 
ATOM      9  C   UNL     1      49.538   0.317  38.511  0.00  0.00    +0.000 A 
ATOM     10  C   UNL     1      49.486  -2.429  42.980  0.00  0.00    +0.000 A 
ATOM     11  C   UNL     1      49.835  -0.939  38.002  0.00  0.00    +0.000 A 
ATOM     12  C   UNL     1      50.164  -4.237  41.464  0.00  0.00    +0.000 C 
ATOM     13  C   UNL     1      49.175   1.360  37.652  0.00  0.00    +0.000 A 
ATOM     14  C   UNL     1      49.757  -1.143  36.622  0.00  0.00    +0.000 A 
ATOM     15  C   UNL     1      49.094   1.145  36.280  0.00  0.00    +0.000 A 
ATOM     16  C   UNL     1      49.384  -0.112  35.762  0.00  0.00    +0.000 A 
ENDROOT
BRANCH   3  17
ATOM     17  N   UNL     1      48.772   1.194  42.647  0.00  0.00    +0.000 N 
ATOM     18  H   UNL     1      49.354   1.916  42.196  0.00  0.00    +0.000 HD
BRANCH  17  19
ATOM     19  C   UNL     1      48.327   1.475  44.001  0.00  0.00    +0.000 C 
ATOM     20  C   UNL     1      47.859   1.772  45.430  0.00  0.00    +0.000 C 
BRANCH  20  21
ATOM     21  N   UNL     1      47.426   2.056  46.788  0.00  0.00    +0.000 N 
BRANCH  21  22
ATOM     22  C   UNL     1      47.960   1.008  47.639  0.00  0.00    +0.000 C 
ATOM     23  C   UNL     1      48.517  -0.107  48.528  0.00  0.00    +0.000 C 
ENDBRANCH  21  22
BRANCH  21  24
ATOM     24  C   UNL     1      45.983   1.911  46.815  0.00  0.00    +0.000 C 
ATOM     25  C   UNL     1      44.459   1.764  46.864  0.00  0.00    +0.000 C 
ENDBRANCH  21  24
ENDBRANCH  20  21
ENDBRANCH  17  19
ENDBRANCH   3  17
TORSDOF 5
ENDMDL
MODEL 3
REMARK VINA RESULT:      -5.3     19.325     20.318
REMARK  Name = LUCANTHONE.pdbqt.pdb
REMARK  5 active torsions:
REMARK  status: ('A' for Active; 'I' for Inactive)
REMARK    1  A    between atoms: C_3  and  N_17
REMARK    2  A    between atoms: N_17  and  C_19
REMARK    3  A    between atoms: C_20  and  N_21
REMARK    4  A    between atoms: N_21  and  C_22
REMARK    5  A    between atoms: N_21  and  C_24
REMARK                            x       y       z     vdW  Elec       q    Type
REMARK                         _______ _______ _______ _____ _____    ______ ____
ROOT
ATOM      1  S   UNL     1      22.920   0.671   3.960  0.00  0.00    +0.000 S 
ATOM      2  O   UNL     1      24.047  -2.682   6.467  0.00  0.00    +0.000 OA
ATOM      3  C   UNL     1      21.612  -1.524   7.208  0.00  0.00    +0.000 A 
ATOM      4  C   UNL     1      22.425  -1.004   6.162  0.00  0.00    +0.000 A 
ATOM      5  C   UNL     1      21.947   0.022   5.320  0.00  0.00    +0.000 A 
ATOM      6  C   UNL     1      20.644   0.525   5.550  0.00  0.00    +0.000 A 
ATOM      7  C   UNL     1      23.784  -1.587   5.971  0.00  0.00    +0.000 A 
ATOM      8  C   UNL     1      20.342  -0.971   7.408  0.00  0.00    +0.000 A 
ATOM      9  C   UNL     1      24.840  -0.883   5.230  0.00  0.00    +0.000 A 
ATOM     10  C   UNL     1      19.856   0.030   6.584  0.00  0.00    +0.000 A 
ATOM     11  C   UNL     1      24.556   0.146   4.344  0.00  0.00    +0.000 A 
ATOM     12  C   UNL     1      20.012   1.623   4.722  0.00  0.00    +0.000 C 
ATOM     13  C   UNL     1      26.162  -1.293   5.436  0.00  0.00    +0.000 A 
ATOM     14  C   UNL     1      25.610   0.767   3.670  0.00  0.00    +0.000 A 
ATOM     15  C   UNL     1      27.206  -0.663   4.765  0.00  0.00    +0.000 A 
ATOM     16  C   UNL     1      26.930   0.372   3.881  0.00  0.00    +0.000 A 
ENDROOT
BRANCH   3  17
ATOM     17  N   UNL     1      22.110  -2.465   8.146  0.00  0.00    +0.000 N 
ATOM     18  H   UNL     1      22.781  -3.113   7.707  0.00  0.00    +0.000 HD
BRANCH  17  19
ATOM     19  C   UNL     1      21.211  -3.036   9.134  0.00  0.00    +0.000 C 
ATOM     20  C   UNL     1      20.263  -3.641  10.175  0.00  0.00    +0.000 C 
BRANCH  20  21
ATOM     21  N   UNL     1      19.358  -4.220  11.155  0.00  0.00    +0.000 N 
BRANCH  21  22
ATOM     22  C   UNL     1      19.983  -5.430  11.657  0.00  0.00    +0.000 C 
ATOM     23  C   UNL     1      20.631  -6.708  12.197  0.00  0.00    +0.000 C 
ENDBRANCH  21  22
BRANCH  21  24
ATOM     24  C   UNL     1      18.167  -4.638  10.440  0.00  0.00    +0.000 C 
ATOM     25  C   UNL     1      16.915  -5.100   9.688  0.00  0.00    +0.000 C 
ENDBRANCH  21  24
ENDBRANCH  20  21
ENDBRANCH  17  19
ENDBRANCH   3  17
TORSDOF 5
ENDMDL
MODEL 4
REMARK VINA RESULT:      -5.1     41.129     46.067
REMARK  Name = LUCANTHONE.pdbqt.pdb
REMARK  5 active torsions:
REMARK  status: ('A' for Active; 'I' for Inactive)
REMARK    1  A    between atoms: C_3  and  N_17
REMARK    2  A    between atoms: N_17  and  C_19
REMARK    3  A    between atoms: C_20  and  N_21
REMARK    4  A    between atoms: N_21  and  C_22
REMARK    5  A    between atoms: N_21  and  C_24
REMARK                            x       y       z     vdW  Elec       q    Type
REMARK                         _______ _______ _______ _____ _____    ______ ____
ROOT
ATOM      1  S   UNL     1      42.777 -14.503  -1.364  0.00  0.00    +0.000 S 
ATOM      2  O   UNL     1      41.838 -18.355  -3.120  0.00  0.00    +0.000 OA
ATOM      3  C   UNL     1      43.676 -16.878  -4.625  0.00  0.00    +0.000 A 
ATOM      4  C   UNL     1      43.060 -16.370  -3.446  0.00  0.00    +0.000 A 
ATOM      5  C   UNL     1      43.492 -15.154  -2.876  0.00  0.00    +0.000 A 
ATOM      6  C   UNL     1      44.543 -14.452  -3.511  0.00  0.00    +0.000 A 
ATOM      7  C   UNL     1      41.964 -17.167  -2.825  0.00  0.00    +0.000 A 
ATOM      8  C   UNL     1      44.693 -16.129  -5.227  0.00  0.00    +0.000 A 
ATOM      9  C   UNL     1      41.000 -16.574  -1.887  0.00  0.00    +0.000 A 
ATOM     10  C   UNL     1      45.133 -14.939  -4.673  0.00  0.00    +0.000 A 
ATOM     11  C   UNL     1      41.260 -15.386  -1.219  0.00  0.00    +0.000 A 
ATOM     12  C   UNL     1      45.100 -13.139  -3.003  0.00  0.00    +0.000 C 
ATOM     13  C   UNL     1      39.798 -17.257  -1.671  0.00  0.00    +0.000 A 
ATOM     14  C   UNL     1      40.301 -14.883  -0.337  0.00  0.00    +0.000 A 
ATOM     15  C   UNL     1      38.845 -16.745  -0.796  0.00  0.00    +0.000 A 
ATOM     16  C   UNL     1      39.096 -15.551  -0.128  0.00  0.00    +0.000 A 
ENDROOT
BRANCH   3  17
ATOM     17  N   UNL     1      43.181 -18.030  -5.290  0.00  0.00    +0.000 N 
ATOM     18  H   UNL     1      42.767 -18.699  -4.624  0.00  0.00    +0.000 HD
BRANCH  17  19
ATOM     19  C   UNL     1      43.936 -18.600  -6.394  0.00  0.00    +0.000 C 
ATOM     20  C   UNL     1      44.732 -19.198  -7.558  0.00  0.00    +0.000 C 
BRANCH  20  21
ATOM     21  N   UNL     1      45.481 -19.760  -8.670  0.00  0.00    +0.000 N 
BRANCH  21  22
ATOM     22  C   UNL     1      46.767 -19.089  -8.707  0.00  0.00    +0.000 C 
ATOM     23  C   UNL     1      48.118 -18.369  -8.752  0.00  0.00    +0.000 C 
ENDBRANCH  21  22
BRANCH  21  24
ATOM     24  C   UNL     1      44.786 -19.383  -9.886  0.00  0.00    +0.000 C 
ATOM     25  C   UNL     1      44.070 -18.986 -11.181  0.00  0.00    +0.000 C 
ENDBRANCH  21  24
ENDBRANCH  20  21
ENDBRANCH  17  19
ENDBRANCH   3  17
TORSDOF 5
ENDMDL
MODEL 5
REMARK VINA RESULT:      -5.0     42.523     44.488
REMARK  Name = LUCANTHONE.pdbqt.pdb
REMARK  5 active torsions:
REMARK  status: ('A' for Active; 'I' for Inactive)
REMARK    1  A    between atoms: C_3  and  N_17
REMARK    2  A    between atoms: N_17  and  C_19
REMARK    3  A    between atoms: C_20  and  N_21
REMARK    4  A    between atoms: N_21  and  C_22
REMARK    5  A    between atoms: N_21  and  C_24
REMARK                            x       y       z     vdW  Elec       q    Type
REMARK                         _______ _______ _______ _____ _____    ______ ____
ROOT
ATOM      1  S   UNL     1      43.747 -16.628  -4.900  0.00  0.00    +0.000 S 
ATOM      2  O   UNL     1      43.421 -12.817  -2.858  0.00  0.00    +0.000 OA
ATOM      3  C   UNL     1      45.568 -12.927  -4.647  0.00  0.00    +0.000 A 
ATOM      4  C   UNL     1      44.725 -14.044  -4.386  0.00  0.00    +0.000 A 
ATOM      5  C   UNL     1      44.824 -15.217  -5.163  0.00  0.00    +0.000 A 
ATOM      6  C   UNL     1      45.787 -15.255  -6.199  0.00  0.00    +0.000 A 
ATOM      7  C   UNL     1      43.727 -13.930  -3.284  0.00  0.00    +0.000 A 
ATOM      8  C   UNL     1      46.522 -13.029  -5.666  0.00  0.00    +0.000 A 
ATOM      9  C   UNL     1      43.111 -15.110  -2.662  0.00  0.00    +0.000 A 
ATOM     10  C   UNL     1      46.623 -14.171  -6.443  0.00  0.00    +0.000 A 
ATOM     11  C   UNL     1      43.098 -16.348  -3.287  0.00  0.00    +0.000 A 
ATOM     12  C   UNL     1      45.995 -16.450  -7.105  0.00  0.00    +0.000 C 
ATOM     13  C   UNL     1      42.516 -14.947  -1.407  0.00  0.00    +0.000 A 
ATOM     14  C   UNL     1      42.490 -17.426  -2.639  0.00  0.00    +0.000 A 
ATOM     15  C   UNL     1      41.918 -16.028  -0.766  0.00  0.00    +0.000 A 
ATOM     16  C   UNL     1      41.907 -17.273  -1.383  0.00  0.00    +0.000 A 
ENDROOT
BRANCH   3  17
ATOM     17  N   UNL     1      45.579 -11.784  -3.804  0.00  0.00    +0.000 N 
ATOM     18  H   UNL     1      44.746 -11.759  -3.197  0.00  0.00    +0.000 HD
BRANCH  17  19
ATOM     19  C   UNL     1      46.034 -10.509  -4.332  0.00  0.00    +0.000 C 
ATOM     20  C   UNL     1      46.516  -9.166  -4.890  0.00  0.00    +0.000 C 
BRANCH  20  21
ATOM     21  N   UNL     1      46.983  -7.895  -5.419  0.00  0.00    +0.000 N 
BRANCH  21  22
ATOM     22  C   UNL     1      47.879  -8.190  -6.522  0.00  0.00    +0.000 C 
ATOM     23  C   UNL     1      48.821  -8.516  -7.685  0.00  0.00    +0.000 C 
ENDBRANCH  21  22
BRANCH  21  24
ATOM     24  C   UNL     1      47.793  -7.275  -4.387  0.00  0.00    +0.000 C 
ATOM     25  C   UNL     1      48.654  -6.606  -3.311  0.00  0.00    +0.000 C 
ENDBRANCH  21  24
ENDBRANCH  20  21
ENDBRANCH  17  19
ENDBRANCH   3  17
TORSDOF 5
ENDMDL
MODEL 6
REMARK VINA RESULT:      -5.0     17.449     21.930
REMARK  Name = LUCANTHONE.pdbqt.pdb
REMARK  5 active torsions:
REMARK  status: ('A' for Active; 'I' for Inactive)
REMARK    1  A    between atoms: C_3  and  N_17
REMARK    2  A    between atoms: N_17  and  C_19
REMARK    3  A    between atoms: C_20  and  N_21
REMARK    4  A    between atoms: N_21  and  C_22
REMARK    5  A    between atoms: N_21  and  C_24
REMARK                            x       y       z     vdW  Elec       q    Type
REMARK                         _______ _______ _______ _____ _____    ______ ____
ROOT
ATOM      1  S   UNL     1      24.328  -0.756   2.270  0.00  0.00    +0.000 S 
ATOM      2  O   UNL     1      20.186  -1.694   3.147  0.00  0.00    +0.000 OA
ATOM      3  C   UNL     1      21.950  -2.519   5.155  0.00  0.00    +0.000 A 
ATOM      4  C   UNL     1      22.391  -1.924   3.939  0.00  0.00    +0.000 A 
ATOM      5  C   UNL     1      23.741  -1.553   3.767  0.00  0.00    +0.000 A 
ATOM      6  C   UNL     1      24.643  -1.796   4.830  0.00  0.00    +0.000 A 
ATOM      7  C   UNL     1      21.384  -1.689   2.865  0.00  0.00    +0.000 A 
ATOM      8  C   UNL     1      22.890  -2.762   6.163  0.00  0.00    +0.000 A 
ATOM      9  C   UNL     1      21.770  -1.479   1.463  0.00  0.00    +0.000 A 
ATOM     10  C   UNL     1      24.217  -2.394   6.012  0.00  0.00    +0.000 A 
ATOM     11  C   UNL     1      23.054  -1.096   1.104  0.00  0.00    +0.000 A 
ATOM     12  C   UNL     1      26.115  -1.446   4.775  0.00  0.00    +0.000 C 
ATOM     13  C   UNL     1      20.790  -1.668   0.483  0.00  0.00    +0.000 A 
ATOM     14  C   UNL     1      23.350  -0.909  -0.249  0.00  0.00    +0.000 A 
ATOM     15  C   UNL     1      21.095  -1.486  -0.863  0.00  0.00    +0.000 A 
ATOM     16  C   UNL     1      22.381  -1.108  -1.231  0.00  0.00    +0.000 A 
ENDROOT
BRANCH   3  17
ATOM     17  N   UNL     1      20.630  -3.017   5.309  0.00  0.00    +0.000 N 
ATOM     18  H   UNL     1      20.042  -2.777   4.496  0.00  0.00    +0.000 HD
BRANCH  17  19
ATOM     19  C   UNL     1      19.989  -2.956   6.611  0.00  0.00    +0.000 C 
ATOM     20  C   UNL     1      19.314  -2.889   7.985  0.00  0.00    +0.000 C 
BRANCH  20  21
ATOM     21  N   UNL     1      18.684  -2.825   9.294  0.00  0.00    +0.000 N 
BRANCH  21  22
ATOM     22  C   UNL     1      18.898  -1.486   9.811  0.00  0.00    +0.000 C 
ATOM     23  C   UNL     1      19.109  -0.072  10.359  0.00  0.00    +0.000 C 
ENDBRANCH  21  22
BRANCH  21  24
ATOM     24  C   UNL     1      19.417  -3.724  10.165  0.00  0.00    +0.000 C 
ATOM     25  C   UNL     1      20.209  -4.665  11.078  0.00  0.00    +0.000 C 
ENDBRANCH  21  24
ENDBRANCH  20  21
ENDBRANCH  17  19
ENDBRANCH   3  17
TORSDOF 5
ENDMDL
MODEL 7
REMARK VINA RESULT:      -5.0     42.282     44.670
REMARK  Name = LUCANTHONE.pdbqt.pdb
REMARK  5 active torsions:
REMARK  status: ('A' for Active; 'I' for Inactive)
REMARK    1  A    between atoms: C_3  and  N_17
REMARK    2  A    between atoms: N_17  and  C_19
REMARK    3  A    between atoms: C_20  and  N_21
REMARK    4  A    between atoms: N_21  and  C_22
REMARK    5  A    between atoms: N_21  and  C_24
REMARK                            x       y       z     vdW  Elec       q    Type
REMARK                         _______ _______ _______ _____ _____    ______ ____
ROOT
ATOM      1  S   UNL     1      43.134 -17.449  -5.175  0.00  0.00    +0.000 S 
ATOM      2  O   UNL     1      43.733 -13.814  -2.889  0.00  0.00    +0.000 OA
ATOM      3  C   UNL     1      45.692 -14.220  -4.843  0.00  0.00    +0.000 A 
ATOM      4  C   UNL     1      44.656 -15.161  -4.585  0.00  0.00    +0.000 A 
ATOM      5  C   UNL     1      44.460 -16.268  -5.436  0.00  0.00    +0.000 A 
ATOM      6  C   UNL     1      45.326 -16.422  -6.545  0.00  0.00    +0.000 A 
ATOM      7  C   UNL     1      43.774 -14.931  -3.403  0.00  0.00    +0.000 A 
ATOM      8  C   UNL     1      46.537 -14.436  -5.937  0.00  0.00    +0.000 A 
ATOM      9  C   UNL     1      42.969 -16.006  -2.808  0.00  0.00    +0.000 A 
ATOM     10  C   UNL     1      46.350 -15.513  -6.787  0.00  0.00    +0.000 A 
ATOM     11  C   UNL     1      42.661 -17.166  -3.503  0.00  0.00    +0.000 A 
ATOM     12  C   UNL     1      45.224 -17.563  -7.534  0.00  0.00    +0.000 C 
ATOM     13  C   UNL     1      42.502 -15.821  -1.502  0.00  0.00    +0.000 A 
ATOM     14  C   UNL     1      41.886 -18.144  -2.876  0.00  0.00    +0.000 A 
ATOM     15  C   UNL     1      41.736 -16.804  -0.882  0.00  0.00    +0.000 A 
ATOM     16  C   UNL     1      41.429 -17.972  -1.571  0.00  0.00    +0.000 A 
ENDROOT
BRANCH   3  17
ATOM     17  N   UNL     1      45.993 -13.170  -3.936  0.00  0.00    +0.000 N 
ATOM     18  H   UNL     1      45.476 -13.280  -3.050  0.00  0.00    +0.000 HD
BRANCH  17  19
ATOM     19  C   UNL     1      46.139 -11.813  -4.435  0.00  0.00    +0.000 C 
ATOM     20  C   UNL     1      46.294 -10.383  -4.963  0.00  0.00    +0.000 C 
BRANCH  20  21
ATOM     21  N   UNL     1      46.454  -9.027  -5.463  0.00  0.00    +0.000 N 
BRANCH  21  22
ATOM     22  C   UNL     1      46.732  -8.176  -4.320  0.00  0.00    +0.000 C 
ATOM     23  C   UNL     1      47.039  -7.275  -3.121  0.00  0.00    +0.000 C 
ENDBRANCH  21  22
BRANCH  21  24
ATOM     24  C   UNL     1      45.165  -8.610  -5.982  0.00  0.00    +0.000 C 
ATOM     25  C   UNL     1      43.814  -8.155  -6.544  0.00  0.00    +0.000 C 
ENDBRANCH  21  24
ENDBRANCH  20  21
ENDBRANCH  17  19
ENDBRANCH   3  17
TORSDOF 5
ENDMDL
MODEL 8
REMARK VINA RESULT:      -5.0     11.065     15.180
REMARK  Name = LUCANTHONE.pdbqt.pdb
REMARK  5 active torsions:
REMARK  status: ('A' for Active; 'I' for Inactive)
REMARK    1  A    between atoms: C_3  and  N_17
REMARK    2  A    between atoms: N_17  and  C_19
REMARK    3  A    between atoms: C_20  and  N_21
REMARK    4  A    between atoms: N_21  and  C_22
REMARK    5  A    between atoms: N_21  and  C_24
REMARK                            x       y       z     vdW  Elec       q    Type
REMARK                         _______ _______ _______ _____ _____    ______ ____
ROOT
ATOM      1  S   UNL     1      18.433  -4.616  12.874  0.00  0.00    +0.000 S 
ATOM      2  O   UNL     1      18.948  -0.348  13.440  0.00  0.00    +0.000 OA
ATOM      3  C   UNL     1      16.497  -1.296  14.396  0.00  0.00    +0.000 A 
ATOM      4  C   UNL     1      17.435  -2.129  13.723  0.00  0.00    +0.000 A 
ATOM      5  C   UNL     1      17.249  -3.526  13.669  0.00  0.00    +0.000 A 
ATOM      6  C   UNL     1      16.103  -4.074  14.292  0.00  0.00    +0.000 A 
ATOM      7  C   UNL     1      18.625  -1.484  13.096  0.00  0.00    +0.000 A 
ATOM      8  C   UNL     1      15.367  -1.888  14.971  0.00  0.00    +0.000 A 
ATOM      9  C   UNL     1      19.417  -2.151  12.054  0.00  0.00    +0.000 A 
ATOM     10  C   UNL     1      15.176  -3.259  14.934  0.00  0.00    +0.000 A 
ATOM     11  C   UNL     1      19.373  -3.524  11.862  0.00  0.00    +0.000 A 
ATOM     12  C   UNL     1      15.785  -5.553  14.308  0.00  0.00    +0.000 C 
ATOM     13  C   UNL     1      20.240  -1.353  11.252  0.00  0.00    +0.000 A 
ATOM     14  C   UNL     1      20.157  -4.091  10.855  0.00  0.00    +0.000 A 
ATOM     15  C   UNL     1      21.012  -1.925  10.246  0.00  0.00    +0.000 A 
ATOM     16  C   UNL     1      20.969  -3.300  10.044  0.00  0.00    +0.000 A 
ENDROOT
BRANCH   3  17
ATOM     17  N   UNL     1      16.591   0.120  14.359  0.00  0.00    +0.000 N 
ATOM     18  H   UNL     1      17.380   0.427  13.771  0.00  0.00    +0.000 HD
BRANCH  17  19
ATOM     19  C   UNL     1      16.349   0.886  15.570  0.00  0.00    +0.000 C 
ATOM     20  C   UNL     1      16.094   1.695  16.846  0.00  0.00    +0.000 C 
BRANCH  20  21
ATOM     21  N   UNL     1      15.859   2.471  18.052  0.00  0.00    +0.000 N 
BRANCH  21  22
ATOM     22  C   UNL     1      17.156   2.866  18.570  0.00  0.00    +0.000 C 
ATOM     23  C   UNL     1      18.517   3.294  19.125  0.00  0.00    +0.000 C 
ENDBRANCH  21  22
BRANCH  21  24
ATOM     24  C   UNL     1      15.282   1.571  19.033  0.00  0.00    +0.000 C 
ATOM     25  C   UNL     1      14.664   0.638  20.079  0.00  0.00    +0.000 C 
ENDBRANCH  21  24
ENDBRANCH  20  21
ENDBRANCH  17  19
ENDBRANCH   3  17
TORSDOF 5
ENDMDL
MODEL 9
REMARK VINA RESULT:      -5.0     27.052     28.825
REMARK  Name = LUCANTHONE.pdbqt.pdb
REMARK  5 active torsions:
REMARK  status: ('A' for Active; 'I' for Inactive)
REMARK    1  A    between atoms: C_3  and  N_17
REMARK    2  A    between atoms: N_17  and  C_19
REMARK    3  A    between atoms: C_20  and  N_21
REMARK    4  A    between atoms: N_21  and  C_22
REMARK    5  A    between atoms: N_21  and  C_24
REMARK                            x       y       z     vdW  Elec       q    Type
REMARK                         _______ _______ _______ _____ _____    ______ ____
ROOT
ATOM      1  S   UNL     1      40.910  23.875  27.838  0.00  0.00    +0.000 S 
ATOM      2  O   UNL     1      43.765  20.818  28.977  0.00  0.00    +0.000 OA
ATOM      3  C   UNL     1      43.267  22.671  31.011  0.00  0.00    +0.000 A 
ATOM      4  C   UNL     1      42.694  22.780  29.713  0.00  0.00    +0.000 A 
ATOM      5  C   UNL     1      41.693  23.738  29.446  0.00  0.00    +0.000 A 
ATOM      6  C   UNL     1      41.283  24.590  30.499  0.00  0.00    +0.000 A 
ATOM      7  C   UNL     1      43.167  21.843  28.653  0.00  0.00    +0.000 A 
ATOM      8  C   UNL     1      42.844  23.557  32.008  0.00  0.00    +0.000 A 
ATOM      9  C   UNL     1      42.970  22.117  27.223  0.00  0.00    +0.000 A 
ATOM     10  C   UNL     1      41.856  24.496  31.763  0.00  0.00    +0.000 A 
ATOM     11  C   UNL     1      42.019  23.019  26.771  0.00  0.00    +0.000 A 
ATOM     12  C   UNL     1      40.221  25.657  30.347  0.00  0.00    +0.000 C 
ATOM     13  C   UNL     1      43.773  21.422  26.312  0.00  0.00    +0.000 A 
ATOM     14  C   UNL     1      41.883  23.225  25.397  0.00  0.00    +0.000 A 
ATOM     15  C   UNL     1      43.635  21.638  24.945  0.00  0.00    +0.000 A 
ATOM     16  C   UNL     1      42.688  22.546  24.484  0.00  0.00    +0.000 A 
ENDROOT
BRANCH   3  17
ATOM     17  N   UNL     1      44.361  21.806  31.276  0.00  0.00    +0.000 N 
ATOM     18  H   UNL     1      44.133  20.829  31.037  0.00  0.00    +0.000 HD
BRANCH  17  19
ATOM     19  C   UNL     1      45.162  22.009  32.472  0.00  0.00    +0.000 C 
ATOM     20  C   UNL     1      46.006  22.222  33.732  0.00  0.00    +0.000 C 
BRANCH  20  21
ATOM     21  N   UNL     1      46.801  22.415  34.934  0.00  0.00    +0.000 N 
BRANCH  21  22
ATOM     22  C   UNL     1      48.124  21.881  34.667  0.00  0.00    +0.000 C 
ATOM     23  C   UNL     1      49.518  21.322  34.371  0.00  0.00    +0.000 C 
ENDBRANCH  21  22
BRANCH  21  24
ATOM     24  C   UNL     1      46.221  21.579  35.969  0.00  0.00    +0.000 C 
ATOM     25  C   UNL     1      45.608  20.681  37.047  0.00  0.00    +0.000 C 
ENDBRANCH  21  24
ENDBRANCH  20  21
ENDBRANCH  17  19
ENDBRANCH   3  17
TORSDOF 5
ENDMDL
