MODEL 1
REMARK VINA RESULT:      -5.1      0.000      0.000
REMARK  Name = MeIQx.pdbqt.pdb
REMARK  0 active torsions:
REMARK  status: ('A' for Active; 'I' for Inactive)
REMARK                            x       y       z     vdW  Elec       q    Type
REMARK                         _______ _______ _______ _____ _____    ______ ____
ROOT
ATOM      1  N   UNL     1      53.085   8.910  34.642  0.00  0.00    +0.000 N 
ATOM      2  N   UNL     1      51.508   7.378  34.907  0.00  0.00    +0.000 NA
ATOM      3  N   UNL     1      49.793   6.466  32.706  0.00  0.00    +0.000 NA
ATOM      4  N   UNL     1      50.231   7.644  30.152  0.00  0.00    +0.000 NA
ATOM      5  C   UNL     1      52.524   8.771  33.400  0.00  0.00    +0.000 A 
ATOM      6  C   UNL     1      51.536   7.805  33.589  0.00  0.00    +0.000 A 
ATOM      7  C   UNL     1      50.744   7.411  32.481  0.00  0.00    +0.000 A 
ATOM      8  C   UNL     1      50.973   8.006  31.216  0.00  0.00    +0.000 A 
ATOM      9  C   UNL     1      52.446   8.058  35.528  0.00  0.00    +0.000 A 
ATOM     10  C   UNL     1      52.775   9.372  32.165  0.00  0.00    +0.000 A 
ATOM     11  C   UNL     1      51.973   8.961  31.095  0.00  0.00    +0.000 A 
ATOM     12  C   UNL     1      54.187   9.773  34.954  0.00  0.00    +0.000 C 
ATOM     13  C   UNL     1      49.060   6.118  31.628  0.00  0.00    +0.000 A 
ATOM     14  C   UNL     1      49.276   6.696  30.381  0.00  0.00    +0.000 A 
ATOM     15  C   UNL     1      47.989   5.077  31.793  0.00  0.00    +0.000 C 
ATOM     16  N   UNL     1      52.754   7.953  36.840  0.00  0.00    +0.000 N 
ATOM     17  H   UNL     1      52.374   7.168  37.361  0.00  0.00    +0.000 HD
ATOM     18  H   UNL     1      53.622   8.339  37.205  0.00  0.00    +0.000 HD
ENDROOT
TORSDOF 0
ENDMDL
MODEL 2
REMARK VINA RESULT:      -5.0     12.831     16.279
REMARK  Name = MeIQx.pdbqt.pdb
REMARK  0 active torsions:
REMARK  status: ('A' for Active; 'I' for Inactive)
REMARK                            x       y       z     vdW  Elec       q    Type
REMARK                         _______ _______ _______ _____ _____    ______ ____
ROOT
ATOM      1  N   UNL     1      41.711   8.805  17.681  0.00  0.00    +0.000 N 
ATOM      2  N   UNL     1      42.440   7.365  19.197  0.00  0.00    +0.000 NA
ATOM      3  N   UNL     1      44.802   7.876  20.866  0.00  0.00    +0.000 NA
ATOM      4  N   UNL     1      46.160  10.345  20.464  0.00  0.00    +0.000 NA
ATOM      5  C   UNL     1      42.811   9.408  18.230  0.00  0.00    +0.000 A 
ATOM      6  C   UNL     1      43.255   8.487  19.179  0.00  0.00    +0.000 A 
ATOM      7  C   UNL     1      44.402   8.800  19.951  0.00  0.00    +0.000 A 
ATOM      8  C   UNL     1      45.068  10.032  19.740  0.00  0.00    +0.000 A 
ATOM      9  C   UNL     1      41.518   7.573  18.284  0.00  0.00    +0.000 A 
ATOM     10  C   UNL     1      43.445  10.631  18.002  0.00  0.00    +0.000 A 
ATOM     11  C   UNL     1      44.575  10.905  18.780  0.00  0.00    +0.000 A 
ATOM     12  C   UNL     1      40.873   9.386  16.672  0.00  0.00    +0.000 C 
ATOM     13  C   UNL     1      45.897   8.209  21.580  0.00  0.00    +0.000 A 
ATOM     14  C   UNL     1      46.558   9.417  21.380  0.00  0.00    +0.000 A 
ATOM     15  C   UNL     1      46.400   7.243  22.614  0.00  0.00    +0.000 C 
ATOM     16  N   UNL     1      40.519   6.718  17.969  0.00  0.00    +0.000 N 
ATOM     17  H   UNL     1      40.339   5.938  18.594  0.00  0.00    +0.000 HD
ATOM     18  H   UNL     1      39.722   7.028  17.418  0.00  0.00    +0.000 HD
ENDROOT
TORSDOF 0
ENDMDL
MODEL 3
REMARK VINA RESULT:      -4.9     21.638     24.149
REMARK  Name = MeIQx.pdbqt.pdb
REMARK  0 active torsions:
REMARK  status: ('A' for Active; 'I' for Inactive)
REMARK                            x       y       z     vdW  Elec       q    Type
REMARK                         _______ _______ _______ _____ _____    ______ ____
ROOT
ATOM      1  N   UNL     1      35.067  -6.865  47.053  0.00  0.00    +0.000 N 
ATOM      2  N   UNL     1      34.045  -6.818  45.089  0.00  0.00    +0.000 NA
ATOM      3  N   UNL     1      34.577  -4.753  43.071  0.00  0.00    +0.000 NA
ATOM      4  N   UNL     1      36.498  -2.761  43.735  0.00  0.00    +0.000 NA
ATOM      5  C   UNL     1      35.585  -5.768  46.419  0.00  0.00    +0.000 A 
ATOM      6  C   UNL     1      34.930  -5.756  45.188  0.00  0.00    +0.000 A 
ATOM      7  C   UNL     1      35.236  -4.729  44.260  0.00  0.00    +0.000 A 
ATOM      8  C   UNL     1      36.194  -3.744  44.604  0.00  0.00    +0.000 A 
ATOM      9  C   UNL     1      34.137  -7.474  46.225  0.00  0.00    +0.000 A 
ATOM     10  C   UNL     1      36.535  -4.812  46.785  0.00  0.00    +0.000 A 
ATOM     11  C   UNL     1      36.811  -3.813  45.846  0.00  0.00    +0.000 A 
ATOM     12  C   UNL     1      35.462  -7.327  48.353  0.00  0.00    +0.000 C 
ATOM     13  C   UNL     1      34.895  -3.760  42.215  0.00  0.00    +0.000 A 
ATOM     14  C   UNL     1      35.834  -2.787  42.544  0.00  0.00    +0.000 A 
ATOM     15  C   UNL     1      34.212  -3.719  40.878  0.00  0.00    +0.000 C 
ATOM     16  N   UNL     1      33.435  -8.582  46.551  0.00  0.00    +0.000 N 
ATOM     17  H   UNL     1      32.933  -9.066  45.813  0.00  0.00    +0.000 HD
ATOM     18  H   UNL     1      33.709  -9.159  47.343  0.00  0.00    +0.000 HD
ENDROOT
TORSDOF 0
ENDMDL
MODEL 4
REMARK VINA RESULT:      -4.8     35.753     36.471
REMARK  Name = MeIQx.pdbqt.pdb
REMARK  0 active torsions:
REMARK  status: ('A' for Active; 'I' for Inactive)
REMARK                            x       y       z     vdW  Elec       q    Type
REMARK                         _______ _______ _______ _____ _____    ______ ____
ROOT
ATOM      1  N   UNL     1      31.129   4.739   2.716  0.00  0.00    +0.000 N 
ATOM      2  N   UNL     1      29.600   3.290   3.397  0.00  0.00    +0.000 NA
ATOM      3  N   UNL     1      30.196   0.451   3.857  0.00  0.00    +0.000 NA
ATOM      4  N   UNL     1      32.870  -0.401   3.388  0.00  0.00    +0.000 NA
ATOM      5  C   UNL     1      31.797   3.548   2.807  0.00  0.00    +0.000 A 
ATOM      6  C   UNL     1      30.820   2.650   3.235  0.00  0.00    +0.000 A 
ATOM      7  C   UNL     1      31.178   1.294   3.438  0.00  0.00    +0.000 A 
ATOM      8  C   UNL     1      32.513   0.884   3.200  0.00  0.00    +0.000 A 
ATOM      9  C   UNL     1      29.804   4.547   3.074  0.00  0.00    +0.000 A 
ATOM     10  C   UNL     1      33.121   3.173   2.567  0.00  0.00    +0.000 A 
ATOM     11  C   UNL     1      33.438   1.827   2.775  0.00  0.00    +0.000 A 
ATOM     12  C   UNL     1      31.726   5.990   2.347  0.00  0.00    +0.000 C 
ATOM     13  C   UNL     1      30.575  -0.830   4.038  0.00  0.00    +0.000 A 
ATOM     14  C   UNL     1      31.883  -1.244   3.807  0.00  0.00    +0.000 A 
ATOM     15  C   UNL     1      29.549  -1.824   4.504  0.00  0.00    +0.000 C 
ATOM     16  N   UNL     1      28.869   5.523   3.087  0.00  0.00    +0.000 N 
ATOM     17  H   UNL     1      27.986   5.335   3.552  0.00  0.00    +0.000 HD
ATOM     18  H   UNL     1      29.137   6.503   3.041  0.00  0.00    +0.000 HD
ENDROOT
TORSDOF 0
ENDMDL
MODEL 5
REMARK VINA RESULT:      -4.7     27.445     28.832
REMARK  Name = MeIQx.pdbqt.pdb
REMARK  0 active torsions:
REMARK  status: ('A' for Active; 'I' for Inactive)
REMARK                            x       y       z     vdW  Elec       q    Type
REMARK                         _______ _______ _______ _____ _____    ______ ____
ROOT
ATOM      1  N   UNL     1      25.209  22.343  28.772  0.00  0.00    +0.000 N 
ATOM      2  N   UNL     1      25.273  22.511  30.979  0.00  0.00    +0.000 NA
ATOM      3  N   UNL     1      27.778  22.833  32.475  0.00  0.00    +0.000 NA
ATOM      4  N   UNL     1      30.186  22.926  30.961  0.00  0.00    +0.000 NA
ATOM      5  C   UNL     1      26.538  22.477  29.071  0.00  0.00    +0.000 A 
ATOM      6  C   UNL     1      26.557  22.580  30.462  0.00  0.00    +0.000 A 
ATOM      7  C   UNL     1      27.803  22.735  31.119  0.00  0.00    +0.000 A 
ATOM      8  C   UNL     1      28.993  22.780  30.353  0.00  0.00    +0.000 A 
ATOM      9  C   UNL     1      24.473  22.363  29.946  0.00  0.00    +0.000 A 
ATOM     10  C   UNL     1      27.695  22.521  28.289  0.00  0.00    +0.000 A 
ATOM     11  C   UNL     1      28.906  22.672  28.972  0.00  0.00    +0.000 A 
ATOM     12  C   UNL     1      24.671  22.241  27.446  0.00  0.00    +0.000 C 
ATOM     13  C   UNL     1      28.983  22.979  33.065  0.00  0.00    +0.000 A 
ATOM     14  C   UNL     1      30.158  23.023  32.321  0.00  0.00    +0.000 A 
ATOM     15  C   UNL     1      29.040  23.098  34.561  0.00  0.00    +0.000 C 
ATOM     16  N   UNL     1      23.128  22.247  30.005  0.00  0.00    +0.000 N 
ATOM     17  H   UNL     1      22.664  22.472  30.880  0.00  0.00    +0.000 HD
ATOM     18  H   UNL     1      22.558  22.355  29.169  0.00  0.00    +0.000 HD
ENDROOT
TORSDOF 0
ENDMDL
MODEL 6
REMARK VINA RESULT:      -4.6     42.503     46.020
REMARK  Name = MeIQx.pdbqt.pdb
REMARK  0 active torsions:
REMARK  status: ('A' for Active; 'I' for Inactive)
REMARK                            x       y       z     vdW  Elec       q    Type
REMARK                         _______ _______ _______ _____ _____    ______ ____
ROOT
ATOM      1  N   UNL     1      24.532 -10.797   4.459  0.00  0.00    +0.000 N 
ATOM      2  N   UNL     1      23.773 -10.674   2.382  0.00  0.00    +0.000 NA
ATOM      3  N   UNL     1      22.098 -12.763   1.177  0.00  0.00    +0.000 NA
ATOM      4  N   UNL     1      21.463 -15.010   2.804  0.00  0.00    +0.000 NA
ATOM      5  C   UNL     1      23.807 -11.946   4.286  0.00  0.00    +0.000 A 
ATOM      6  C   UNL     1      23.339 -11.850   2.975  0.00  0.00    +0.000 A 
ATOM      7  C   UNL     1      22.534 -12.895   2.458  0.00  0.00    +0.000 A 
ATOM      8  C   UNL     1      22.226 -14.007   3.279  0.00  0.00    +0.000 A 
ATOM      9  C   UNL     1      24.495 -10.055   3.290  0.00  0.00    +0.000 A 
ATOM     10  C   UNL     1      23.517 -13.029   5.119  0.00  0.00    +0.000 A 
ATOM     11  C   UNL     1      22.722 -14.042   4.575  0.00  0.00    +0.000 A 
ATOM     12  C   UNL     1      25.187 -10.414   5.676  0.00  0.00    +0.000 C 
ATOM     13  C   UNL     1      21.336 -13.777   0.720  0.00  0.00    +0.000 A 
ATOM     14  C   UNL     1      21.027 -14.875   1.518  0.00  0.00    +0.000 A 
ATOM     15  C   UNL     1      20.811 -13.705  -0.686  0.00  0.00    +0.000 C 
ATOM     16  N   UNL     1      25.115  -8.865   3.122  0.00  0.00    +0.000 N 
ATOM     17  H   UNL     1      24.869  -8.305   2.311  0.00  0.00    +0.000 HD
ATOM     18  H   UNL     1      25.468  -8.344   3.921  0.00  0.00    +0.000 HD
ENDROOT
TORSDOF 0
ENDMDL
MODEL 7
REMARK VINA RESULT:      -4.6     28.305     29.877
REMARK  Name = MeIQx.pdbqt.pdb
REMARK  0 active torsions:
REMARK  status: ('A' for Active; 'I' for Inactive)
REMARK                            x       y       z     vdW  Elec       q    Type
REMARK                         _______ _______ _______ _____ _____    ______ ____
ROOT
ATOM      1  N   UNL     1      24.357  23.523  28.034  0.00  0.00    +0.000 N 
ATOM      2  N   UNL     1      26.567  23.409  28.077  0.00  0.00    +0.000 NA
ATOM      3  N   UNL     1      28.059  22.375  30.385  0.00  0.00    +0.000 NA
ATOM      4  N   UNL     1      26.535  21.503  32.625  0.00  0.00    +0.000 NA
ATOM      5  C   UNL     1      24.652  22.996  29.262  0.00  0.00    +0.000 A 
ATOM      6  C   UNL     1      26.046  22.933  29.270  0.00  0.00    +0.000 A 
ATOM      7  C   UNL     1      26.701  22.422  30.419  0.00  0.00    +0.000 A 
ATOM      8  C   UNL     1      25.929  21.991  31.526  0.00  0.00    +0.000 A 
ATOM      9  C   UNL     1      25.535  23.765  27.346  0.00  0.00    +0.000 A 
ATOM     10  C   UNL     1      23.866  22.576  30.338  0.00  0.00    +0.000 A 
ATOM     11  C   UNL     1      24.546  22.080  31.454  0.00  0.00    +0.000 A 
ATOM     12  C   UNL     1      23.031  23.747  27.533  0.00  0.00    +0.000 C 
ATOM     13  C   UNL     1      28.646  21.884  31.496  0.00  0.00    +0.000 A 
ATOM     14  C   UNL     1      27.898  21.459  32.589  0.00  0.00    +0.000 A 
ATOM     15  C   UNL     1      30.146  21.797  31.537  0.00  0.00    +0.000 C 
ATOM     16  N   UNL     1      25.598  24.291  26.102  0.00  0.00    +0.000 N 
ATOM     17  H   UNL     1      26.482  24.244  25.605  0.00  0.00    +0.000 HD
ATOM     18  H   UNL     1      24.769  24.338  25.514  0.00  0.00    +0.000 HD
ENDROOT
TORSDOF 0
ENDMDL
MODEL 8
REMARK VINA RESULT:      -4.6     19.085     21.505
REMARK  Name = MeIQx.pdbqt.pdb
REMARK  0 active torsions:
REMARK  status: ('A' for Active; 'I' for Inactive)
REMARK                            x       y       z     vdW  Elec       q    Type
REMARK                         _______ _______ _______ _____ _____    ______ ____
ROOT
ATOM      1  N   UNL     1      36.684  -3.849  45.736  0.00  0.00    +0.000 N 
ATOM      2  N   UNL     1      37.810  -2.217  44.750  0.00  0.00    +0.000 NA
ATOM      3  N   UNL     1      40.491  -1.388  45.616  0.00  0.00    +0.000 NA
ATOM      4  N   UNL     1      41.626  -2.783  47.821  0.00  0.00    +0.000 NA
ATOM      5  C   UNL     1      37.865  -3.776  46.426  0.00  0.00    +0.000 A 
ATOM      6  C   UNL     1      38.557  -2.745  45.792  0.00  0.00    +0.000 A 
ATOM      7  C   UNL     1      39.848  -2.397  46.262  0.00  0.00    +0.000 A 
ATOM      8  C   UNL     1      40.401  -3.100  47.361  0.00  0.00    +0.000 A 
ATOM      9  C   UNL     1      36.682  -2.891  44.734  0.00  0.00    +0.000 A 
ATOM     10  C   UNL     1      38.385  -4.488  47.509  0.00  0.00    +0.000 A 
ATOM     11  C   UNL     1      39.660  -4.117  47.948  0.00  0.00    +0.000 A 
ATOM     12  C   UNL     1      35.640  -4.798  45.992  0.00  0.00    +0.000 C 
ATOM     13  C   UNL     1      41.716  -1.086  46.092  0.00  0.00    +0.000 A 
ATOM     14  C   UNL     1      42.268  -1.770  47.171  0.00  0.00    +0.000 A 
ATOM     15  C   UNL     1      42.493   0.017  45.430  0.00  0.00    +0.000 C 
ATOM     16  N   UNL     1      35.661  -2.692  43.872  0.00  0.00    +0.000 N 
ATOM     17  H   UNL     1      35.828  -2.113  43.055  0.00  0.00    +0.000 HD
ATOM     18  H   UNL     1      34.919  -3.383  43.773  0.00  0.00    +0.000 HD
ENDROOT
TORSDOF 0
ENDMDL
MODEL 9
REMARK VINA RESULT:      -4.5     17.099     18.715
REMARK  Name = MeIQx.pdbqt.pdb
REMARK  0 active torsions:
REMARK  status: ('A' for Active; 'I' for Inactive)
REMARK                            x       y       z     vdW  Elec       q    Type
REMARK                         _______ _______ _______ _____ _____    ______ ____
ROOT
ATOM      1  N   UNL     1      45.416   0.564  47.383  0.00  0.00    +0.000 N 
ATOM      2  N   UNL     1      44.864  -1.263  48.505  0.00  0.00    +0.000 NA
ATOM      3  N   UNL     1      42.413  -2.785  47.956  0.00  0.00    +0.000 NA
ATOM      4  N   UNL     1      40.725  -1.812  45.881  0.00  0.00    +0.000 NA
ATOM      5  C   UNL     1      44.228   0.165  46.832  0.00  0.00    +0.000 A 
ATOM      6  C   UNL     1      43.897  -0.984  47.552  0.00  0.00    +0.000 A 
ATOM      7  C   UNL     1      42.698  -1.669  47.232  0.00  0.00    +0.000 A 
ATOM      8  C   UNL     1      41.868  -1.174  46.197  0.00  0.00    +0.000 A 
ATOM      9  C   UNL     1      45.769  -0.318  48.392  0.00  0.00    +0.000 A 
ATOM     10  C   UNL     1      43.430   0.675  45.805  0.00  0.00    +0.000 A 
ATOM     11  C   UNL     1      42.254  -0.026  45.519  0.00  0.00    +0.000 A 
ATOM     12  C   UNL     1      46.186   1.693  46.947  0.00  0.00    +0.000 C 
ATOM     13  C   UNL     1      41.265  -3.409  47.624  0.00  0.00    +0.000 A 
ATOM     14  C   UNL     1      40.441  -2.930  46.609  0.00  0.00    +0.000 A 
ATOM     15  C   UNL     1      40.880  -4.652  48.374  0.00  0.00    +0.000 C 
ATOM     16  N   UNL     1      46.888  -0.208  49.143  0.00  0.00    +0.000 N 
ATOM     17  H   UNL     1      47.162  -1.001  49.715  0.00  0.00    +0.000 HD
ATOM     18  H   UNL     1      47.646   0.410  48.863  0.00  0.00    +0.000 HD
ENDROOT
TORSDOF 0
ENDMDL
