MODEL 1
REMARK VINA RESULT:      -8.3      0.000      0.000
REMARK  Name = Methotrexate.pdbqt.pdb
REMARK  9 active torsions:
REMARK  status: ('A' for Active; 'I' for Inactive)
REMARK    1  A    between atoms: C_1  and  N_22
REMARK    2  A    between atoms: C_2  and  C_9
REMARK    3  A    between atoms: CA_11  and  C_13
REMARK    4  A    between atoms: CA_11  and  CB_16
REMARK    5  A    between atoms: C_13  and  O_14
REMARK    6  A    between atoms: CG_17  and  CD_19
REMARK    7  A    between atoms: CD_19  and  OE1_20
REMARK    8  A    between atoms: N_22  and  C_24
REMARK    9  A    between atoms: C_24  and  C_31
REMARK                            x       y       z     vdW  Elec       q    Type
REMARK                         _______ _______ _______ _____ _____    ______ ____
ROOT
ATOM      1  C   UNL     1      38.175  -3.081  45.683  0.00  0.00    +0.000 A 
ATOM      2  C   UNL     1      36.225  -2.899  43.644  0.00  0.00    +0.000 A 
ATOM      3  C   UNL     1      36.915  -3.679  45.822  0.00  0.00    +0.000 A 
ATOM      4  C   UNL     1      38.426  -2.382  44.494  0.00  0.00    +0.000 A 
ATOM      5  C   UNL     1      35.950  -3.594  44.818  0.00  0.00    +0.000 A 
ATOM      6  C   UNL     1      37.468  -2.291  43.484  0.00  0.00    +0.000 A 
ENDROOT
BRANCH   2   9
ATOM      7  O   UNL     1      34.047  -2.671  42.841  0.00  0.00    +0.000 OA
ATOM      8  N   UNL     1      35.737  -2.797  41.261  0.00  0.00    +0.000 N 
ATOM      9  C   ACE A   0      35.231  -2.778  42.547  0.00  0.00    +0.000 C 
ATOM     10  H   UNL     1      36.739  -2.892  41.117  0.00  0.00    +0.000 HD
ATOM     11  CA  UNL     1      35.019  -2.704  40.082  0.00  0.00    +0.000 C 
BRANCH  11  13
ATOM     12  OXT UNL     1      36.897  -3.323  38.743  0.00  0.00    +0.000 OA
ATOM     13  C   UNL     1      35.821  -2.753  38.835  0.00  0.00    +0.000 C 
BRANCH  13  14
ATOM     14  O   UNL     1      35.264  -2.110  37.797  0.00  0.00    +0.000 OA
ATOM     15  H   UNL     1      35.084  -2.807  37.132  0.00  0.00    +0.000 HD
ENDBRANCH  13  14
ENDBRANCH  11  13
BRANCH  11  16
ATOM     16  CB  UNL     1      33.605  -2.575  40.062  0.00  0.00    +0.000 C 
ATOM     17  CG  UNL     1      32.077  -2.448  40.034  0.00  0.00    +0.000 C 
BRANCH  17  19
ATOM     18  OE2 UNL     1      30.046  -1.664  39.183  0.00  0.00    +0.000 OA
ATOM     19  CD  UNL     1      30.650  -2.344  39.996  0.00  0.00    +0.000 C 
BRANCH  19  20
ATOM     20  OE1 UNL     1      30.022  -3.050  40.953  0.00  0.00    +0.000 OA
ATOM     21  HE1 UNL     1      30.050  -2.455  41.728  0.00  0.00    +0.000 HD
ENDBRANCH  19  20
ENDBRANCH  17  19
ENDBRANCH  11  16
ENDBRANCH   2   9
BRANCH   1  22
ATOM     22  N   UNL     1      39.135  -3.160  46.720  0.00  0.00    +0.000 N 
ATOM     23  C   UNL     1      38.801  -3.714  48.019  0.00  0.00    +0.000 C 
BRANCH  22  24
ATOM     24  C   UNL     1      40.319  -2.326  46.686  0.00  0.00    +0.000 C 
BRANCH  24  31
ATOM     25  N   UNL     1      42.414  -1.790  47.516  0.00  0.00    +0.000 NA
ATOM     26  N   UNL     1      42.755   0.533  45.674  0.00  0.00    +0.000 NA
ATOM     27  N   UNL     1      44.814   0.968  46.638  0.00  0.00    +0.000 NA
ATOM     28  N   UNL     1      45.734  -0.411  48.331  0.00  0.00    +0.000 NA
ATOM     29  N   UNL     1      44.735  -2.280  49.202  0.00  0.00    +0.000 N 
ATOM     30  N   UNL     1      46.839   1.451  47.546  0.00  0.00    +0.000 N 
ATOM     31  C   UNL     1      41.479  -1.508  46.653  0.00  0.00    +0.000 C 
ATOM     32  C   UNL     1      41.783  -0.376  45.836  0.00  0.00    +0.000 C 
ATOM     33  C   UNL     1      43.554  -0.961  47.467  0.00  0.00    +0.000 C 
ATOM     34  C   UNL     1      43.685   0.221  46.538  0.00  0.00    +0.000 C 
ATOM     35  C   UNL     1      44.713  -1.210  48.346  0.00  0.00    +0.000 C 
ATOM     36  C   UNL     1      45.739   0.662  47.489  0.00  0.00    +0.000 C 
ATOM     37  H   UNL     1      45.391  -2.187  49.968  0.00  0.00    +0.000 HD
ATOM     38  H   UNL     1      43.831  -2.669  49.450  0.00  0.00    +0.000 HD
ATOM     39  H   UNL     1      47.661   0.961  47.871  0.00  0.00    +0.000 HD
ATOM     40  H   UNL     1      46.974   1.993  46.703  0.00  0.00    +0.000 HD
ENDBRANCH  24  31
ENDBRANCH  22  24
ENDBRANCH   1  22
TORSDOF 9
ENDMDL
MODEL 2
REMARK VINA RESULT:      -8.0      6.478     11.737
REMARK  Name = Methotrexate.pdbqt.pdb
REMARK  9 active torsions:
REMARK  status: ('A' for Active; 'I' for Inactive)
REMARK    1  A    between atoms: C_1  and  N_22
REMARK    2  A    between atoms: C_2  and  C_9
REMARK    3  A    between atoms: CA_11  and  C_13
REMARK    4  A    between atoms: CA_11  and  CB_16
REMARK    5  A    between atoms: C_13  and  O_14
REMARK    6  A    between atoms: CG_17  and  CD_19
REMARK    7  A    between atoms: CD_19  and  OE1_20
REMARK    8  A    between atoms: N_22  and  C_24
REMARK    9  A    between atoms: C_24  and  C_31
REMARK                            x       y       z     vdW  Elec       q    Type
REMARK                         _______ _______ _______ _____ _____    ______ ____
ROOT
ATOM      1  C   UNL     1      37.435  -3.617  46.929  0.00  0.00    +0.000 A 
ATOM      2  C   UNL     1      36.899  -4.147  49.655  0.00  0.00    +0.000 A 
ATOM      3  C   UNL     1      38.381  -3.340  47.927  0.00  0.00    +0.000 A 
ATOM      4  C   UNL     1      36.210  -4.160  47.340  0.00  0.00    +0.000 A 
ATOM      5  C   UNL     1      38.122  -3.602  49.273  0.00  0.00    +0.000 A 
ATOM      6  C   UNL     1      35.941  -4.426  48.683  0.00  0.00    +0.000 A 
ENDROOT
BRANCH   2   9
ATOM      7  O   UNL     1      35.619  -5.167  51.317  0.00  0.00    +0.000 OA
ATOM      8  N   UNL     1      37.399  -3.862  52.021  0.00  0.00    +0.000 N 
ATOM      9  C   ACE A   0      36.576  -4.442  51.074  0.00  0.00    +0.000 C 
ATOM     10  H   UNL     1      38.171  -3.272  51.720  0.00  0.00    +0.000 HD
ATOM     11  CA  UNL     1      37.301  -3.982  53.395  0.00  0.00    +0.000 C 
BRANCH  11  13
ATOM     12  OXT UNL     1      39.466  -3.055  53.792  0.00  0.00    +0.000 OA
ATOM     13  C   UNL     1      38.324  -3.247  54.180  0.00  0.00    +0.000 C 
BRANCH  13  14
ATOM     14  O   UNL     1      37.891  -2.803  55.369  0.00  0.00    +0.000 OA
ATOM     15  H   UNL     1      36.915  -2.880  55.331  0.00  0.00    +0.000 HD
ENDBRANCH  13  14
ENDBRANCH  11  13
BRANCH  11  16
ATOM     16  CB  UNL     1      36.286  -4.754  54.019  0.00  0.00    +0.000 C 
ATOM     17  CG  UNL     1      35.199  -5.600  54.692  0.00  0.00    +0.000 C 
BRANCH  17  19
ATOM     18  OE2 UNL     1      33.502  -6.019  56.245  0.00  0.00    +0.000 OA
ATOM     19  CD  UNL     1      34.194  -6.405  55.318  0.00  0.00    +0.000 C 
BRANCH  19  20
ATOM     20  OE1 UNL     1      34.086  -7.644  54.806  0.00  0.00    +0.000 OA
ATOM     21  HE1 UNL     1      34.084  -8.217  55.598  0.00  0.00    +0.000 HD
ENDBRANCH  19  20
ENDBRANCH  17  19
ENDBRANCH  11  16
ENDBRANCH   2   9
BRANCH   1  22
ATOM     22  N   UNL     1      37.706  -3.327  45.571  0.00  0.00    +0.000 N 
ATOM     23  C   UNL     1      38.889  -2.582  45.178  0.00  0.00    +0.000 C 
BRANCH  22  24
ATOM     24  C   UNL     1      36.644  -3.369  44.587  0.00  0.00    +0.000 C 
BRANCH  24  31
ATOM     25  N   UNL     1      35.933  -3.093  42.401  0.00  0.00    +0.000 NA
ATOM     26  N   UNL     1      33.099  -3.775  43.038  0.00  0.00    +0.000 NA
ATOM     27  N   UNL     1      32.535  -3.416  40.823  0.00  0.00    +0.000 NA
ATOM     28  N   UNL     1      34.151  -2.855  39.182  0.00  0.00    +0.000 NA
ATOM     29  N   UNL     1      36.394  -2.599  39.570  0.00  0.00    +0.000 N 
ATOM     30  N   UNL     1      31.918  -3.075  38.664  0.00  0.00    +0.000 N 
ATOM     31  C   UNL     1      35.605  -3.413  43.621  0.00  0.00    +0.000 C 
ATOM     32  C   UNL     1      34.218  -3.719  43.774  0.00  0.00    +0.000 C 
ATOM     33  C   UNL     1      34.884  -3.139  41.459  0.00  0.00    +0.000 C 
ATOM     34  C   UNL     1      33.455  -3.465  41.820  0.00  0.00    +0.000 C 
ATOM     35  C   UNL     1      35.131  -2.863  40.031  0.00  0.00    +0.000 C 
ATOM     36  C   UNL     1      32.883  -3.115  39.614  0.00  0.00    +0.000 C 
ATOM     37  H   UNL     1      36.421  -2.115  38.680  0.00  0.00    +0.000 HD
ATOM     38  H   UNL     1      37.060  -2.271  40.262  0.00  0.00    +0.000 HD
ATOM     39  H   UNL     1      32.269  -3.266  37.735  0.00  0.00    +0.000 HD
ATOM     40  H   UNL     1      31.095  -3.602  38.922  0.00  0.00    +0.000 HD
ENDBRANCH  24  31
ENDBRANCH  22  24
ENDBRANCH   1  22
TORSDOF 9
ENDMDL
MODEL 3
REMARK VINA RESULT:      -7.8      3.923      6.516
REMARK  Name = Methotrexate.pdbqt.pdb
REMARK  9 active torsions:
REMARK  status: ('A' for Active; 'I' for Inactive)
REMARK    1  A    between atoms: C_1  and  N_22
REMARK    2  A    between atoms: C_2  and  C_9
REMARK    3  A    between atoms: CA_11  and  C_13
REMARK    4  A    between atoms: CA_11  and  CB_16
REMARK    5  A    between atoms: C_13  and  O_14
REMARK    6  A    between atoms: CG_17  and  CD_19
REMARK    7  A    between atoms: CD_19  and  OE1_20
REMARK    8  A    between atoms: N_22  and  C_24
REMARK    9  A    between atoms: C_24  and  C_31
REMARK                            x       y       z     vdW  Elec       q    Type
REMARK                         _______ _______ _______ _____ _____    ______ ____
ROOT
ATOM      1  C   UNL     1      37.903  -3.040  46.259  0.00  0.00    +0.000 A 
ATOM      2  C   UNL     1      36.545  -2.722  43.799  0.00  0.00    +0.000 A 
ATOM      3  C   UNL     1      38.497  -2.374  45.178  0.00  0.00    +0.000 A 
ATOM      4  C   UNL     1      36.610  -3.548  46.069  0.00  0.00    +0.000 A 
ATOM      5  C   UNL     1      37.830  -2.213  43.963  0.00  0.00    +0.000 A 
ATOM      6  C   UNL     1      35.935  -3.392  44.858  0.00  0.00    +0.000 A 
ENDROOT
BRANCH   2   9
ATOM      7  O   UNL     1      34.573  -2.667  42.554  0.00  0.00    +0.000 OA
ATOM      8  N   UNL     1      36.553  -2.351  41.393  0.00  0.00    +0.000 N 
ATOM      9  C   ACE A   0      35.795  -2.578  42.526  0.00  0.00    +0.000 C 
ATOM     10  H   UNL     1      37.565  -2.294  41.471  0.00  0.00    +0.000 HD
ATOM     11  CA  UNL     1      36.091  -2.187  40.100  0.00  0.00    +0.000 C 
BRANCH  11  13
ATOM     12  OXT UNL     1      38.282  -2.356  39.165  0.00  0.00    +0.000 OA
ATOM     13  C   UNL     1      37.132  -1.956  39.069  0.00  0.00    +0.000 C 
BRANCH  13  14
ATOM     14  O   UNL     1      36.707  -1.260  38.003  0.00  0.00    +0.000 OA
ATOM     15  H   UNL     1      35.744  -1.431  37.955  0.00  0.00    +0.000 HD
ENDBRANCH  13  14
ENDBRANCH  11  13
BRANCH  11  16
ATOM     16  CB  UNL     1      34.710  -2.240  39.775  0.00  0.00    +0.000 C 
ATOM     17  CG  UNL     1      33.215  -2.296  39.438  0.00  0.00    +0.000 C 
BRANCH  17  19
ATOM     18  OE2 UNL     1      30.947  -2.387  39.997  0.00  0.00    +0.000 OA
ATOM     19  CD  UNL     1      31.816  -2.347  39.142  0.00  0.00    +0.000 C 
BRANCH  19  20
ATOM     20  OE1 UNL     1      31.533  -2.367  37.827  0.00  0.00    +0.000 OA
ATOM     21  HE1 UNL     1      31.435  -1.420  37.602  0.00  0.00    +0.000 HD
ENDBRANCH  19  20
ENDBRANCH  17  19
ENDBRANCH  11  16
ENDBRANCH   2   9
BRANCH   1  22
ATOM     22  N   UNL     1      38.601  -3.212  47.478  0.00  0.00    +0.000 N 
ATOM     23  C   UNL     1      40.043  -3.380  47.506  0.00  0.00    +0.000 C 
BRANCH  22  24
ATOM     24  C   UNL     1      37.901  -3.653  48.667  0.00  0.00    +0.000 C 
BRANCH  24  31
ATOM     25  N   UNL     1      37.791  -3.836  50.973  0.00  0.00    +0.000 NA
ATOM     26  N   UNL     1      35.203  -5.321  50.920  0.00  0.00    +0.000 NA
ATOM     27  N   UNL     1      35.260  -5.461  53.229  0.00  0.00    +0.000 NA
ATOM     28  N   UNL     1      36.980  -4.461  54.514  0.00  0.00    +0.000 NA
ATOM     29  N   UNL     1      38.748  -3.276  53.664  0.00  0.00    +0.000 N 
ATOM     30  N   UNL     1      35.260  -5.637  55.493  0.00  0.00    +0.000 N 
ATOM     31  C   UNL     1      37.213  -4.085  49.831  0.00  0.00    +0.000 C 
ATOM     32  C   UNL     1      35.981  -4.796  49.962  0.00  0.00    +0.000 C 
ATOM     33  C   UNL     1      37.092  -4.278  52.115  0.00  0.00    +0.000 C 
ATOM     34  C   UNL     1      35.795  -5.047  52.052  0.00  0.00    +0.000 C 
ATOM     35  C   UNL     1      37.603  -4.005  53.472  0.00  0.00    +0.000 C 
ATOM     36  C   UNL     1      35.839  -5.190  54.353  0.00  0.00    +0.000 C 
ATOM     37  H   UNL     1      39.185  -3.416  54.567  0.00  0.00    +0.000 HD
ATOM     38  H   UNL     1      39.385  -3.234  52.876  0.00  0.00    +0.000 HD
ATOM     39  H   UNL     1      35.478  -5.066  56.299  0.00  0.00    +0.000 HD
ATOM     40  H   UNL     1      34.277  -5.844  55.376  0.00  0.00    +0.000 HD
ENDBRANCH  24  31
ENDBRANCH  22  24
ENDBRANCH   1  22
TORSDOF 9
ENDMDL
MODEL 4
REMARK VINA RESULT:      -7.7     29.813     33.431
REMARK  Name = Methotrexate.pdbqt.pdb
REMARK  9 active torsions:
REMARK  status: ('A' for Active; 'I' for Inactive)
REMARK    1  A    between atoms: C_1  and  N_22
REMARK    2  A    between atoms: C_2  and  C_9
REMARK    3  A    between atoms: CA_11  and  C_13
REMARK    4  A    between atoms: CA_11  and  CB_16
REMARK    5  A    between atoms: C_13  and  O_14
REMARK    6  A    between atoms: CG_17  and  CD_19
REMARK    7  A    between atoms: CD_19  and  OE1_20
REMARK    8  A    between atoms: N_22  and  C_24
REMARK    9  A    between atoms: C_24  and  C_31
REMARK                            x       y       z     vdW  Elec       q    Type
REMARK                         _______ _______ _______ _____ _____    ______ ____
ROOT
ATOM      1  C   UNL     1      40.367   1.108  11.862  0.00  0.00    +0.000 A 
ATOM      2  C   UNL     1      42.273  -0.873  11.198  0.00  0.00    +0.000 A 
ATOM      3  C   UNL     1      39.975  -0.172  11.446  0.00  0.00    +0.000 A 
ATOM      4  C   UNL     1      41.743   1.368  11.928  0.00  0.00    +0.000 A 
ATOM      5  C   UNL     1      40.911  -1.154  11.119  0.00  0.00    +0.000 A 
ATOM      6  C   UNL     1      42.688   0.393  11.604  0.00  0.00    +0.000 A 
ENDROOT
BRANCH   2   9
ATOM      7  O   UNL     1      43.724  -2.614  11.750  0.00  0.00    +0.000 OA
ATOM      8  N   UNL     1      43.722  -1.914   9.541  0.00  0.00    +0.000 N 
ATOM      9  C   ACE A   0      43.308  -1.883  10.860  0.00  0.00    +0.000 C 
ATOM     10  H   UNL     1      43.316  -1.264   8.873  0.00  0.00    +0.000 HD
ATOM     11  CA  UNL     1      44.669  -2.755   8.985  0.00  0.00    +0.000 C 
BRANCH  11  13
ATOM     12  OXT UNL     1      44.409  -1.686   6.865  0.00  0.00    +0.000 OA
ATOM     13  C   UNL     1      44.921  -2.570   7.535  0.00  0.00    +0.000 C 
BRANCH  13  14
ATOM     14  O   UNL     1      45.768  -3.465   7.005  0.00  0.00    +0.000 OA
ATOM     15  H   UNL     1      45.348  -4.336   7.159  0.00  0.00    +0.000 HD
ENDBRANCH  13  14
ENDBRANCH  11  13
BRANCH  11  16
ATOM     16  CB  UNL     1      45.360  -3.731   9.750  0.00  0.00    +0.000 C 
ATOM     17  CG  UNL     1      46.097  -4.795  10.572  0.00  0.00    +0.000 C 
BRANCH  17  19
ATOM     18  OE2 UNL     1      46.975  -6.932  10.928  0.00  0.00    +0.000 OA
ATOM     19  CD  UNL     1      46.772  -5.801  11.335  0.00  0.00    +0.000 C 
BRANCH  19  20
ATOM     20  OE1 UNL     1      47.153  -5.397  12.560  0.00  0.00    +0.000 OA
ATOM     21  HE1 UNL     1      47.634  -4.564  12.384  0.00  0.00    +0.000 HD
ENDBRANCH  19  20
ENDBRANCH  17  19
ENDBRANCH  11  16
ENDBRANCH   2   9
BRANCH   1  22
ATOM     22  N   UNL     1      39.405   2.098  12.170  0.00  0.00    +0.000 N 
ATOM     23  C   UNL     1      39.755   3.507  12.208  0.00  0.00    +0.000 C 
BRANCH  22  24
ATOM     24  C   UNL     1      38.184   1.744  12.864  0.00  0.00    +0.000 C 
BRANCH  24  31
ATOM     25  N   UNL     1      37.012   0.295  14.238  0.00  0.00    +0.000 NA
ATOM     26  N   UNL     1      34.489   1.880  14.073  0.00  0.00    +0.000 NA
ATOM     27  N   UNL     1      33.443   0.317  15.421  0.00  0.00    +0.000 NA
ATOM     28  N   UNL     1      34.596  -1.540  16.333  0.00  0.00    +0.000 NA
ATOM     29  N   UNL     1      36.814  -2.012  16.002  0.00  0.00    +0.000 N 
ATOM     30  N   UNL     1      32.357  -1.183  16.736  0.00  0.00    +0.000 N 
ATOM     31  C   UNL     1      36.986   1.397  13.542  0.00  0.00    +0.000 C 
ATOM     32  C   UNL     1      35.716   2.050  13.560  0.00  0.00    +0.000 C 
ATOM     33  C   UNL     1      35.810  -0.032  14.899  0.00  0.00    +0.000 C 
ATOM     34  C   UNL     1      34.543   0.780  14.776  0.00  0.00    +0.000 C 
ATOM     35  C   UNL     1      35.720  -1.219  15.772  0.00  0.00    +0.000 C 
ATOM     36  C   UNL     1      33.491  -0.769  16.122  0.00  0.00    +0.000 C 
ATOM     37  H   UNL     1      36.591  -2.946  16.326  0.00  0.00    +0.000 HD
ATOM     38  H   UNL     1      37.554  -1.959  15.310  0.00  0.00    +0.000 HD
ATOM     39  H   UNL     1      32.535  -1.733  17.566  0.00  0.00    +0.000 HD
ATOM     40  H   UNL     1      31.685  -0.437  16.858  0.00  0.00    +0.000 HD
ENDBRANCH  24  31
ENDBRANCH  22  24
ENDBRANCH   1  22
TORSDOF 9
ENDMDL
MODEL 5
REMARK VINA RESULT:      -7.5     30.365     34.468
REMARK  Name = Methotrexate.pdbqt.pdb
REMARK  9 active torsions:
REMARK  status: ('A' for Active; 'I' for Inactive)
REMARK    1  A    between atoms: C_1  and  N_22
REMARK    2  A    between atoms: C_2  and  C_9
REMARK    3  A    between atoms: CA_11  and  C_13
REMARK    4  A    between atoms: CA_11  and  CB_16
REMARK    5  A    between atoms: C_13  and  O_14
REMARK    6  A    between atoms: CG_17  and  CD_19
REMARK    7  A    between atoms: CD_19  and  OE1_20
REMARK    8  A    between atoms: N_22  and  C_24
REMARK    9  A    between atoms: C_24  and  C_31
REMARK                            x       y       z     vdW  Elec       q    Type
REMARK                         _______ _______ _______ _____ _____    ______ ____
ROOT
ATOM      1  C   UNL     1      39.089   4.391  12.652  0.00  0.00    +0.000 A 
ATOM      2  C   UNL     1      39.355   4.769   9.862  0.00  0.00    +0.000 A 
ATOM      3  C   UNL     1      38.327   3.649  11.738  0.00  0.00    +0.000 A 
ATOM      4  C   UNL     1      39.982   5.334  12.125  0.00  0.00    +0.000 A 
ATOM      5  C   UNL     1      38.456   3.830  10.361  0.00  0.00    +0.000 A 
ATOM      6  C   UNL     1      40.119   5.523  10.749  0.00  0.00    +0.000 A 
ENDROOT
BRANCH   2   9
ATOM      7  O   UNL     1      39.883   4.063   7.703  0.00  0.00    +0.000 OA
ATOM      8  N   UNL     1      39.265   6.281   7.956  0.00  0.00    +0.000 N 
ATOM      9  C   ACE A   0      39.527   5.001   8.405  0.00  0.00    +0.000 C 
ATOM     10  H   UNL     1      38.974   6.995   8.618  0.00  0.00    +0.000 HD
ATOM     11  CA  UNL     1      39.356   6.742   6.655  0.00  0.00    +0.000 C 
BRANCH  11  13
ATOM     12  OXT UNL     1      38.678   8.644   5.378  0.00  0.00    +0.000 OA
ATOM     13  C   UNL     1      39.015   8.172   6.453  0.00  0.00    +0.000 C 
BRANCH  13  14
ATOM     14  O   UNL     1      39.107   8.921   7.562  0.00  0.00    +0.000 OA
ATOM     15  H   UNL     1      40.044   9.205   7.601  0.00  0.00    +0.000 HD
ENDBRANCH  13  14
ENDBRANCH  11  13
BRANCH  11  16
ATOM     16  CB  UNL     1      39.753   5.905   5.579  0.00  0.00    +0.000 C 
ATOM     17  CG  UNL     1      40.170   4.997   4.415  0.00  0.00    +0.000 C 
BRANCH  17  19
ATOM     18  OE2 UNL     1      40.754   2.950   3.452  0.00  0.00    +0.000 OA
ATOM     19  CD  UNL     1      40.540   4.144   3.328  0.00  0.00    +0.000 C 
BRANCH  19  20
ATOM     20  OE1 UNL     1      40.654   4.778   2.147  0.00  0.00    +0.000 OA
ATOM     21  HE1 UNL     1      40.511   4.065   1.493  0.00  0.00    +0.000 HD
ENDBRANCH  19  20
ENDBRANCH  17  19
ENDBRANCH  11  16
ENDBRANCH   2   9
BRANCH   1  22
ATOM     22  N   UNL     1      38.931   4.209  14.046  0.00  0.00    +0.000 N 
ATOM     23  C   UNL     1      40.042   4.395  14.963  0.00  0.00    +0.000 C 
BRANCH  22  24
ATOM     24  C   UNL     1      37.823   3.435  14.564  0.00  0.00    +0.000 C 
BRANCH  24  31
ATOM     25  N   UNL     1      36.829   1.381  14.961  0.00  0.00    +0.000 NA
ATOM     26  N   UNL     1      34.377   2.588  16.159  0.00  0.00    +0.000 NA
ATOM     27  N   UNL     1      33.499   0.467  16.449  0.00  0.00    +0.000 NA
ATOM     28  N   UNL     1      34.710  -1.490  15.886  0.00  0.00    +0.000 NA
ATOM     29  N   UNL     1      36.826  -1.529  15.007  0.00  0.00    +0.000 N 
ATOM     30  N   UNL     1      32.580  -1.587  16.755  0.00  0.00    +0.000 N 
ATOM     31  C   UNL     1      36.736   2.677  15.073  0.00  0.00    +0.000 C 
ATOM     32  C   UNL     1      35.511   3.108  15.669  0.00  0.00    +0.000 C 
ATOM     33  C   UNL     1      35.737   0.649  15.470  0.00  0.00    +0.000 C 
ATOM     34  C   UNL     1      34.499   1.292  16.049  0.00  0.00    +0.000 C 
ATOM     35  C   UNL     1      35.741  -0.827  15.464  0.00  0.00    +0.000 C 
ATOM     36  C   UNL     1      33.617  -0.817  16.346  0.00  0.00    +0.000 C 
ATOM     37  H   UNL     1      36.621  -2.485  14.740  0.00  0.00    +0.000 HD
ATOM     38  H   UNL     1      37.447  -1.028  14.381  0.00  0.00    +0.000 HD
ATOM     39  H   UNL     1      32.866  -2.510  17.055  0.00  0.00    +0.000 HD
ATOM     40  H   UNL     1      31.966  -1.105  17.398  0.00  0.00    +0.000 HD
ENDBRANCH  24  31
ENDBRANCH  22  24
ENDBRANCH   1  22
TORSDOF 9
ENDMDL
MODEL 6
REMARK VINA RESULT:      -7.2     22.129     24.139
REMARK  Name = Methotrexate.pdbqt.pdb
REMARK  9 active torsions:
REMARK  status: ('A' for Active; 'I' for Inactive)
REMARK    1  A    between atoms: C_1  and  N_22
REMARK    2  A    between atoms: C_2  and  C_9
REMARK    3  A    between atoms: CA_11  and  C_13
REMARK    4  A    between atoms: CA_11  and  CB_16
REMARK    5  A    between atoms: C_13  and  O_14
REMARK    6  A    between atoms: CG_17  and  CD_19
REMARK    7  A    between atoms: CD_19  and  OE1_20
REMARK    8  A    between atoms: N_22  and  C_24
REMARK    9  A    between atoms: C_24  and  C_31
REMARK                            x       y       z     vdW  Elec       q    Type
REMARK                         _______ _______ _______ _____ _____    ______ ____
ROOT
ATOM      1  C   UNL     1      18.563   4.641  40.313  0.00  0.00    +0.000 A 
ATOM      2  C   UNL     1      17.498   3.128  42.452  0.00  0.00    +0.000 A 
ATOM      3  C   UNL     1      18.300   3.271  40.178  0.00  0.00    +0.000 A 
ATOM      4  C   UNL     1      18.284   5.229  41.555  0.00  0.00    +0.000 A 
ATOM      5  C   UNL     1      17.773   2.521  41.229  0.00  0.00    +0.000 A 
ATOM      6  C   UNL     1      17.757   4.488  42.613  0.00  0.00    +0.000 A 
ENDROOT
BRANCH   2   9
ATOM      7  O   UNL     1      16.179   1.439  43.373  0.00  0.00    +0.000 OA
ATOM      8  N   UNL     1      17.330   2.795  44.858  0.00  0.00    +0.000 N 
ATOM      9  C   ACE A   0      16.939   2.373  43.601  0.00  0.00    +0.000 C 
ATOM     10  H   UNL     1      17.966   3.584  44.946  0.00  0.00    +0.000 HD
ATOM     11  CA  UNL     1      16.946   2.260  46.074  0.00  0.00    +0.000 C 
BRANCH  11  13
ATOM     12  OXT UNL     1      16.925   3.028  48.335  0.00  0.00    +0.000 OA
ATOM     13  C   UNL     1      17.521   2.913  47.275  0.00  0.00    +0.000 C 
BRANCH  13  14
ATOM     14  O   UNL     1      18.768   3.378  47.106  0.00  0.00    +0.000 OA
ATOM     15  H   UNL     1      19.143   2.841  46.378  0.00  0.00    +0.000 HD
ENDBRANCH  13  14
ENDBRANCH  11  13
BRANCH  11  16
ATOM     16  CB  UNL     1      16.055   1.158  46.171  0.00  0.00    +0.000 C 
ATOM     17  CG  UNL     1      15.098  -0.036  46.262  0.00  0.00    +0.000 C 
BRANCH  17  19
ATOM     18  OE2 UNL     1      13.823  -1.647  47.377  0.00  0.00    +0.000 OA
ATOM     19  CD  UNL     1      14.208  -1.155  46.330  0.00  0.00    +0.000 C 
BRANCH  19  20
ATOM     20  OE1 UNL     1      13.841  -1.638  45.130  0.00  0.00    +0.000 OA
ATOM     21  HE1 UNL     1      12.902  -1.878  45.259  0.00  0.00    +0.000 HD
ENDBRANCH  19  20
ENDBRANCH  17  19
ENDBRANCH  11  16
ENDBRANCH   2   9
BRANCH   1  22
ATOM     22  N   UNL     1      19.118   5.384  39.243  0.00  0.00    +0.000 N 
ATOM     23  C   UNL     1      19.733   6.680  39.463  0.00  0.00    +0.000 C 
BRANCH  22  24
ATOM     24  C   UNL     1      18.724   5.106  37.878  0.00  0.00    +0.000 C 
BRANCH  24  31
ATOM     25  N   UNL     1      19.228   5.092  35.617  0.00  0.00    +0.000 NA
ATOM     26  N   UNL     1      16.535   4.074  34.832  0.00  0.00    +0.000 NA
ATOM     27  N   UNL     1      17.173   4.160  32.609  0.00  0.00    +0.000 NA
ATOM     28  N   UNL     1      19.354   4.802  31.944  0.00  0.00    +0.000 NA
ATOM     29  N   UNL     1      21.047   5.405  33.367  0.00  0.00    +0.000 N 
ATOM     30  N   UNL     1      17.736   4.226  30.410  0.00  0.00    +0.000 N 
ATOM     31  C   UNL     1      18.341   4.834  36.538  0.00  0.00    +0.000 C 
ATOM     32  C   UNL     1      17.104   4.349  36.014  0.00  0.00    +0.000 C 
ATOM     33  C   UNL     1      18.824   4.819  34.294  0.00  0.00    +0.000 C 
ATOM     34  C   UNL     1      17.444   4.326  33.929  0.00  0.00    +0.000 C 
ATOM     35  C   UNL     1      19.752   5.005  33.162  0.00  0.00    +0.000 C 
ATOM     36  C   UNL     1      18.071   4.404  31.711  0.00  0.00    +0.000 C 
ATOM     37  H   UNL     1      21.491   5.811  32.552  0.00  0.00    +0.000 HD
ATOM     38  H   UNL     1      21.231   5.881  34.244  0.00  0.00    +0.000 HD
ATOM     39  H   UNL     1      18.531   4.008  29.823  0.00  0.00    +0.000 HD
ATOM     40  H   UNL     1      16.942   3.612  30.293  0.00  0.00    +0.000 HD
ENDBRANCH  24  31
ENDBRANCH  22  24
ENDBRANCH   1  22
TORSDOF 9
ENDMDL
MODEL 7
REMARK VINA RESULT:      -7.1      6.483     11.509
REMARK  Name = Methotrexate.pdbqt.pdb
REMARK  9 active torsions:
REMARK  status: ('A' for Active; 'I' for Inactive)
REMARK    1  A    between atoms: C_1  and  N_22
REMARK    2  A    between atoms: C_2  and  C_9
REMARK    3  A    between atoms: CA_11  and  C_13
REMARK    4  A    between atoms: CA_11  and  CB_16
REMARK    5  A    between atoms: C_13  and  O_14
REMARK    6  A    between atoms: CG_17  and  CD_19
REMARK    7  A    between atoms: CD_19  and  OE1_20
REMARK    8  A    between atoms: N_22  and  C_24
REMARK    9  A    between atoms: C_24  and  C_31
REMARK                            x       y       z     vdW  Elec       q    Type
REMARK                         _______ _______ _______ _____ _____    ______ ____
ROOT
ATOM      1  C   UNL     1      37.411  -3.474  46.253  0.00  0.00    +0.000 A 
ATOM      2  C   UNL     1      36.891  -4.241  48.925  0.00  0.00    +0.000 A 
ATOM      3  C   UNL     1      38.288  -3.137  47.293  0.00  0.00    +0.000 A 
ATOM      4  C   UNL     1      36.261  -4.200  46.593  0.00  0.00    +0.000 A 
ATOM      5  C   UNL     1      38.038  -3.515  48.613  0.00  0.00    +0.000 A 
ATOM      6  C   UNL     1      36.001  -4.583  47.909  0.00  0.00    +0.000 A 
ENDROOT
BRANCH   2   9
ATOM      7  O   UNL     1      36.439  -3.801  51.170  0.00  0.00    +0.000 OA
ATOM      8  N   UNL     1      36.470  -6.026  50.525  0.00  0.00    +0.000 N 
ATOM      9  C   ACE A   0      36.579  -4.665  50.313  0.00  0.00    +0.000 C 
ATOM     10  H   UNL     1      36.604  -6.667  49.747  0.00  0.00    +0.000 HD
ATOM     11  CA  UNL     1      36.191  -6.663  51.721  0.00  0.00    +0.000 C 
BRANCH  11  13
ATOM     12  OXT UNL     1      35.531  -8.832  52.474  0.00  0.00    +0.000 OA
ATOM     13  C   UNL     1      36.133  -8.145  51.663  0.00  0.00    +0.000 C 
BRANCH  13  14
ATOM     14  O   UNL     1      36.804  -8.682  50.633  0.00  0.00    +0.000 OA
ATOM     15  H   UNL     1      36.986  -7.933  50.029  0.00  0.00    +0.000 HD
ENDBRANCH  13  14
ENDBRANCH  11  13
BRANCH  11  16
ATOM     16  CB  UNL     1      35.977  -5.949  52.929  0.00  0.00    +0.000 C 
ATOM     17  CG  UNL     1      35.733  -5.177  54.231  0.00  0.00    +0.000 C 
BRANCH  17  19
ATOM     18  OE2 UNL     1      34.727  -4.836  56.313  0.00  0.00    +0.000 OA
ATOM     19  CD  UNL     1      35.488  -4.452  55.441  0.00  0.00    +0.000 C 
BRANCH  19  20
ATOM     20  OE1 UNL     1      36.159  -3.290  55.531  0.00  0.00    +0.000 OA
ATOM     21  HE1 UNL     1      35.470  -2.651  55.801  0.00  0.00    +0.000 HD
ENDBRANCH  19  20
ENDBRANCH  17  19
ENDBRANCH  11  16
ENDBRANCH   2   9
BRANCH   1  22
ATOM     22  N   UNL     1      37.670  -3.065  44.923  0.00  0.00    +0.000 N 
ATOM     23  C   UNL     1      38.775  -2.178  44.606  0.00  0.00    +0.000 C 
BRANCH  22  24
ATOM     24  C   UNL     1      36.633  -3.149  43.916  0.00  0.00    +0.000 C 
BRANCH  24  31
ATOM     25  N   UNL     1      35.979  -2.978  41.701  0.00  0.00    +0.000 NA
ATOM     26  N   UNL     1      33.123  -3.604  42.300  0.00  0.00    +0.000 NA
ATOM     27  N   UNL     1      32.619  -3.354  40.056  0.00  0.00    +0.000 NA
ATOM     28  N   UNL     1      34.279  -2.890  38.431  0.00  0.00    +0.000 NA
ATOM     29  N   UNL     1      36.515  -2.631  38.861  0.00  0.00    +0.000 N 
ATOM     30  N   UNL     1      32.058  -3.118  37.868  0.00  0.00    +0.000 N 
ATOM     31  C   UNL     1      35.617  -3.233  42.927  0.00  0.00    +0.000 C 
ATOM     32  C   UNL     1      34.225  -3.520  43.060  0.00  0.00    +0.000 C 
ATOM     33  C   UNL     1      34.953  -3.063  40.737  0.00  0.00    +0.000 C 
ATOM     34  C   UNL     1      33.512  -3.360  41.077  0.00  0.00    +0.000 C 
ATOM     35  C   UNL     1      35.238  -2.861  39.303  0.00  0.00    +0.000 C 
ATOM     36  C   UNL     1      32.999  -3.117  38.842  0.00  0.00    +0.000 C 
ATOM     37  H   UNL     1      36.567  -2.193  37.949  0.00  0.00    +0.000 HD
ATOM     38  H   UNL     1      37.166  -2.274  39.552  0.00  0.00    +0.000 HD
ATOM     39  H   UNL     1      32.430  -3.358  36.958  0.00  0.00    +0.000 HD
ATOM     40  H   UNL     1      31.224  -3.625  38.132  0.00  0.00    +0.000 HD
ENDBRANCH  24  31
ENDBRANCH  22  24
ENDBRANCH   1  22
TORSDOF 9
ENDMDL
MODEL 8
REMARK VINA RESULT:      -7.0     30.320     32.026
REMARK  Name = Methotrexate.pdbqt.pdb
REMARK  9 active torsions:
REMARK  status: ('A' for Active; 'I' for Inactive)
REMARK    1  A    between atoms: C_1  and  N_22
REMARK    2  A    between atoms: C_2  and  C_9
REMARK    3  A    between atoms: CA_11  and  C_13
REMARK    4  A    between atoms: CA_11  and  CB_16
REMARK    5  A    between atoms: C_13  and  O_14
REMARK    6  A    between atoms: CG_17  and  CD_19
REMARK    7  A    between atoms: CD_19  and  OE1_20
REMARK    8  A    between atoms: N_22  and  C_24
REMARK    9  A    between atoms: C_24  and  C_31
REMARK                            x       y       z     vdW  Elec       q    Type
REMARK                         _______ _______ _______ _____ _____    ______ ____
ROOT
ATOM      1  C   UNL     1      45.296   1.276  12.955  0.00  0.00    +0.000 A 
ATOM      2  C   UNL     1      42.622   1.054  12.063  0.00  0.00    +0.000 A 
ATOM      3  C   UNL     1      44.731   0.031  12.643  0.00  0.00    +0.000 A 
ATOM      4  C   UNL     1      44.478   2.405  12.814  0.00  0.00    +0.000 A 
ATOM      5  C   UNL     1      43.413  -0.083  12.200  0.00  0.00    +0.000 A 
ATOM      6  C   UNL     1      43.159   2.302  12.372  0.00  0.00    +0.000 A 
ENDROOT
BRANCH   2   9
ATOM      7  O   UNL     1      41.000   0.844  10.400  0.00  0.00    +0.000 OA
ATOM      8  N   UNL     1      40.242   1.085  12.577  0.00  0.00    +0.000 N 
ATOM      9  C   ACE A   0      41.213   0.984  11.598  0.00  0.00    +0.000 C 
ATOM     10  H   UNL     1      40.519   1.201  13.548  0.00  0.00    +0.000 HD
ATOM     11  CA  UNL     1      38.871   1.052  12.396  0.00  0.00    +0.000 C 
BRANCH  11  13
ATOM     12  OXT UNL     1      37.389   0.276  14.101  0.00  0.00    +0.000 OA
ATOM     13  C   UNL     1      38.056   1.184  13.629  0.00  0.00    +0.000 C 
BRANCH  13  14
ATOM     14  O   UNL     1      38.108   2.398  14.196  0.00  0.00    +0.000 OA
ATOM     15  H   UNL     1      38.391   2.237  15.120  0.00  0.00    +0.000 HD
ENDBRANCH  13  14
ENDBRANCH  11  13
BRANCH  11  16
ATOM     16  CB  UNL     1      38.278   0.905  11.115  0.00  0.00    +0.000 C 
ATOM     17  CG  UNL     1      37.649   0.752   9.725  0.00  0.00    +0.000 C 
BRANCH  17  19
ATOM     18  OE2 UNL     1      37.407   1.299   7.465  0.00  0.00    +0.000 OA
ATOM     19  CD  UNL     1      37.077   0.616   8.420  0.00  0.00    +0.000 C 
BRANCH  19  20
ATOM     20  OE1 UNL     1      36.120  -0.326   8.335  0.00  0.00    +0.000 OA
ATOM     21  HE1 UNL     1      35.323   0.130   8.669  0.00  0.00    +0.000 HD
ENDBRANCH  19  20
ENDBRANCH  17  19
ENDBRANCH  11  16
ENDBRANCH   2   9
BRANCH   1  22
ATOM     22  N   UNL     1      46.629   1.372  13.421  0.00  0.00    +0.000 N 
ATOM     23  C   UNL     1      47.493   2.468  13.019  0.00  0.00    +0.000 C 
BRANCH  22  24
ATOM     24  C   UNL     1      47.309   0.206  13.945  0.00  0.00    +0.000 C 
BRANCH  24  31
ATOM     25  N   UNL     1      47.422  -2.091  14.217  0.00  0.00    +0.000 NA
ATOM     26  N   UNL     1      49.915  -1.963  15.852  0.00  0.00    +0.000 NA
ATOM     27  N   UNL     1      49.865  -4.266  16.072  0.00  0.00    +0.000 NA
ATOM     28  N   UNL     1      48.216  -5.601  15.016  0.00  0.00    +0.000 NA
ATOM     29  N   UNL     1      46.518  -4.809  13.697  0.00  0.00    +0.000 N 
ATOM     30  N   UNL     1      49.869  -6.523  16.329  0.00  0.00    +0.000 N 
ATOM     31  C   UNL     1      47.977  -0.937  14.458  0.00  0.00    +0.000 C 
ATOM     32  C   UNL     1      49.164  -1.032  15.247  0.00  0.00    +0.000 C 
ATOM     33  C   UNL     1      48.100  -3.211  14.740  0.00  0.00    +0.000 C 
ATOM     34  C   UNL     1      49.348  -3.110  15.584  0.00  0.00    +0.000 C 
ATOM     35  C   UNL     1      47.615  -4.581  14.487  0.00  0.00    +0.000 C 
ATOM     36  C   UNL     1      49.310  -5.405  15.806  0.00  0.00    +0.000 C 
ATOM     37  H   UNL     1      46.079  -5.710  13.843  0.00  0.00    +0.000 HD
ATOM     38  H   UNL     1      45.880  -4.028  13.589  0.00  0.00    +0.000 HD
ATOM     39  H   UNL     1      49.690  -7.350  15.775  0.00  0.00    +0.000 HD
ATOM     40  H   UNL     1      50.836  -6.390  16.590  0.00  0.00    +0.000 HD
ENDBRANCH  24  31
ENDBRANCH  22  24
ENDBRANCH   1  22
TORSDOF 9
ENDMDL
MODEL 9
REMARK VINA RESULT:      -6.7     23.094     24.596
REMARK  Name = Methotrexate.pdbqt.pdb
REMARK  9 active torsions:
REMARK  status: ('A' for Active; 'I' for Inactive)
REMARK    1  A    between atoms: C_1  and  N_22
REMARK    2  A    between atoms: C_2  and  C_9
REMARK    3  A    between atoms: CA_11  and  C_13
REMARK    4  A    between atoms: CA_11  and  CB_16
REMARK    5  A    between atoms: C_13  and  O_14
REMARK    6  A    between atoms: CG_17  and  CD_19
REMARK    7  A    between atoms: CD_19  and  OE1_20
REMARK    8  A    between atoms: N_22  and  C_24
REMARK    9  A    between atoms: C_24  and  C_31
REMARK                            x       y       z     vdW  Elec       q    Type
REMARK                         _______ _______ _______ _____ _____    ______ ____
ROOT
ATOM      1  C   UNL     1      16.068   1.122  38.150  0.00  0.00    +0.000 A 
ATOM      2  C   UNL     1      17.489   3.431  37.346  0.00  0.00    +0.000 A 
ATOM      3  C   UNL     1      16.391   2.136  39.063  0.00  0.00    +0.000 A 
ATOM      4  C   UNL     1      16.486   1.297  36.823  0.00  0.00    +0.000 A 
ATOM      5  C   UNL     1      17.089   3.278  38.671  0.00  0.00    +0.000 A 
ATOM      6  C   UNL     1      17.186   2.435  36.421  0.00  0.00    +0.000 A 
ENDROOT
BRANCH   2   9
ATOM      7  O   UNL     1      18.409   5.551  37.666  0.00  0.00    +0.000 OA
ATOM      8  N   UNL     1      18.684   4.595  35.573  0.00  0.00    +0.000 N 
ATOM      9  C   ACE A   0      18.236   4.627  36.880  0.00  0.00    +0.000 C 
ATOM     10  H   UNL     1      18.490   3.781  34.996  0.00  0.00    +0.000 HD
ATOM     11  CA  UNL     1      19.394   5.581  34.912  0.00  0.00    +0.000 C 
BRANCH  11  13
ATOM     12  OXT UNL     1      18.951   4.865  32.676  0.00  0.00    +0.000 OA
ATOM     13  C   UNL     1      19.748   5.283  33.502  0.00  0.00    +0.000 C 
BRANCH  13  14
ATOM     14  O   UNL     1      21.035   5.510  33.198  0.00  0.00    +0.000 OA
ATOM     15  H   UNL     1      21.539   4.839  33.703  0.00  0.00    +0.000 HD
ENDBRANCH  13  14
ENDBRANCH  11  13
BRANCH  11  16
ATOM     16  CB  UNL     1      19.759   6.802  35.536  0.00  0.00    +0.000 C 
ATOM     17  CG  UNL     1      20.167   8.118  36.209  0.00  0.00    +0.000 C 
BRANCH  17  19
ATOM     18  OE2 UNL     1      20.217   9.670  37.957  0.00  0.00    +0.000 OA
ATOM     19  CD  UNL     1      20.566   9.342  36.835  0.00  0.00    +0.000 C 
BRANCH  19  20
ATOM     20  OE1 UNL     1      21.352  10.120  36.070  0.00  0.00    +0.000 OA
ATOM     21  HE1 UNL     1      21.856   9.475  35.534  0.00  0.00    +0.000 HD
ENDBRANCH  19  20
ENDBRANCH  17  19
ENDBRANCH  11  16
ENDBRANCH   2   9
BRANCH   1  22
ATOM     22  N   UNL     1      15.377  -0.039  38.568  0.00  0.00    +0.000 N 
ATOM     23  C   UNL     1      14.936  -0.203  39.942  0.00  0.00    +0.000 C 
BRANCH  22  24
ATOM     24  C   UNL     1      15.458  -1.260  37.793  0.00  0.00    +0.000 C 
BRANCH  24  31
ATOM     25  N   UNL     1      16.041  -3.495  37.638  0.00  0.00    +0.000 NA
ATOM     26  N   UNL     1      15.207  -3.708  34.780  0.00  0.00    +0.000 NA
ATOM     27  N   UNL     1      15.880  -5.922  34.771  0.00  0.00    +0.000 NA
ATOM     28  N   UNL     1      16.716  -6.998  36.708  0.00  0.00    +0.000 NA
ATOM     29  N   UNL     1      16.964  -6.015  38.764  0.00  0.00    +0.000 N 
ATOM     30  N   UNL     1      16.525  -8.098  34.695  0.00  0.00    +0.000 N 
ATOM     31  C   UNL     1      15.536  -2.456  37.034  0.00  0.00    +0.000 C 
ATOM     32  C   UNL     1      15.178  -2.709  35.674  0.00  0.00    +0.000 C 
ATOM     33  C   UNL     1      16.113  -4.671  36.863  0.00  0.00    +0.000 C 
ATOM     34  C   UNL     1      15.703  -4.739  35.411  0.00  0.00    +0.000 C 
ATOM     35  C   UNL     1      16.605  -5.936  37.443  0.00  0.00    +0.000 C 
ATOM     36  C   UNL     1      16.366  -6.948  35.391  0.00  0.00    +0.000 C 
ATOM     37  H   UNL     1      17.576  -6.793  38.983  0.00  0.00    +0.000 HD
ATOM     38  H   UNL     1      17.200  -5.137  39.214  0.00  0.00    +0.000 HD
ATOM     39  H   UNL     1      16.483  -8.924  35.278  0.00  0.00    +0.000 HD
ATOM     40  H   UNL     1      15.946  -8.136  33.866  0.00  0.00    +0.000 HD
ENDBRANCH  24  31
ENDBRANCH  22  24
ENDBRANCH   1  22
TORSDOF 9
ENDMDL
