MODEL 1
REMARK VINA RESULT:      -7.3      0.000      0.000
REMARK  Name = 
REMARK  21 active torsions:
REMARK  status: ('A' for Active; 'I' for Inactive)
REMARK    1  A    between atoms: O_3  and  C_27
REMARK    2  A    between atoms: O_3  and  C_28
REMARK    3  A    between atoms: N_6  and  CA_9
REMARK    4  A    between atoms: N_7  and  CA_15
REMARK    5  A    between atoms: N_8  and  CA_12
REMARK    6  A    between atoms: CA_9  and  CB_10
REMARK    7  A    between atoms: CA_9  and  C_16
REMARK    8  A    between atoms: CB_10  and  CG_11
REMARK    9  A    between atoms: CG_11  and  CD1_20
REMARK   10  A    between atoms: CG_11  and  CD2_21
REMARK   11  A    between atoms: CA_12  and  CB_13
REMARK   12  A    between atoms: CA_12  and  C_18
REMARK   13  A    between atoms: CB_13  and  CG_14
REMARK   14  A    between atoms: CG_14  and  CD1_22
REMARK   15  A    between atoms: CG_14  and  CD2_23
REMARK   16  A    between atoms: CA_15  and  CB_17
REMARK   17  A    between atoms: CA_15  and  C_26
REMARK   18  A    between atoms: CB_17  and  CG_19
REMARK   19  A    between atoms: CG_19  and  CD1_24
REMARK   20  A    between atoms: CG_19  and  CD2_25
REMARK   21  A    between atoms: C_28  and  C_29
REMARK                            x       y       z     vdW  Elec       q    Type
REMARK                         _______ _______ _______ _____ _____    ______ ____
ROOT
ATOM      1  O   UNL     1      37.604  -0.610  13.980  0.00  0.00    +0.000 OA
ATOM      2  N   UNL     1      37.797   1.512  13.166  0.00  0.00    +0.000 N 
ATOM      3  C   UNL     1      37.936   0.139  13.066  0.00  0.00    +0.000 C 
ATOM      4  H   UNL     1      37.613   1.973  12.278  0.00  0.00    +0.000 HD
ENDROOT
BRANCH   2   5
ATOM      5  CA  UNL     1      37.117   2.086  14.328  0.00  0.00    +0.000 C 
BRANCH   5   8
ATOM      6  O   UNL     1      35.372   2.480  12.703  0.00  0.00    +0.000 OA
ATOM      7  N   UNL     1      34.628   2.206  14.783  0.00  0.00    +0.000 N 
ATOM      8  C   UNL     1      35.651   2.262  13.887  0.00  0.00    +0.000 C 
ATOM      9  H   UNL     1      33.732   2.312  14.319  0.00  0.00    +0.000 HD
BRANCH   7  10
ATOM     10  CA  UNL     1      34.606   1.630  16.128  0.00  0.00    +0.000 C 
BRANCH  10  12
ATOM     11  O   UNL     1      35.127   2.480  18.350  0.00  0.00    +0.000 OA
ATOM     12  C   UNL     1      35.199   2.619  17.132  0.00  0.00    +0.000 C 
ENDBRANCH  10  12
BRANCH  10  13
ATOM     13  CB  UNL     1      35.257   0.239  16.174  0.00  0.00    +0.000 C 
BRANCH  13  14
ATOM     14  CG  UNL     1      34.564  -0.843  17.032  0.00  0.00    +0.000 C 
ATOM     15  CD1 UNL     1      33.155  -1.191  16.556  0.00  0.00    +0.000 C 
ATOM     16  CD2 UNL     1      35.426  -2.111  17.044  0.00  0.00    +0.000 C 
ENDBRANCH  13  14
ENDBRANCH  10  13
ENDBRANCH   7  10
ENDBRANCH   5   8
BRANCH   5  17
ATOM     17  CB  UNL     1      37.735   3.448  14.677  0.00  0.00    +0.000 C 
BRANCH  17  18
ATOM     18  CG  UNL     1      39.045   3.768  13.932  0.00  0.00    +0.000 C 
ATOM     19  CD1 UNL     1      38.865   4.866  12.884  0.00  0.00    +0.000 C 
ATOM     20  CD2 UNL     1      40.119   4.198  14.937  0.00  0.00    +0.000 C 
ENDBRANCH  17  18
ENDBRANCH   5  17
ENDBRANCH   2   5
BRANCH   3  21
ATOM     21  CA  UNL     1      38.458  -0.360  11.695  0.00  0.00    +0.000 C 
BRANCH  21  23
ATOM     22  O   UNL     1      37.449  -2.137   9.748  0.00  0.00    +0.000 OA
ATOM     23  N   UNL     1      37.488  -0.026  10.643  0.00  0.00    +0.000 N 
ATOM     24  C   ACE A   0      37.099  -0.968   9.729  0.00  0.00    +0.000 C 
ATOM     25  H   UNL     1      37.438   0.937  10.343  0.00  0.00    +0.000 HD
BRANCH  24  26
ATOM     26  O   UNL     1      36.363  -0.445   8.718  0.00  0.00    +0.000 OA
BRANCH  26  27
ATOM     27  C   UNL     1      36.782   0.843   8.251  0.00  0.00    +0.000 C 
BRANCH  27  28
ATOM     28  C   UNL     1      38.230   0.783   7.829  0.00  0.00    +0.000 A 
ATOM     29  C   UNL     1      39.120   1.800   8.200  0.00  0.00    +0.000 A 
ATOM     30  C   UNL     1      38.695  -0.256   7.010  0.00  0.00    +0.000 A 
ATOM     31  C   UNL     1      40.453   1.764   7.784  0.00  0.00    +0.000 A 
ATOM     32  C   UNL     1      40.027  -0.292   6.595  0.00  0.00    +0.000 A 
ATOM     33  C   UNL     1      40.906   0.718   6.982  0.00  0.00    +0.000 A 
ENDBRANCH  27  28
ENDBRANCH  26  27
ENDBRANCH  24  26
ENDBRANCH  21  23
BRANCH  21  34
ATOM     34  CB  UNL     1      39.828   0.255  11.357  0.00  0.00    +0.000 C 
BRANCH  34  35
ATOM     35  CG  UNL     1      40.985  -0.745  11.154  0.00  0.00    +0.000 C 
ATOM     36  CD1 UNL     1      40.746  -1.685   9.972  0.00  0.00    +0.000 C 
ATOM     37  CD2 UNL     1      42.293   0.025  10.939  0.00  0.00    +0.000 C 
ENDBRANCH  34  35
ENDBRANCH  21  34
ENDBRANCH   3  21
TORSDOF 15
ENDMDL
MODEL 2
REMARK VINA RESULT:      -7.1      4.465      7.892
REMARK  Name = 
REMARK  21 active torsions:
REMARK  status: ('A' for Active; 'I' for Inactive)
REMARK    1  A    between atoms: O_3  and  C_27
REMARK    2  A    between atoms: O_3  and  C_28
REMARK    3  A    between atoms: N_6  and  CA_9
REMARK    4  A    between atoms: N_7  and  CA_15
REMARK    5  A    between atoms: N_8  and  CA_12
REMARK    6  A    between atoms: CA_9  and  CB_10
REMARK    7  A    between atoms: CA_9  and  C_16
REMARK    8  A    between atoms: CB_10  and  CG_11
REMARK    9  A    between atoms: CG_11  and  CD1_20
REMARK   10  A    between atoms: CG_11  and  CD2_21
REMARK   11  A    between atoms: CA_12  and  CB_13
REMARK   12  A    between atoms: CA_12  and  C_18
REMARK   13  A    between atoms: CB_13  and  CG_14
REMARK   14  A    between atoms: CG_14  and  CD1_22
REMARK   15  A    between atoms: CG_14  and  CD2_23
REMARK   16  A    between atoms: CA_15  and  CB_17
REMARK   17  A    between atoms: CA_15  and  C_26
REMARK   18  A    between atoms: CB_17  and  CG_19
REMARK   19  A    between atoms: CG_19  and  CD1_24
REMARK   20  A    between atoms: CG_19  and  CD2_25
REMARK   21  A    between atoms: C_28  and  C_29
REMARK                            x       y       z     vdW  Elec       q    Type
REMARK                         _______ _______ _______ _____ _____    ______ ____
ROOT
ATOM      1  O   UNL     1      41.351   4.105  16.225  0.00  0.00    +0.000 OA
ATOM      2  N   UNL     1      40.433   6.119  15.670  0.00  0.00    +0.000 N 
ATOM      3  C   UNL     1      40.562   4.746  15.538  0.00  0.00    +0.000 C 
ATOM      4  H   UNL     1      39.497   6.465  15.474  0.00  0.00    +0.000 HD
ENDROOT
BRANCH   2   5
ATOM      5  CA  UNL     1      41.151   6.811  16.742  0.00  0.00    +0.000 C 
BRANCH   5   8
ATOM      6  O   UNL     1      40.422   9.052  16.207  0.00  0.00    +0.000 OA
ATOM      7  N   UNL     1      39.554   8.242  18.088  0.00  0.00    +0.000 N 
ATOM      8  C   UNL     1      40.347   8.101  16.991  0.00  0.00    +0.000 C 
ATOM      9  H   UNL     1      39.077   9.138  18.080  0.00  0.00    +0.000 HD
BRANCH   7  10
ATOM     10  CA  UNL     1      38.999   7.213  18.968  0.00  0.00    +0.000 C 
BRANCH  10  12
ATOM     11  O   UNL     1      38.289   5.097  17.991  0.00  0.00    +0.000 OA
ATOM     12  C   UNL     1      38.070   6.291  18.177  0.00  0.00    +0.000 C 
ENDBRANCH  10  12
BRANCH  10  13
ATOM     13  CB  UNL     1      38.349   7.811  20.225  0.00  0.00    +0.000 C 
BRANCH  13  14
ATOM     14  CG  UNL     1      38.636   7.116  21.574  0.00  0.00    +0.000 C 
ATOM     15  CD1 UNL     1      38.153   5.669  21.631  0.00  0.00    +0.000 C 
ATOM     16  CD2 UNL     1      40.142   7.164  21.860  0.00  0.00    +0.000 C 
ENDBRANCH  13  14
ENDBRANCH  10  13
ENDBRANCH   7  10
ENDBRANCH   5   8
BRANCH   5  17
ATOM     17  CB  UNL     1      42.576   7.152  16.282  0.00  0.00    +0.000 C 
BRANCH  17  18
ATOM     18  CG  UNL     1      43.518   7.622  17.408  0.00  0.00    +0.000 C 
ATOM     19  CD1 UNL     1      43.867   9.106  17.291  0.00  0.00    +0.000 C 
ATOM     20  CD2 UNL     1      42.867   7.360  18.769  0.00  0.00    +0.000 C 
ENDBRANCH  17  18
ENDBRANCH   5  17
ENDBRANCH   2   5
BRANCH   3  21
ATOM     21  CA  UNL     1      39.583   4.100  14.527  0.00  0.00    +0.000 C 
BRANCH  21  23
ATOM     22  O   UNL     1      37.731   1.981  14.304  0.00  0.00    +0.000 OA
ATOM     23  N   UNL     1      38.228   4.076  15.094  0.00  0.00    +0.000 N 
ATOM     24  C   ACE A   0      37.404   3.001  14.888  0.00  0.00    +0.000 C 
ATOM     25  H   UNL     1      37.773   4.963  15.257  0.00  0.00    +0.000 HD
BRANCH  24  26
ATOM     26  O   UNL     1      36.135   3.225  15.305  0.00  0.00    +0.000 OA
BRANCH  26  27
ATOM     27  C   UNL     1      35.791   2.655  16.574  0.00  0.00    +0.000 C 
BRANCH  27  28
ATOM     28  C   UNL     1      34.953   1.417  16.363  0.00  0.00    +0.000 A 
ATOM     29  C   UNL     1      34.110   1.311  15.248  0.00  0.00    +0.000 A 
ATOM     30  C   UNL     1      34.959   0.379  17.306  0.00  0.00    +0.000 A 
ATOM     31  C   UNL     1      33.310   0.181  15.068  0.00  0.00    +0.000 A 
ATOM     32  C   UNL     1      34.159  -0.750  17.126  0.00  0.00    +0.000 A 
ATOM     33  C   UNL     1      33.335  -0.849  16.006  0.00  0.00    +0.000 A 
ENDBRANCH  27  28
ENDBRANCH  26  27
ENDBRANCH  24  26
ENDBRANCH  21  23
BRANCH  21  34
ATOM     34  CB  UNL     1      39.574   4.858  13.188  0.00  0.00    +0.000 C 
BRANCH  34  35
ATOM     35  CG  UNL     1      39.773   3.997  11.923  0.00  0.00    +0.000 C 
ATOM     36  CD1 UNL     1      40.486   2.677  12.220  0.00  0.00    +0.000 C 
ATOM     37  CD2 UNL     1      38.411   3.710  11.281  0.00  0.00    +0.000 C 
ENDBRANCH  34  35
ENDBRANCH  21  34
ENDBRANCH   3  21
TORSDOF 15
ENDMDL
MODEL 3
REMARK VINA RESULT:      -6.5     19.331     22.416
REMARK  Name = 
REMARK  21 active torsions:
REMARK  status: ('A' for Active; 'I' for Inactive)
REMARK    1  A    between atoms: O_3  and  C_27
REMARK    2  A    between atoms: O_3  and  C_28
REMARK    3  A    between atoms: N_6  and  CA_9
REMARK    4  A    between atoms: N_7  and  CA_15
REMARK    5  A    between atoms: N_8  and  CA_12
REMARK    6  A    between atoms: CA_9  and  CB_10
REMARK    7  A    between atoms: CA_9  and  C_16
REMARK    8  A    between atoms: CB_10  and  CG_11
REMARK    9  A    between atoms: CG_11  and  CD1_20
REMARK   10  A    between atoms: CG_11  and  CD2_21
REMARK   11  A    between atoms: CA_12  and  CB_13
REMARK   12  A    between atoms: CA_12  and  C_18
REMARK   13  A    between atoms: CB_13  and  CG_14
REMARK   14  A    between atoms: CG_14  and  CD1_22
REMARK   15  A    between atoms: CG_14  and  CD2_23
REMARK   16  A    between atoms: CA_15  and  CB_17
REMARK   17  A    between atoms: CA_15  and  C_26
REMARK   18  A    between atoms: CB_17  and  CG_19
REMARK   19  A    between atoms: CG_19  and  CD1_24
REMARK   20  A    between atoms: CG_19  and  CD2_25
REMARK   21  A    between atoms: C_28  and  C_29
REMARK                            x       y       z     vdW  Elec       q    Type
REMARK                         _______ _______ _______ _____ _____    ______ ____
ROOT
ATOM      1  O   UNL     1      14.992   0.742  15.100  0.00  0.00    +0.000 OA
ATOM      2  N   UNL     1      16.141   2.654  14.622  0.00  0.00    +0.000 N 
ATOM      3  C   UNL     1      15.664   1.691  15.495  0.00  0.00    +0.000 C 
ATOM      4  H   UNL     1      17.028   3.064  14.907  0.00  0.00    +0.000 HD
ENDROOT
BRANCH   2   5
ATOM      5  CA  UNL     1      15.960   2.477  13.181  0.00  0.00    +0.000 C 
BRANCH   5   8
ATOM      6  O   UNL     1      18.062   3.558  12.681  0.00  0.00    +0.000 OA
ATOM      7  N   UNL     1      17.921   1.466  11.936  0.00  0.00    +0.000 N 
ATOM      8  C   UNL     1      17.382   2.531  12.591  0.00  0.00    +0.000 C 
ATOM      9  H   UNL     1      18.871   1.664  11.640  0.00  0.00    +0.000 HD
BRANCH   7  10
ATOM     10  CA  UNL     1      17.527   0.058  11.979  0.00  0.00    +0.000 C 
BRANCH  10  12
ATOM     11  O   UNL     1      19.027  -0.599  13.782  0.00  0.00    +0.000 OA
ATOM     12  C   UNL     1      17.884  -0.546  13.337  0.00  0.00    +0.000 C 
ENDBRANCH  10  12
BRANCH  10  13
ATOM     13  CB  UNL     1      18.080  -0.737  10.786  0.00  0.00    +0.000 C 
BRANCH  13  14
ATOM     14  CG  UNL     1      17.074  -1.556   9.948  0.00  0.00    +0.000 C 
ATOM     15  CD1 UNL     1      16.995  -3.027  10.353  0.00  0.00    +0.000 C 
ATOM     16  CD2 UNL     1      15.684  -0.921  10.059  0.00  0.00    +0.000 C 
ENDBRANCH  13  14
ENDBRANCH  10  13
ENDBRANCH   7  10
ENDBRANCH   5   8
BRANCH   5  17
ATOM     17  CB  UNL     1      15.104   3.619  12.615  0.00  0.00    +0.000 C 
BRANCH  17  18
ATOM     18  CG  UNL     1      13.703   3.194  12.133  0.00  0.00    +0.000 C 
ATOM     19  CD1 UNL     1      13.621   1.697  11.836  0.00  0.00    +0.000 C 
ATOM     20  CD2 UNL     1      12.660   3.559  13.194  0.00  0.00    +0.000 C 
ENDBRANCH  17  18
ENDBRANCH   5  17
ENDBRANCH   2   5
BRANCH   3  21
ATOM     21  CA  UNL     1      16.115   1.870  16.965  0.00  0.00    +0.000 C 
BRANCH  21  23
ATOM     22  O   UNL     1      18.037   2.468  18.945  0.00  0.00    +0.000 OA
ATOM     23  N   UNL     1      16.832   3.143  17.114  0.00  0.00    +0.000 N 
ATOM     24  C   ACE A   0      17.720   3.329  18.140  0.00  0.00    +0.000 C 
ATOM     25  H   UNL     1      16.388   3.975  16.750  0.00  0.00    +0.000 HD
BRANCH  24  26
ATOM     26  O   UNL     1      18.136   4.614  18.247  0.00  0.00    +0.000 OA
BRANCH  26  27
ATOM     27  C   UNL     1      19.083   4.871  19.291  0.00  0.00    +0.000 C 
BRANCH  27  28
ATOM     28  C   UNL     1      19.606   6.282  19.166  0.00  0.00    +0.000 A 
ATOM     29  C   UNL     1      20.259   6.696  17.997  0.00  0.00    +0.000 A 
ATOM     30  C   UNL     1      19.500   7.183  20.235  0.00  0.00    +0.000 A 
ATOM     31  C   UNL     1      20.772   7.990  17.891  0.00  0.00    +0.000 A 
ATOM     32  C   UNL     1      20.013   8.476  20.129  0.00  0.00    +0.000 A 
ATOM     33  C   UNL     1      20.648   8.880  18.956  0.00  0.00    +0.000 A 
ENDBRANCH  27  28
ENDBRANCH  26  27
ENDBRANCH  24  26
ENDBRANCH  21  23
BRANCH  21  34
ATOM     34  CB  UNL     1      14.917   1.830  17.931  0.00  0.00    +0.000 C 
BRANCH  34  35
ATOM     35  CG  UNL     1      14.936   0.702  18.985  0.00  0.00    +0.000 C 
ATOM     36  CD1 UNL     1      13.908   0.923  20.095  0.00  0.00    +0.000 C 
ATOM     37  CD2 UNL     1      14.670  -0.642  18.299  0.00  0.00    +0.000 C 
ENDBRANCH  34  35
ENDBRANCH  21  34
ENDBRANCH   3  21
TORSDOF 15
ENDMDL
MODEL 4
REMARK VINA RESULT:      -6.4      4.045      9.323
REMARK  Name = 
REMARK  21 active torsions:
REMARK  status: ('A' for Active; 'I' for Inactive)
REMARK    1  A    between atoms: O_3  and  C_27
REMARK    2  A    between atoms: O_3  and  C_28
REMARK    3  A    between atoms: N_6  and  CA_9
REMARK    4  A    between atoms: N_7  and  CA_15
REMARK    5  A    between atoms: N_8  and  CA_12
REMARK    6  A    between atoms: CA_9  and  CB_10
REMARK    7  A    between atoms: CA_9  and  C_16
REMARK    8  A    between atoms: CB_10  and  CG_11
REMARK    9  A    between atoms: CG_11  and  CD1_20
REMARK   10  A    between atoms: CG_11  and  CD2_21
REMARK   11  A    between atoms: CA_12  and  CB_13
REMARK   12  A    between atoms: CA_12  and  C_18
REMARK   13  A    between atoms: CB_13  and  CG_14
REMARK   14  A    between atoms: CG_14  and  CD1_22
REMARK   15  A    between atoms: CG_14  and  CD2_23
REMARK   16  A    between atoms: CA_15  and  CB_17
REMARK   17  A    between atoms: CA_15  and  C_26
REMARK   18  A    between atoms: CB_17  and  CG_19
REMARK   19  A    between atoms: CG_19  and  CD1_24
REMARK   20  A    between atoms: CG_19  and  CD2_25
REMARK   21  A    between atoms: C_28  and  C_29
REMARK                            x       y       z     vdW  Elec       q    Type
REMARK                         _______ _______ _______ _____ _____    ______ ____
ROOT
ATOM      1  O   UNL     1      40.586   2.360  13.875  0.00  0.00    +0.000 OA
ATOM      2  N   UNL     1      38.788   3.607  13.229  0.00  0.00    +0.000 N 
ATOM      3  C   UNL     1      39.964   3.417  13.934  0.00  0.00    +0.000 C 
ATOM      4  H   UNL     1      38.633   4.570  12.938  0.00  0.00    +0.000 HD
ENDROOT
BRANCH   2   5
ATOM      5  CA  UNL     1      38.337   2.582  12.286  0.00  0.00    +0.000 C 
BRANCH   5   8
ATOM      6  O   UNL     1      38.931   4.303  10.697  0.00  0.00    +0.000 OA
ATOM      7  N   UNL     1      38.975   2.242   9.859  0.00  0.00    +0.000 N 
ATOM      8  C   UNL     1      38.773   3.095  10.901  0.00  0.00    +0.000 C 
ATOM      9  H   UNL     1      39.286   2.744   9.034  0.00  0.00    +0.000 HD
BRANCH   7  10
ATOM     10  CA  UNL     1      39.212   0.799   9.878  0.00  0.00    +0.000 C 
BRANCH  10  12
ATOM     11  O   UNL     1      41.369  -0.327   9.988  0.00  0.00    +0.000 OA
ATOM     12  C   UNL     1      40.593   0.501  10.460  0.00  0.00    +0.000 C 
ENDBRANCH  10  12
BRANCH  10  13
ATOM     13  CB  UNL     1      38.968   0.153   8.505  0.00  0.00    +0.000 C 
BRANCH  13  14
ATOM     14  CG  UNL     1      37.627  -0.584   8.292  0.00  0.00    +0.000 C 
ATOM     15  CD1 UNL     1      37.183  -1.406   9.500  0.00  0.00    +0.000 C 
ATOM     16  CD2 UNL     1      36.538   0.437   7.941  0.00  0.00    +0.000 C 
ENDBRANCH  13  14
ENDBRANCH  10  13
ENDBRANCH   7  10
ENDBRANCH   5   8
BRANCH   5  17
ATOM     17  CB  UNL     1      36.808   2.450  12.348  0.00  0.00    +0.000 C 
BRANCH  17  18
ATOM     18  CG  UNL     1      36.301   1.059  12.777  0.00  0.00    +0.000 C 
ATOM     19  CD1 UNL     1      37.440   0.130  13.198  0.00  0.00    +0.000 C 
ATOM     20  CD2 UNL     1      35.311   1.206  13.937  0.00  0.00    +0.000 C 
ENDBRANCH  17  18
ENDBRANCH   5  17
ENDBRANCH   2   5
BRANCH   3  21
ATOM     21  CA  UNL     1      40.456   4.658  14.718  0.00  0.00    +0.000 C 
BRANCH  21  23
ATOM     22  O   UNL     1      39.881   7.120  15.974  0.00  0.00    +0.000 OA
ATOM     23  N   UNL     1      39.640   4.839  15.925  0.00  0.00    +0.000 N 
ATOM     24  C   ACE A   0      39.460   6.085  16.466  0.00  0.00    +0.000 C 
ATOM     25  H   UNL     1      39.572   4.060  16.565  0.00  0.00    +0.000 HD
BRANCH  24  26
ATOM     26  O   UNL     1      38.854   6.048  17.677  0.00  0.00    +0.000 OA
BRANCH  26  27
ATOM     27  C   UNL     1      38.584   7.324  18.271  0.00  0.00    +0.000 C 
BRANCH  27  28
ATOM     28  C   UNL     1      39.386   7.473  19.541  0.00  0.00    +0.000 A 
ATOM     29  C   UNL     1      40.771   7.678  19.486  0.00  0.00    +0.000 A 
ATOM     30  C   UNL     1      38.771   7.349  20.796  0.00  0.00    +0.000 A 
ATOM     31  C   UNL     1      41.520   7.784  20.660  0.00  0.00    +0.000 A 
ATOM     32  C   UNL     1      39.520   7.454  21.969  0.00  0.00    +0.000 A 
ATOM     33  C   UNL     1      40.895   7.673  21.900  0.00  0.00    +0.000 A 
ENDBRANCH  27  28
ENDBRANCH  26  27
ENDBRANCH  24  26
ENDBRANCH  21  23
BRANCH  21  34
ATOM     34  CB  UNL     1      41.940   4.528  15.106  0.00  0.00    +0.000 C 
BRANCH  34  35
ATOM     35  CG  UNL     1      42.951   5.190  14.146  0.00  0.00    +0.000 C 
ATOM     36  CD1 UNL     1      43.633   6.410  14.766  0.00  0.00    +0.000 C 
ATOM     37  CD2 UNL     1      44.011   4.164  13.733  0.00  0.00    +0.000 C 
ENDBRANCH  34  35
ENDBRANCH  21  34
ENDBRANCH   3  21
TORSDOF 15
ENDMDL
MODEL 5
REMARK VINA RESULT:      -6.4     18.553     22.675
REMARK  Name = 
REMARK  21 active torsions:
REMARK  status: ('A' for Active; 'I' for Inactive)
REMARK    1  A    between atoms: O_3  and  C_27
REMARK    2  A    between atoms: O_3  and  C_28
REMARK    3  A    between atoms: N_6  and  CA_9
REMARK    4  A    between atoms: N_7  and  CA_15
REMARK    5  A    between atoms: N_8  and  CA_12
REMARK    6  A    between atoms: CA_9  and  CB_10
REMARK    7  A    between atoms: CA_9  and  C_16
REMARK    8  A    between atoms: CB_10  and  CG_11
REMARK    9  A    between atoms: CG_11  and  CD1_20
REMARK   10  A    between atoms: CG_11  and  CD2_21
REMARK   11  A    between atoms: CA_12  and  CB_13
REMARK   12  A    between atoms: CA_12  and  C_18
REMARK   13  A    between atoms: CB_13  and  CG_14
REMARK   14  A    between atoms: CG_14  and  CD1_22
REMARK   15  A    between atoms: CG_14  and  CD2_23
REMARK   16  A    between atoms: CA_15  and  CB_17
REMARK   17  A    between atoms: CA_15  and  C_26
REMARK   18  A    between atoms: CB_17  and  CG_19
REMARK   19  A    between atoms: CG_19  and  CD1_24
REMARK   20  A    between atoms: CG_19  and  CD2_25
REMARK   21  A    between atoms: C_28  and  C_29
REMARK                            x       y       z     vdW  Elec       q    Type
REMARK                         _______ _______ _______ _____ _____    ______ ____
ROOT
ATOM      1  O   UNL     1      18.128  10.555  18.586  0.00  0.00    +0.000 OA
ATOM      2  N   UNL     1      17.550   9.496  20.522  0.00  0.00    +0.000 N 
ATOM      3  C   UNL     1      18.294   9.618  19.361  0.00  0.00    +0.000 C 
ATOM      4  H   UNL     1      18.050   9.046  21.285  0.00  0.00    +0.000 HD
ENDROOT
BRANCH   2   5
ATOM      5  CA  UNL     1      16.639  10.573  20.912  0.00  0.00    +0.000 C 
BRANCH   5   8
ATOM      6  O   UNL     1      16.472  10.296  23.307  0.00  0.00    +0.000 OA
ATOM      7  N   UNL     1      17.913  11.871  22.676  0.00  0.00    +0.000 N 
ATOM      8  C   UNL     1      17.008  10.899  22.372  0.00  0.00    +0.000 C 
ATOM      9  H   UNL     1      18.058  11.931  23.678  0.00  0.00    +0.000 HD
BRANCH   7  10
ATOM     10  CA  UNL     1      18.936  12.480  21.827  0.00  0.00    +0.000 C 
BRANCH  10  12
ATOM     11  O   UNL     1      20.475  10.821  22.729  0.00  0.00    +0.000 OA
ATOM     12  C   UNL     1      20.309  11.896  22.158  0.00  0.00    +0.000 C 
ENDBRANCH  10  12
BRANCH  10  13
ATOM     13  CB  UNL     1      18.892  14.016  21.875  0.00  0.00    +0.000 C 
BRANCH  13  14
ATOM     14  CG  UNL     1      19.090  14.775  20.545  0.00  0.00    +0.000 C 
ATOM     15  CD1 UNL     1      20.556  15.021  20.193  0.00  0.00    +0.000 C 
ATOM     16  CD2 UNL     1      18.417  13.996  19.409  0.00  0.00    +0.000 C 
ENDBRANCH  13  14
ENDBRANCH  10  13
ENDBRANCH   7  10
ENDBRANCH   5   8
BRANCH   5  17
ATOM     17  CB  UNL     1      15.185  10.086  20.827  0.00  0.00    +0.000 C 
BRANCH  17  18
ATOM     18  CG  UNL     1      14.432  10.533  19.558  0.00  0.00    +0.000 C 
ATOM     19  CD1 UNL     1      14.914  11.891  19.045  0.00  0.00    +0.000 C 
ATOM     20  CD2 UNL     1      14.608   9.483  18.457  0.00  0.00    +0.000 C 
ENDBRANCH  17  18
ENDBRANCH   5  17
ENDBRANCH   2   5
BRANCH   3  21
ATOM     21  CA  UNL     1      19.384   8.534  19.175  0.00  0.00    +0.000 C 
BRANCH  21  23
ATOM     22  O   UNL     1      21.057   7.629  17.088  0.00  0.00    +0.000 OA
ATOM     23  N   UNL     1      20.640   9.162  18.743  0.00  0.00    +0.000 N 
ATOM     24  C   ACE A   0      21.388   8.609  17.737  0.00  0.00    +0.000 C 
ATOM     25  H   UNL     1      21.143   9.717  19.421  0.00  0.00    +0.000 HD
BRANCH  24  26
ATOM     26  O   UNL     1      22.601   9.195  17.602  0.00  0.00    +0.000 OA
BRANCH  26  27
ATOM     27  C   UNL     1      22.837   9.848  16.349  0.00  0.00    +0.000 C 
BRANCH  27  28
ATOM     28  C   UNL     1      22.020  11.115  16.275  0.00  0.00    +0.000 A 
ATOM     29  C   UNL     1      21.128  11.324  15.214  0.00  0.00    +0.000 A 
ATOM     30  C   UNL     1      22.183  12.129  17.230  0.00  0.00    +0.000 A 
ATOM     31  C   UNL     1      20.395  12.510  15.126  0.00  0.00    +0.000 A 
ATOM     32  C   UNL     1      21.450  13.313  17.142  0.00  0.00    +0.000 A 
ATOM     33  C   UNL     1      20.556  13.503  16.090  0.00  0.00    +0.000 A 
ENDBRANCH  27  28
ENDBRANCH  26  27
ENDBRANCH  24  26
ENDBRANCH  21  23
BRANCH  21  34
ATOM     34  CB  UNL     1      19.618   7.741  20.473  0.00  0.00    +0.000 C 
BRANCH  34  35
ATOM     35  CG  UNL     1      19.153   6.270  20.459  0.00  0.00    +0.000 C 
ATOM     36  CD1 UNL     1      17.970   6.021  21.396  0.00  0.00    +0.000 C 
ATOM     37  CD2 UNL     1      18.768   5.869  19.031  0.00  0.00    +0.000 C 
ENDBRANCH  34  35
ENDBRANCH  21  34
ENDBRANCH   3  21
TORSDOF 15
ENDMDL
MODEL 6
REMARK VINA RESULT:      -6.4     19.580     23.375
REMARK  Name = 
REMARK  21 active torsions:
REMARK  status: ('A' for Active; 'I' for Inactive)
REMARK    1  A    between atoms: O_3  and  C_27
REMARK    2  A    between atoms: O_3  and  C_28
REMARK    3  A    between atoms: N_6  and  CA_9
REMARK    4  A    between atoms: N_7  and  CA_15
REMARK    5  A    between atoms: N_8  and  CA_12
REMARK    6  A    between atoms: CA_9  and  CB_10
REMARK    7  A    between atoms: CA_9  and  C_16
REMARK    8  A    between atoms: CB_10  and  CG_11
REMARK    9  A    between atoms: CG_11  and  CD1_20
REMARK   10  A    between atoms: CG_11  and  CD2_21
REMARK   11  A    between atoms: CA_12  and  CB_13
REMARK   12  A    between atoms: CA_12  and  C_18
REMARK   13  A    between atoms: CB_13  and  CG_14
REMARK   14  A    between atoms: CG_14  and  CD1_22
REMARK   15  A    between atoms: CG_14  and  CD2_23
REMARK   16  A    between atoms: CA_15  and  CB_17
REMARK   17  A    between atoms: CA_15  and  C_26
REMARK   18  A    between atoms: CB_17  and  CG_19
REMARK   19  A    between atoms: CG_19  and  CD1_24
REMARK   20  A    between atoms: CG_19  and  CD2_25
REMARK   21  A    between atoms: C_28  and  C_29
REMARK                            x       y       z     vdW  Elec       q    Type
REMARK                         _______ _______ _______ _____ _____    ______ ____
ROOT
ATOM      1  O   UNL     1      18.153  10.709  22.291  0.00  0.00    +0.000 OA
ATOM      2  N   UNL     1      17.948   9.698  20.256  0.00  0.00    +0.000 N 
ATOM      3  C   UNL     1      17.485  10.029  21.518  0.00  0.00    +0.000 C 
ATOM      4  H   UNL     1      17.212   9.600  19.560  0.00  0.00    +0.000 HD
ENDROOT
BRANCH   2   5
ATOM      5  CA  UNL     1      19.202  10.277  19.772  0.00  0.00    +0.000 C 
BRANCH   5   8
ATOM      6  O   UNL     1      17.682  10.921  18.007  0.00  0.00    +0.000 OA
ATOM      7  N   UNL     1      19.784  11.573  17.675  0.00  0.00    +0.000 N 
ATOM      8  C   UNL     1      18.841  10.950  18.435  0.00  0.00    +0.000 C 
ATOM      9  H   UNL     1      19.369  11.985  16.846  0.00  0.00    +0.000 HD
BRANCH   7  10
ATOM     10  CA  UNL     1      21.105  12.068  18.063  0.00  0.00    +0.000 C 
BRANCH  10  12
ATOM     11  O   UNL     1      20.849  13.244  20.182  0.00  0.00    +0.000 OA
ATOM     12  C   UNL     1      20.962  13.298  18.960  0.00  0.00    +0.000 C 
ENDBRANCH  10  12
BRANCH  10  13
ATOM     13  CB  UNL     1      22.020  12.293  16.849  0.00  0.00    +0.000 C 
BRANCH  13  14
ATOM     14  CG  UNL     1      22.692  11.050  16.225  0.00  0.00    +0.000 C 
ATOM     15  CD1 UNL     1      22.693   9.829  17.142  0.00  0.00    +0.000 C 
ATOM     16  CD2 UNL     1      21.987  10.699  14.909  0.00  0.00    +0.000 C 
ENDBRANCH  13  14
ENDBRANCH  10  13
ENDBRANCH   7  10
ENDBRANCH   5   8
BRANCH   5  17
ATOM     17  CB  UNL     1      20.239   9.168  19.548  0.00  0.00    +0.000 C 
BRANCH  17  18
ATOM     18  CG  UNL     1      19.640   7.784  19.228  0.00  0.00    +0.000 C 
ATOM     19  CD1 UNL     1      20.406   7.061  18.120  0.00  0.00    +0.000 C 
ATOM     20  CD2 UNL     1      19.640   6.918  20.492  0.00  0.00    +0.000 C 
ENDBRANCH  17  18
ENDBRANCH   5  17
ENDBRANCH   2   5
BRANCH   3  21
ATOM     21  CA  UNL     1      16.046   9.545  21.826  0.00  0.00    +0.000 C 
BRANCH  21  23
ATOM     22  O   UNL     1      15.196   8.445  19.369  0.00  0.00    +0.000 OA
ATOM     23  N   UNL     1      15.927   8.114  21.518  0.00  0.00    +0.000 N 
ATOM     24  C   ACE A   0      15.466   7.699  20.296  0.00  0.00    +0.000 C 
ATOM     25  H   UNL     1      15.779   7.480  22.290  0.00  0.00    +0.000 HD
BRANCH  24  26
ATOM     26  O   UNL     1      15.230   6.366  20.250  0.00  0.00    +0.000 OA
BRANCH  26  27
ATOM     27  C   UNL     1      15.670   5.701  19.059  0.00  0.00    +0.000 C 
BRANCH  27  28
ATOM     28  C   UNL     1      16.870   4.842  19.371  0.00  0.00    +0.000 A 
ATOM     29  C   UNL     1      17.760   4.468  18.354  0.00  0.00    +0.000 A 
ATOM     30  C   UNL     1      17.085   4.354  20.669  0.00  0.00    +0.000 A 
ATOM     31  C   UNL     1      18.854   3.646  18.635  0.00  0.00    +0.000 A 
ATOM     32  C   UNL     1      18.178   3.533  20.948  0.00  0.00    +0.000 A 
ATOM     33  C   UNL     1      19.063   3.180  19.931  0.00  0.00    +0.000 A 
ENDBRANCH  27  28
ENDBRANCH  26  27
ENDBRANCH  24  26
ENDBRANCH  21  23
BRANCH  21  34
ATOM     34  CB  UNL     1      15.671   9.795  23.298  0.00  0.00    +0.000 C 
BRANCH  34  35
ATOM     35  CG  UNL     1      14.186  10.114  23.572  0.00  0.00    +0.000 C 
ATOM     36  CD1 UNL     1      13.446  10.577  22.317  0.00  0.00    +0.000 C 
ATOM     37  CD2 UNL     1      13.495   8.872  24.145  0.00  0.00    +0.000 C 
ENDBRANCH  34  35
ENDBRANCH  21  34
ENDBRANCH   3  21
TORSDOF 15
ENDMDL
MODEL 7
REMARK VINA RESULT:      -6.3     12.319     14.868
REMARK  Name = 
REMARK  21 active torsions:
REMARK  status: ('A' for Active; 'I' for Inactive)
REMARK    1  A    between atoms: O_3  and  C_27
REMARK    2  A    between atoms: O_3  and  C_28
REMARK    3  A    between atoms: N_6  and  CA_9
REMARK    4  A    between atoms: N_7  and  CA_15
REMARK    5  A    between atoms: N_8  and  CA_12
REMARK    6  A    between atoms: CA_9  and  CB_10
REMARK    7  A    between atoms: CA_9  and  C_16
REMARK    8  A    between atoms: CB_10  and  CG_11
REMARK    9  A    between atoms: CG_11  and  CD1_20
REMARK   10  A    between atoms: CG_11  and  CD2_21
REMARK   11  A    between atoms: CA_12  and  CB_13
REMARK   12  A    between atoms: CA_12  and  C_18
REMARK   13  A    between atoms: CB_13  and  CG_14
REMARK   14  A    between atoms: CG_14  and  CD1_22
REMARK   15  A    between atoms: CG_14  and  CD2_23
REMARK   16  A    between atoms: CA_15  and  CB_17
REMARK   17  A    between atoms: CA_15  and  C_26
REMARK   18  A    between atoms: CB_17  and  CG_19
REMARK   19  A    between atoms: CG_19  and  CD1_24
REMARK   20  A    between atoms: CG_19  and  CD2_25
REMARK   21  A    between atoms: C_28  and  C_29
REMARK                            x       y       z     vdW  Elec       q    Type
REMARK                         _______ _______ _______ _____ _____    ______ ____
ROOT
ATOM      1  O   UNL     1      23.500   2.548   4.920  0.00  0.00    +0.000 OA
ATOM      2  N   UNL     1      25.028   0.857   5.007  0.00  0.00    +0.000 N 
ATOM      3  C   UNL     1      24.671   2.186   4.855  0.00  0.00    +0.000 C 
ATOM      4  H   UNL     1      25.946   0.723   5.426  0.00  0.00    +0.000 HD
ENDROOT
BRANCH   2   5
ATOM      5  CA  UNL     1      24.012  -0.126   5.385  0.00  0.00    +0.000 C 
BRANCH   5   8
ATOM      6  O   UNL     1      25.766  -0.918   6.846  0.00  0.00    +0.000 OA
ATOM      7  N   UNL     1      23.712  -1.256   7.631  0.00  0.00    +0.000 N 
ATOM      8  C   UNL     1      24.551  -0.784   6.669  0.00  0.00    +0.000 C 
ATOM      9  H   UNL     1      24.233  -1.629   8.418  0.00  0.00    +0.000 HD
BRANCH   7  10
ATOM     10  CA  UNL     1      22.305  -0.935   7.871  0.00  0.00    +0.000 C 
BRANCH  10  12
ATOM     11  O   UNL     1      22.547  -0.587  10.270  0.00  0.00    +0.000 OA
ATOM     12  C   UNL     1      22.158  -0.166   9.183  0.00  0.00    +0.000 C 
ENDBRANCH  10  12
BRANCH  10  13
ATOM     13  CB  UNL     1      21.402  -2.175   7.779  0.00  0.00    +0.000 C 
BRANCH  13  14
ATOM     14  CG  UNL     1      20.369  -2.221   6.631  0.00  0.00    +0.000 C 
ATOM     15  CD1 UNL     1      20.915  -2.828   5.340  0.00  0.00    +0.000 C 
ATOM     16  CD2 UNL     1      19.138  -3.013   7.086  0.00  0.00    +0.000 C 
ENDBRANCH  13  14
ENDBRANCH  10  13
ENDBRANCH   7  10
ENDBRANCH   5   8
BRANCH   5  17
ATOM     17  CB  UNL     1      23.857  -1.174   4.273  0.00  0.00    +0.000 C 
BRANCH  17  18
ATOM     18  CG  UNL     1      23.309  -0.623   2.943  0.00  0.00    +0.000 C 
ATOM     19  CD1 UNL     1      23.296  -1.679   1.837  0.00  0.00    +0.000 C 
ATOM     20  CD2 UNL     1      21.888  -0.090   3.152  0.00  0.00    +0.000 C 
ENDBRANCH  17  18
ENDBRANCH   5  17
ENDBRANCH   2   5
BRANCH   3  21
ATOM     21  CA  UNL     1      25.862   3.160   4.686  0.00  0.00    +0.000 C 
BRANCH  21  23
ATOM     22  O   UNL     1      28.374   2.186   5.528  0.00  0.00    +0.000 OA
ATOM     23  N   UNL     1      26.884   2.551   3.824  0.00  0.00    +0.000 N 
ATOM     24  C   ACE A   0      28.085   2.147   4.343  0.00  0.00    +0.000 C 
ATOM     25  H   UNL     1      26.882   2.805   2.846  0.00  0.00    +0.000 HD
BRANCH  24  26
ATOM     26  O   UNL     1      28.978   1.796   3.387  0.00  0.00    +0.000 OA
BRANCH  26  27
ATOM     27  C   UNL     1      30.332   2.200   3.628  0.00  0.00    +0.000 C 
BRANCH  27  28
ATOM     28  C   UNL     1      31.184   0.985   3.898  0.00  0.00    +0.000 A 
ATOM     29  C   UNL     1      32.467   1.124   4.446  0.00  0.00    +0.000 A 
ATOM     30  C   UNL     1      30.733  -0.298   3.553  0.00  0.00    +0.000 A 
ATOM     31  C   UNL     1      33.270   0.003   4.667  0.00  0.00    +0.000 A 
ATOM     32  C   UNL     1      31.536  -1.418   3.774  0.00  0.00    +0.000 A 
ATOM     33  C   UNL     1      32.804  -1.267   4.332  0.00  0.00    +0.000 A 
ENDBRANCH  27  28
ENDBRANCH  26  27
ENDBRANCH  24  26
ENDBRANCH  21  23
BRANCH  21  34
ATOM     34  CB  UNL     1      25.410   4.505   4.089  0.00  0.00    +0.000 C 
BRANCH  34  35
ATOM     35  CG  UNL     1      26.053   5.767   4.700  0.00  0.00    +0.000 C 
ATOM     36  CD1 UNL     1      27.106   6.390   3.782  0.00  0.00    +0.000 C 
ATOM     37  CD2 UNL     1      24.963   6.800   5.004  0.00  0.00    +0.000 C 
ENDBRANCH  34  35
ENDBRANCH  21  34
ENDBRANCH   3  21
TORSDOF 15
ENDMDL
MODEL 8
REMARK VINA RESULT:      -6.3     18.546     22.250
REMARK  Name = 
REMARK  21 active torsions:
REMARK  status: ('A' for Active; 'I' for Inactive)
REMARK    1  A    between atoms: O_3  and  C_27
REMARK    2  A    between atoms: O_3  and  C_28
REMARK    3  A    between atoms: N_6  and  CA_9
REMARK    4  A    between atoms: N_7  and  CA_15
REMARK    5  A    between atoms: N_8  and  CA_12
REMARK    6  A    between atoms: CA_9  and  CB_10
REMARK    7  A    between atoms: CA_9  and  C_16
REMARK    8  A    between atoms: CB_10  and  CG_11
REMARK    9  A    between atoms: CG_11  and  CD1_20
REMARK   10  A    between atoms: CG_11  and  CD2_21
REMARK   11  A    between atoms: CA_12  and  CB_13
REMARK   12  A    between atoms: CA_12  and  C_18
REMARK   13  A    between atoms: CB_13  and  CG_14
REMARK   14  A    between atoms: CG_14  and  CD1_22
REMARK   15  A    between atoms: CG_14  and  CD2_23
REMARK   16  A    between atoms: CA_15  and  CB_17
REMARK   17  A    between atoms: CA_15  and  C_26
REMARK   18  A    between atoms: CB_17  and  CG_19
REMARK   19  A    between atoms: CG_19  and  CD1_24
REMARK   20  A    between atoms: CG_19  and  CD2_25
REMARK   21  A    between atoms: C_28  and  C_29
REMARK                            x       y       z     vdW  Elec       q    Type
REMARK                         _______ _______ _______ _____ _____    ______ ____
ROOT
ATOM      1  O   UNL     1      17.724  -0.185  16.081  0.00  0.00    +0.000 OA
ATOM      2  N   UNL     1      15.559  -0.067  15.372  0.00  0.00    +0.000 N 
ATOM      3  C   UNL     1      16.594   0.271  16.227  0.00  0.00    +0.000 C 
ATOM      4  H   UNL     1      14.871   0.672  15.246  0.00  0.00    +0.000 HD
ENDROOT
BRANCH   2   5
ATOM      5  CA  UNL     1      15.838  -0.878  14.185  0.00  0.00    +0.000 C 
BRANCH   5   8
ATOM      6  O   UNL     1      14.008  -0.199  12.761  0.00  0.00    +0.000 OA
ATOM      7  N   UNL     1      15.966   0.702  12.210  0.00  0.00    +0.000 N 
ATOM      8  C   UNL     1      15.213  -0.098  13.013  0.00  0.00    +0.000 C 
ATOM      9  H   UNL     1      15.392   1.160  11.511  0.00  0.00    +0.000 HD
BRANCH   7  10
ATOM     10  CA  UNL     1      17.285   1.284  12.460  0.00  0.00    +0.000 C 
BRANCH  10  12
ATOM     11  O   UNL     1      18.121   3.564  12.653  0.00  0.00    +0.000 OA
ATOM     12  C   UNL     1      17.229   2.802  12.289  0.00  0.00    +0.000 C 
ENDBRANCH  10  12
BRANCH  10  13
ATOM     13  CB  UNL     1      18.385   0.610  11.625  0.00  0.00    +0.000 C 
BRANCH  13  14
ATOM     14  CG  UNL     1      18.794  -0.828  12.015  0.00  0.00    +0.000 C 
ATOM     15  CD1 UNL     1      18.316  -1.889  11.026  0.00  0.00    +0.000 C 
ATOM     16  CD2 UNL     1      20.319  -0.905  12.147  0.00  0.00    +0.000 C 
ENDBRANCH  13  14
ENDBRANCH  10  13
ENDBRANCH   7  10
ENDBRANCH   5   8
BRANCH   5  17
ATOM     17  CB  UNL     1      15.173  -2.255  14.324  0.00  0.00    +0.000 C 
BRANCH  17  18
ATOM     18  CG  UNL     1      16.072  -3.444  13.933  0.00  0.00    +0.000 C 
ATOM     19  CD1 UNL     1      17.519  -3.252  14.387  0.00  0.00    +0.000 C 
ATOM     20  CD2 UNL     1      15.516  -4.734  14.545  0.00  0.00    +0.000 C 
ENDBRANCH  17  18
ENDBRANCH   5  17
ENDBRANCH   2   5
BRANCH   3  21
ATOM     21  CA  UNL     1      16.224   1.316  17.308  0.00  0.00    +0.000 C 
BRANCH  21  23
ATOM     22  O   UNL     1      17.016   2.882  19.519  0.00  0.00    +0.000 OA
ATOM     23  N   UNL     1      17.188   2.424  17.279  0.00  0.00    +0.000 N 
ATOM     24  C   ACE A   0      17.467   3.137  18.414  0.00  0.00    +0.000 C 
ATOM     25  H   UNL     1      17.315   2.910  16.403  0.00  0.00    +0.000 HD
BRANCH  24  26
ATOM     26  O   UNL     1      18.217   4.239  18.171  0.00  0.00    +0.000 OA
BRANCH  26  27
ATOM     27  C   UNL     1      19.256   4.501  19.121  0.00  0.00    +0.000 C 
BRANCH  27  28
ATOM     28  C   UNL     1      19.555   5.980  19.151  0.00  0.00    +0.000 A 
ATOM     29  C   UNL     1      20.309   6.573  18.128  0.00  0.00    +0.000 A 
ATOM     30  C   UNL     1      19.138   6.775  20.229  0.00  0.00    +0.000 A 
ATOM     31  C   UNL     1      20.614   7.935  18.169  0.00  0.00    +0.000 A 
ATOM     32  C   UNL     1      19.443   8.136  20.269  0.00  0.00    +0.000 A 
ATOM     33  C   UNL     1      20.181   8.716  19.239  0.00  0.00    +0.000 A 
ENDBRANCH  27  28
ENDBRANCH  26  27
ENDBRANCH  24  26
ENDBRANCH  21  23
BRANCH  21  34
ATOM     34  CB  UNL     1      14.799   1.859  17.103  0.00  0.00    +0.000 C 
BRANCH  34  35
ATOM     35  CG  UNL     1      14.692   3.227  16.397  0.00  0.00    +0.000 C 
ATOM     36  CD1 UNL     1      13.983   3.135  15.046  0.00  0.00    +0.000 C 
ATOM     37  CD2 UNL     1      13.944   4.212  17.302  0.00  0.00    +0.000 C 
ENDBRANCH  34  35
ENDBRANCH  21  34
ENDBRANCH   3  21
TORSDOF 15
ENDMDL
MODEL 9
REMARK VINA RESULT:      -6.3      3.662      8.590
REMARK  Name = 
REMARK  21 active torsions:
REMARK  status: ('A' for Active; 'I' for Inactive)
REMARK    1  A    between atoms: O_3  and  C_27
REMARK    2  A    between atoms: O_3  and  C_28
REMARK    3  A    between atoms: N_6  and  CA_9
REMARK    4  A    between atoms: N_7  and  CA_15
REMARK    5  A    between atoms: N_8  and  CA_12
REMARK    6  A    between atoms: CA_9  and  CB_10
REMARK    7  A    between atoms: CA_9  and  C_16
REMARK    8  A    between atoms: CB_10  and  CG_11
REMARK    9  A    between atoms: CG_11  and  CD1_20
REMARK   10  A    between atoms: CG_11  and  CD2_21
REMARK   11  A    between atoms: CA_12  and  CB_13
REMARK   12  A    between atoms: CA_12  and  C_18
REMARK   13  A    between atoms: CB_13  and  CG_14
REMARK   14  A    between atoms: CG_14  and  CD1_22
REMARK   15  A    between atoms: CG_14  and  CD2_23
REMARK   16  A    between atoms: CA_15  and  CB_17
REMARK   17  A    between atoms: CA_15  and  C_26
REMARK   18  A    between atoms: CB_17  and  CG_19
REMARK   19  A    between atoms: CG_19  and  CD1_24
REMARK   20  A    between atoms: CG_19  and  CD2_25
REMARK   21  A    between atoms: C_28  and  C_29
REMARK                            x       y       z     vdW  Elec       q    Type
REMARK                         _______ _______ _______ _____ _____    ______ ____
ROOT
ATOM      1  O   UNL     1      39.816   2.534  13.809  0.00  0.00    +0.000 OA
ATOM      2  N   UNL     1      37.689   3.274  14.174  0.00  0.00    +0.000 N 
ATOM      3  C   UNL     1      39.043   3.474  13.966  0.00  0.00    +0.000 C 
ATOM      4  H   UNL     1      37.101   4.018  13.806  0.00  0.00    +0.000 HD
ENDROOT
BRANCH   2   5
ATOM      5  CA  UNL     1      37.135   1.923  14.073  0.00  0.00    +0.000 C 
BRANCH   5   8
ATOM      6  O   UNL     1      35.023   2.374  12.989  0.00  0.00    +0.000 OA
ATOM      7  N   UNL     1      36.582   1.553  11.629  0.00  0.00    +0.000 N 
ATOM      8  C   UNL     1      36.184   1.971  12.862  0.00  0.00    +0.000 C 
ATOM      9  H   UNL     1      35.843   1.682  10.946  0.00  0.00    +0.000 HD
BRANCH   7  10
ATOM     10  CA  UNL     1      37.936   1.374  11.106  0.00  0.00    +0.000 C 
BRANCH  10  12
ATOM     11  O   UNL     1      37.679   3.619  10.196  0.00  0.00    +0.000 OA
ATOM     12  C   UNL     1      38.408   2.656  10.420  0.00  0.00    +0.000 C 
ENDBRANCH  10  12
BRANCH  10  13
ATOM     13  CB  UNL     1      38.057   0.122  10.223  0.00  0.00    +0.000 C 
BRANCH  13  14
ATOM     14  CG  UNL     1      36.845  -0.245   9.338  0.00  0.00    +0.000 C 
ATOM     15  CD1 UNL     1      36.918   0.338   7.929  0.00  0.00    +0.000 C 
ATOM     16  CD2 UNL     1      36.722  -1.771   9.253  0.00  0.00    +0.000 C 
ENDBRANCH  13  14
ENDBRANCH  10  13
ENDBRANCH   7  10
ENDBRANCH   5   8
BRANCH   5  17
ATOM     17  CB  UNL     1      36.354   1.580  15.350  0.00  0.00    +0.000 C 
BRANCH  17  18
ATOM     18  CG  UNL     1      36.315   0.078  15.695  0.00  0.00    +0.000 C 
ATOM     19  CD1 UNL     1      34.890  -0.474  15.730  0.00  0.00    +0.000 C 
ATOM     20  CD2 UNL     1      37.138  -0.708  14.669  0.00  0.00    +0.000 C 
ENDBRANCH  17  18
ENDBRANCH   5  17
ENDBRANCH   2   5
BRANCH   3  21
ATOM     21  CA  UNL     1      39.469   4.960  13.868  0.00  0.00    +0.000 C 
BRANCH  21  23
ATOM     22  O   UNL     1      38.531   5.054  16.529  0.00  0.00    +0.000 OA
ATOM     23  N   UNL     1      40.261   5.329  15.049  0.00  0.00    +0.000 N 
ATOM     24  C   ACE A   0      39.685   5.373  16.290  0.00  0.00    +0.000 C 
ATOM     25  H   UNL     1      41.063   5.927  14.906  0.00  0.00    +0.000 HD
BRANCH  24  26
ATOM     26  O   UNL     1      40.498   5.920  17.226  0.00  0.00    +0.000 OA
BRANCH  26  27
ATOM     27  C   UNL     1      39.991   7.092  17.876  0.00  0.00    +0.000 C 
BRANCH  27  28
ATOM     28  C   UNL     1      41.139   7.986  18.277  0.00  0.00    +0.000 A 
ATOM     29  C   UNL     1      41.659   8.923  17.373  0.00  0.00    +0.000 A 
ATOM     30  C   UNL     1      41.743   7.856  19.536  0.00  0.00    +0.000 A 
ATOM     31  C   UNL     1      42.742   9.729  17.730  0.00  0.00    +0.000 A 
ATOM     32  C   UNL     1      42.825   8.662  19.892  0.00  0.00    +0.000 A 
ATOM     33  C   UNL     1      43.324   9.600  18.989  0.00  0.00    +0.000 A 
ENDBRANCH  27  28
ENDBRANCH  26  27
ENDBRANCH  24  26
ENDBRANCH  21  23
BRANCH  21  34
ATOM     34  CB  UNL     1      40.281   5.230  12.589  0.00  0.00    +0.000 C 
BRANCH  34  35
ATOM     35  CG  UNL     1      41.774   5.564  12.795  0.00  0.00    +0.000 C 
ATOM     36  CD1 UNL     1      42.690   4.393  12.438  0.00  0.00    +0.000 C 
ATOM     37  CD2 UNL     1      42.146   6.783  11.944  0.00  0.00    +0.000 C 
ENDBRANCH  34  35
ENDBRANCH  21  34
ENDBRANCH   3  21
TORSDOF 15
ENDMDL
