MODEL 1
REMARK VINA RESULT:      -6.4      0.000      0.000
REMARK  Name = Monobenzone.pdbqt.pdb
REMARK  4 active torsions:
REMARK  status: ('A' for Active; 'I' for Inactive)
REMARK    1  A    between atoms: C_1  and  O_7
REMARK    2  A    between atoms: C_6  and  O_15
REMARK    3  A    between atoms: O_7  and  C_8
REMARK    4  A    between atoms: C_8  and  C_9
REMARK                            x       y       z     vdW  Elec       q    Type
REMARK                         _______ _______ _______ _____ _____    ______ ____
ROOT
ATOM      1  C   UNL     1      19.819   6.526  18.978  0.00  0.00    +0.000 A 
ATOM      2  C   UNL     1      19.670   7.420  20.042  0.00  0.00    +0.000 A 
ATOM      3  C   UNL     1      19.147   5.303  19.004  0.00  0.00    +0.000 A 
ATOM      4  C   UNL     1      18.856   7.094  21.123  0.00  0.00    +0.000 A 
ATOM      5  C   UNL     1      18.331   4.972  20.083  0.00  0.00    +0.000 A 
ATOM      6  C   UNL     1      18.192   5.872  21.135  0.00  0.00    +0.000 A 
ENDROOT
BRANCH   6   7
ATOM      7  O   UNL     1      17.388   5.527  22.181  0.00  0.00    +0.000 OA
ATOM      8  H   UNL     1      17.838   5.775  23.007  0.00  0.00    +0.000 HD
ENDBRANCH   6   7
BRANCH   1   9
ATOM      9  O   UNL     1      20.597   6.758  17.872  0.00  0.00    +0.000 OA
BRANCH   9  10
ATOM     10  C   UNL     1      20.969   8.025  17.705  0.00  0.00    +0.000 C 
BRANCH  10  11
ATOM     11  C   UNL     1      21.381   9.380  17.535  0.00  0.00    +0.000 A 
ATOM     12  C   UNL     1      20.571  10.414  17.998  0.00  0.00    +0.000 A 
ATOM     13  C   UNL     1      20.971  11.738  17.827  0.00  0.00    +0.000 A 
ATOM     14  C   UNL     1      22.178  12.024  17.194  0.00  0.00    +0.000 A 
ATOM     15  C   UNL     1      22.987  10.987  16.732  0.00  0.00    +0.000 A 
ATOM     16  C   UNL     1      22.589   9.664  16.902  0.00  0.00    +0.000 A 
ENDBRANCH  10  11
ENDBRANCH   9  10
ENDBRANCH   1   9
TORSDOF 4
ENDMDL
MODEL 2
REMARK VINA RESULT:      -5.7     17.186     19.496
REMARK  Name = Monobenzone.pdbqt.pdb
REMARK  4 active torsions:
REMARK  status: ('A' for Active; 'I' for Inactive)
REMARK    1  A    between atoms: C_1  and  O_7
REMARK    2  A    between atoms: C_6  and  O_15
REMARK    3  A    between atoms: O_7  and  C_8
REMARK    4  A    between atoms: C_8  and  C_9
REMARK                            x       y       z     vdW  Elec       q    Type
REMARK                         _______ _______ _______ _____ _____    ______ ____
ROOT
ATOM      1  C   UNL     1      38.253   1.628  13.181  0.00  0.00    +0.000 A 
ATOM      2  C   UNL     1      39.061   2.491  13.926  0.00  0.00    +0.000 A 
ATOM      3  C   UNL     1      37.581   2.109  12.057  0.00  0.00    +0.000 A 
ATOM      4  C   UNL     1      39.197   3.824  13.550  0.00  0.00    +0.000 A 
ATOM      5  C   UNL     1      37.712   3.442  11.677  0.00  0.00    +0.000 A 
ATOM      6  C   UNL     1      38.520   4.290  12.427  0.00  0.00    +0.000 A 
ENDROOT
BRANCH   6   7
ATOM      7  O   UNL     1      38.635   5.591  12.036  0.00  0.00    +0.000 OA
ATOM      8  H   UNL     1      38.677   5.616  11.064  0.00  0.00    +0.000 HD
ENDBRANCH   6   7
BRANCH   1   9
ATOM      9  O   UNL     1      38.058   0.301  13.473  0.00  0.00    +0.000 OA
BRANCH   9  10
ATOM     10  C   UNL     1      36.960   0.038  14.177  0.00  0.00    +0.000 C 
BRANCH  10  11
ATOM     11  C   UNL     1      35.786  -0.259  14.931  0.00  0.00    +0.000 A 
ATOM     12  C   UNL     1      34.568   0.310  14.569  0.00  0.00    +0.000 A 
ATOM     13  C   UNL     1      33.422   0.024  15.310  0.00  0.00    +0.000 A 
ATOM     14  C   UNL     1      33.498  -0.829  16.408  0.00  0.00    +0.000 A 
ATOM     15  C   UNL     1      34.719  -1.397  16.767  0.00  0.00    +0.000 A 
ATOM     16  C   UNL     1      35.864  -1.112  16.029  0.00  0.00    +0.000 A 
ENDBRANCH  10  11
ENDBRANCH   9  10
ENDBRANCH   1   9
TORSDOF 4
ENDMDL
MODEL 3
REMARK VINA RESULT:      -5.5     36.716     38.051
REMARK  Name = Monobenzone.pdbqt.pdb
REMARK  4 active torsions:
REMARK  status: ('A' for Active; 'I' for Inactive)
REMARK    1  A    between atoms: C_1  and  O_7
REMARK    2  A    between atoms: C_6  and  O_15
REMARK    3  A    between atoms: O_7  and  C_8
REMARK    4  A    between atoms: C_8  and  C_9
REMARK                            x       y       z     vdW  Elec       q    Type
REMARK                         _______ _______ _______ _____ _____    ______ ____
ROOT
ATOM      1  C   UNL     1      40.853 -15.002  -0.677  0.00  0.00    +0.000 A 
ATOM      2  C   UNL     1      41.135 -16.333  -0.995  0.00  0.00    +0.000 A 
ATOM      3  C   UNL     1      39.530 -14.607  -0.468  0.00  0.00    +0.000 A 
ATOM      4  C   UNL     1      40.105 -17.263  -1.102  0.00  0.00    +0.000 A 
ATOM      5  C   UNL     1      38.496 -15.532  -0.574  0.00  0.00    +0.000 A 
ATOM      6  C   UNL     1      38.792 -16.854  -0.890  0.00  0.00    +0.000 A 
ENDROOT
BRANCH   6   7
ATOM      7  O   UNL     1      37.762 -17.744  -0.989  0.00  0.00    +0.000 OA
ATOM      8  H   UNL     1      37.468 -17.770  -1.916  0.00  0.00    +0.000 HD
ENDBRANCH   6   7
BRANCH   1   9
ATOM      9  O   UNL     1      41.799 -14.016  -0.549  0.00  0.00    +0.000 OA
BRANCH   9  10
ATOM     10  C   UNL     1      42.775 -14.058  -1.452  0.00  0.00    +0.000 C 
BRANCH  10  11
ATOM     11  C   UNL     1      43.829 -14.115  -2.412  0.00  0.00    +0.000 A 
ATOM     12  C   UNL     1      44.245 -15.347  -2.911  0.00  0.00    +0.000 A 
ATOM     13  C   UNL     1      45.278 -15.404  -3.845  0.00  0.00    +0.000 A 
ATOM     14  C   UNL     1      45.890 -14.230  -4.277  0.00  0.00    +0.000 A 
ATOM     15  C   UNL     1      45.471 -12.999  -3.778  0.00  0.00    +0.000 A 
ATOM     16  C   UNL     1      44.439 -12.940  -2.844  0.00  0.00    +0.000 A 
ENDBRANCH  10  11
ENDBRANCH   9  10
ENDBRANCH   1   9
TORSDOF 4
ENDMDL
MODEL 4
REMARK VINA RESULT:      -5.2     38.958     40.334
REMARK  Name = Monobenzone.pdbqt.pdb
REMARK  4 active torsions:
REMARK  status: ('A' for Active; 'I' for Inactive)
REMARK    1  A    between atoms: C_1  and  O_7
REMARK    2  A    between atoms: C_6  and  O_15
REMARK    3  A    between atoms: O_7  and  C_8
REMARK    4  A    between atoms: C_8  and  C_9
REMARK                            x       y       z     vdW  Elec       q    Type
REMARK                         _______ _______ _______ _____ _____    ______ ____
ROOT
ATOM      1  C   UNL     1      41.170 -17.224  -1.365  0.00  0.00    +0.000 A 
ATOM      2  C   UNL     1      42.447 -16.656  -1.384  0.00  0.00    +0.000 A 
ATOM      3  C   UNL     1      40.083 -16.465  -0.928  0.00  0.00    +0.000 A 
ATOM      4  C   UNL     1      42.636 -15.340  -0.970  0.00  0.00    +0.000 A 
ATOM      5  C   UNL     1      40.267 -15.149  -0.512  0.00  0.00    +0.000 A 
ATOM      6  C   UNL     1      41.543 -14.597  -0.537  0.00  0.00    +0.000 A 
ENDROOT
BRANCH   6   7
ATOM      7  O   UNL     1      41.699 -13.305  -0.126  0.00  0.00    +0.000 OA
ATOM      8  H   UNL     1      40.972 -12.776  -0.498  0.00  0.00    +0.000 HD
ENDBRANCH   6   7
BRANCH   1   9
ATOM      9  O   UNL     1      40.885 -18.509  -1.753  0.00  0.00    +0.000 OA
BRANCH   9  10
ATOM     10  C   UNL     1      41.571 -18.939  -2.810  0.00  0.00    +0.000 C 
BRANCH  10  11
ATOM     11  C   UNL     1      42.293 -19.410  -3.946  0.00  0.00    +0.000 A 
ATOM     12  C   UNL     1      42.637 -20.756  -4.039  0.00  0.00    +0.000 A 
ATOM     13  C   UNL     1      43.348 -21.215  -5.146  0.00  0.00    +0.000 A 
ATOM     14  C   UNL     1      43.712 -20.328  -6.156  0.00  0.00    +0.000 A 
ATOM     15  C   UNL     1      43.366 -18.982  -6.061  0.00  0.00    +0.000 A 
ATOM     16  C   UNL     1      42.656 -18.521  -4.955  0.00  0.00    +0.000 A 
ENDBRANCH  10  11
ENDBRANCH   9  10
ENDBRANCH   1   9
TORSDOF 4
ENDMDL
MODEL 5
REMARK VINA RESULT:      -5.1     21.868     23.905
REMARK  Name = Monobenzone.pdbqt.pdb
REMARK  4 active torsions:
REMARK  status: ('A' for Active; 'I' for Inactive)
REMARK    1  A    between atoms: C_1  and  O_7
REMARK    2  A    between atoms: C_6  and  O_15
REMARK    3  A    between atoms: O_7  and  C_8
REMARK    4  A    between atoms: C_8  and  C_9
REMARK                            x       y       z     vdW  Elec       q    Type
REMARK                         _______ _______ _______ _____ _____    ______ ____
ROOT
ATOM      1  C   UNL     1      38.749  -0.066  10.652  0.00  0.00    +0.000 A 
ATOM      2  C   UNL     1      38.491  -1.176   9.844  0.00  0.00    +0.000 A 
ATOM      3  C   UNL     1      37.966   1.082  10.520  0.00  0.00    +0.000 A 
ATOM      4  C   UNL     1      37.457  -1.140   8.912  0.00  0.00    +0.000 A 
ATOM      5  C   UNL     1      36.932   1.124   9.588  0.00  0.00    +0.000 A 
ATOM      6  C   UNL     1      36.686   0.011   8.791  0.00  0.00    +0.000 A 
ENDROOT
BRANCH   6   7
ATOM      7  O   UNL     1      35.667   0.074   7.886  0.00  0.00    +0.000 OA
ATOM      8  H   UNL     1      35.461  -0.830   7.594  0.00  0.00    +0.000 HD
ENDBRANCH   6   7
BRANCH   1   9
ATOM      9  O   UNL     1      39.743  -0.008  11.597  0.00  0.00    +0.000 OA
BRANCH   9  10
ATOM     10  C   UNL     1      40.820  -0.738  11.321  0.00  0.00    +0.000 C 
BRANCH  10  11
ATOM     11  C   UNL     1      41.985  -1.510  11.035  0.00  0.00    +0.000 A 
ATOM     12  C   UNL     1      42.030  -2.296   9.886  0.00  0.00    +0.000 A 
ATOM     13  C   UNL     1      43.165  -3.055   9.609  0.00  0.00    +0.000 A 
ATOM     14  C   UNL     1      44.251  -3.026  10.481  0.00  0.00    +0.000 A 
ATOM     15  C   UNL     1      44.203  -2.239  11.629  0.00  0.00    +0.000 A 
ATOM     16  C   UNL     1      43.070  -1.480  11.907  0.00  0.00    +0.000 A 
ENDBRANCH  10  11
ENDBRANCH   9  10
ENDBRANCH   1   9
TORSDOF 4
ENDMDL
MODEL 6
REMARK VINA RESULT:      -5.0     30.844     32.096
REMARK  Name = Monobenzone.pdbqt.pdb
REMARK  4 active torsions:
REMARK  status: ('A' for Active; 'I' for Inactive)
REMARK    1  A    between atoms: C_1  and  O_7
REMARK    2  A    between atoms: C_6  and  O_15
REMARK    3  A    between atoms: O_7  and  C_8
REMARK    4  A    between atoms: C_8  and  C_9
REMARK                            x       y       z     vdW  Elec       q    Type
REMARK                         _______ _______ _______ _____ _____    ______ ____
ROOT
ATOM      1  C   UNL     1      36.182 -13.654  35.070  0.00  0.00    +0.000 A 
ATOM      2  C   UNL     1      34.876 -14.140  35.166  0.00  0.00    +0.000 A 
ATOM      3  C   UNL     1      37.229 -14.535  34.795  0.00  0.00    +0.000 A 
ATOM      4  C   UNL     1      34.616 -15.496  34.986  0.00  0.00    +0.000 A 
ATOM      5  C   UNL     1      36.975 -15.892  34.615  0.00  0.00    +0.000 A 
ATOM      6  C   UNL     1      35.670 -16.362  34.711  0.00  0.00    +0.000 A 
ENDROOT
BRANCH   6   7
ATOM      7  O   UNL     1      35.445 -17.695  34.531  0.00  0.00    +0.000 OA
ATOM      8  H   UNL     1      35.596 -18.148  35.378  0.00  0.00    +0.000 HD
ENDBRANCH   6   7
BRANCH   1   9
ATOM      9  O   UNL     1      36.535 -12.337  35.231  0.00  0.00    +0.000 OA
BRANCH   9  10
ATOM     10  C   UNL     1      36.307 -11.841  36.445  0.00  0.00    +0.000 C 
BRANCH  10  11
ATOM     11  C   UNL     1      36.052 -11.299  37.739  0.00  0.00    +0.000 A 
ATOM     12  C   UNL     1      36.025  -9.918  37.918  0.00  0.00    +0.000 A 
ATOM     13  C   UNL     1      35.782  -9.387  39.184  0.00  0.00    +0.000 A 
ATOM     14  C   UNL     1      35.567 -10.238  40.265  0.00  0.00    +0.000 A 
ATOM     15  C   UNL     1      35.594 -11.619  40.083  0.00  0.00    +0.000 A 
ATOM     16  C   UNL     1      35.837 -12.151  38.819  0.00  0.00    +0.000 A 
ENDBRANCH  10  11
ENDBRANCH   9  10
ENDBRANCH   1   9
TORSDOF 4
ENDMDL
MODEL 7
REMARK VINA RESULT:      -4.9     25.619     29.162
REMARK  Name = Monobenzone.pdbqt.pdb
REMARK  4 active torsions:
REMARK  status: ('A' for Active; 'I' for Inactive)
REMARK    1  A    between atoms: C_1  and  O_7
REMARK    2  A    between atoms: C_6  and  O_15
REMARK    3  A    between atoms: O_7  and  C_8
REMARK    4  A    between atoms: C_8  and  C_9
REMARK                            x       y       z     vdW  Elec       q    Type
REMARK                         _______ _______ _______ _____ _____    ______ ____
ROOT
ATOM      1  C   UNL     1      20.460  -7.535  40.801  0.00  0.00    +0.000 A 
ATOM      2  C   UNL     1      20.833  -8.603  39.981  0.00  0.00    +0.000 A 
ATOM      3  C   UNL     1      19.360  -6.749  40.454  0.00  0.00    +0.000 A 
ATOM      4  C   UNL     1      20.112  -8.885  38.824  0.00  0.00    +0.000 A 
ATOM      5  C   UNL     1      18.635  -7.026  39.298  0.00  0.00    +0.000 A 
ATOM      6  C   UNL     1      19.018  -8.093  38.491  0.00  0.00    +0.000 A 
ENDROOT
BRANCH   6   7
ATOM      7  O   UNL     1      18.293  -8.346  37.364  0.00  0.00    +0.000 OA
ATOM      8  H   UNL     1      17.349  -8.343  37.600  0.00  0.00    +0.000 HD
ENDBRANCH   6   7
BRANCH   1   9
ATOM      9  O   UNL     1      21.107  -7.181  41.958  0.00  0.00    +0.000 OA
BRANCH   9  10
ATOM     10  C   UNL     1      20.733  -7.861  43.039  0.00  0.00    +0.000 C 
BRANCH  10  11
ATOM     11  C   UNL     1      20.327  -8.576  44.204  0.00  0.00    +0.000 A 
ATOM     12  C   UNL     1      21.233  -8.779  45.243  0.00  0.00    +0.000 A 
ATOM     13  C   UNL     1      20.839  -9.482  46.379  0.00  0.00    +0.000 A 
ATOM     14  C   UNL     1      19.542  -9.980  46.475  0.00  0.00    +0.000 A 
ATOM     15  C   UNL     1      18.638  -9.775  45.435  0.00  0.00    +0.000 A 
ATOM     16  C   UNL     1      19.030  -9.073  44.298  0.00  0.00    +0.000 A 
ENDBRANCH  10  11
ENDBRANCH   9  10
ENDBRANCH   1   9
TORSDOF 4
ENDMDL
MODEL 8
REMARK VINA RESULT:      -4.9     30.902     31.764
REMARK  Name = Monobenzone.pdbqt.pdb
REMARK  4 active torsions:
REMARK  status: ('A' for Active; 'I' for Inactive)
REMARK    1  A    between atoms: C_1  and  O_7
REMARK    2  A    between atoms: C_6  and  O_15
REMARK    3  A    between atoms: O_7  and  C_8
REMARK    4  A    between atoms: C_8  and  C_9
REMARK                            x       y       z     vdW  Elec       q    Type
REMARK                         _______ _______ _______ _____ _____    ______ ____
ROOT
ATOM      1  C   UNL     1      49.786   0.346  30.275  0.00  0.00    +0.000 A 
ATOM      2  C   UNL     1      48.761   0.494  29.338  0.00  0.00    +0.000 A 
ATOM      3  C   UNL     1      50.001  -0.897  30.874  0.00  0.00    +0.000 A 
ATOM      4  C   UNL     1      47.957  -0.592  29.000  0.00  0.00    +0.000 A 
ATOM      5  C   UNL     1      49.200  -1.985  30.540  0.00  0.00    +0.000 A 
ATOM      6  C   UNL     1      48.183  -1.824  29.604  0.00  0.00    +0.000 A 
ENDROOT
BRANCH   6   7
ATOM      7  O   UNL     1      47.411  -2.904  29.292  0.00  0.00    +0.000 OA
ATOM      8  H   UNL     1      47.423  -3.020  28.327  0.00  0.00    +0.000 HD
ENDBRANCH   6   7
BRANCH   1   9
ATOM      9  O   UNL     1      50.628   1.355  30.671  0.00  0.00    +0.000 OA
BRANCH   9  10
ATOM     10  C   UNL     1      50.072   2.563  30.715  0.00  0.00    +0.000 C 
BRANCH  10  11
ATOM     11  C   UNL     1      49.482   3.861  30.748  0.00  0.00    +0.000 A 
ATOM     12  C   UNL     1      48.398   4.109  31.586  0.00  0.00    +0.000 A 
ATOM     13  C   UNL     1      47.818   5.376  31.614  0.00  0.00    +0.000 A 
ATOM     14  C   UNL     1      48.324   6.390  30.804  0.00  0.00    +0.000 A 
ATOM     15  C   UNL     1      49.409   6.140  29.967  0.00  0.00    +0.000 A 
ATOM     16  C   UNL     1      49.989   4.874  29.938  0.00  0.00    +0.000 A 
ENDBRANCH  10  11
ENDBRANCH   9  10
ENDBRANCH   1   9
TORSDOF 4
ENDMDL
MODEL 9
REMARK VINA RESULT:      -4.7     37.559     38.889
REMARK  Name = Monobenzone.pdbqt.pdb
REMARK  4 active torsions:
REMARK  status: ('A' for Active; 'I' for Inactive)
REMARK    1  A    between atoms: C_1  and  O_7
REMARK    2  A    between atoms: C_6  and  O_15
REMARK    3  A    between atoms: O_7  and  C_8
REMARK    4  A    between atoms: C_8  and  C_9
REMARK                            x       y       z     vdW  Elec       q    Type
REMARK                         _______ _______ _______ _____ _____    ______ ____
ROOT
ATOM      1  C   UNL     1      49.952 -14.921  15.358  0.00  0.00    +0.000 A 
ATOM      2  C   UNL     1      51.048 -15.528  15.977  0.00  0.00    +0.000 A 
ATOM      3  C   UNL     1      49.614 -13.607  15.685  0.00  0.00    +0.000 A 
ATOM      4  C   UNL     1      51.801 -14.827  16.915  0.00  0.00    +0.000 A 
ATOM      5  C   UNL     1      50.363 -12.901  16.624  0.00  0.00    +0.000 A 
ATOM      6  C   UNL     1      51.452 -13.518  17.231  0.00  0.00    +0.000 A 
ENDROOT
BRANCH   6   7
ATOM      7  O   UNL     1      52.172 -12.808  18.147  0.00  0.00    +0.000 OA
ATOM      8  H   UNL     1      52.298 -13.364  18.935  0.00  0.00    +0.000 HD
ENDBRANCH   6   7
BRANCH   1   9
ATOM      9  O   UNL     1      49.152 -15.529  14.424  0.00  0.00    +0.000 OA
BRANCH   9  10
ATOM     10  C   UNL     1      48.879 -16.808  14.669  0.00  0.00    +0.000 C 
BRANCH  10  11
ATOM     11  C   UNL     1      48.575 -18.179  14.921  0.00  0.00    +0.000 A 
ATOM     12  C   UNL     1      47.550 -18.803  14.213  0.00  0.00    +0.000 A 
ATOM     13  C   UNL     1      47.250 -20.140  14.463  0.00  0.00    +0.000 A 
ATOM     14  C   UNL     1      47.974 -20.850  15.418  0.00  0.00    +0.000 A 
ATOM     15  C   UNL     1      48.999 -20.224  16.124  0.00  0.00    +0.000 A 
ATOM     16  C   UNL     1      49.300 -18.887  15.876  0.00  0.00    +0.000 A 
ENDBRANCH  10  11
ENDBRANCH   9  10
ENDBRANCH   1   9
TORSDOF 4
ENDMDL
