MODEL 1
REMARK VINA RESULT:      -6.9      0.000      0.000
REMARK  Name = OTSSP167.pdbqt.pdb
REMARK  7 active torsions:
REMARK  status: ('A' for Active; 'I' for Inactive)
REMARK    1  A    between atoms: C_5  and  N_19
REMARK    2  A    between atoms: C_7  and  C_31
REMARK    3  A    between atoms: C_11  and  C_13
REMARK    4  A    between atoms: C_18  and  O_34
REMARK    5  A    between atoms: N_19  and  C_21
REMARK    6  A    between atoms: C_24  and  C_27
REMARK    7  A    between atoms: C_27  and  N_28
REMARK                            x       y       z     vdW  Elec       q    Type
REMARK                         _______ _______ _______ _____ _____    ______ ____
ROOT
ATOM      1  N   UNL     1      19.906   9.479  18.724  0.00  0.00    +0.000 NA
ATOM      2  N   UNL     1      22.675  11.107  16.982  0.00  0.00    +0.000 NA
ATOM      3  C   UNL     1      20.463  11.844  18.560  0.00  0.00    +0.000 A 
ATOM      4  C   UNL     1      20.714  10.474  18.280  0.00  0.00    +0.000 A 
ATOM      5  C   UNL     1      21.344  12.807  18.026  0.00  0.00    +0.000 A 
ATOM      6  C   UNL     1      21.839  10.182  17.480  0.00  0.00    +0.000 A 
ATOM      7  C   UNL     1      22.413  12.397  17.261  0.00  0.00    +0.000 A 
ATOM      8  C   UNL     1      22.086   8.851  17.192  0.00  0.00    +0.000 A 
ATOM      9  C   UNL     1      20.177   8.183  18.435  0.00  0.00    +0.000 A 
ATOM     10  C   UNL     1      21.268   7.835  17.661  0.00  0.00    +0.000 A 
ENDROOT
BRANCH   9  13
ATOM     11 CL   UNL     1      19.267   3.234  19.607  0.00  0.00    +0.000 Cl
ATOM     12 CL   UNL     1      15.589   7.136  20.572  0.00  0.00    +0.000 Cl
ATOM     13  C   UNL     1      19.261   7.190  19.000  0.00  0.00    +0.000 A 
ATOM     14  C   UNL     1      17.995   7.545  19.480  0.00  0.00    +0.000 A 
ATOM     15  C   UNL     1      19.620   5.837  19.067  0.00  0.00    +0.000 A 
ATOM     16  C   UNL     1      18.754   4.877  19.585  0.00  0.00    +0.000 A 
ATOM     17  C   UNL     1      17.121   6.592  20.007  0.00  0.00    +0.000 A 
ATOM     18  C   UNL     1      17.498   5.250  20.060  0.00  0.00    +0.000 A 
BRANCH  18  19
ATOM     19  O   UNL     1      16.635   4.318  20.575  0.00  0.00    +0.000 OA
ATOM     20  H   UNL     1      16.233   4.686  21.383  0.00  0.00    +0.000 HD
ENDBRANCH  18  19
ENDBRANCH   9  13
BRANCH   5  21
ATOM     21  C   UNL     1      21.160  14.245  18.209  0.00  0.00    +0.000 C 
ATOM     22  O   UNL     1      20.244  14.898  17.738  0.00  0.00    +0.000 OA
ATOM     23  C   UNL     1      22.111  15.120  18.967  0.00  0.00    +0.000 C 
ENDBRANCH   5  21
BRANCH   3  24
ATOM     24  N   UNL     1      19.422  12.281  19.441  0.00  0.00    +0.000 N 
ATOM     25  H   UNL     1      19.721  12.960  20.147  0.00  0.00    +0.000 HD
BRANCH  24  26
ATOM     26  C   UNL     1      18.075  12.299  19.205  0.00  0.00    +0.000 A 
ATOM     27  C   UNL     1      17.236  11.512  20.072  0.00  0.00    +0.000 A 
ATOM     28  C   UNL     1      16.018  10.656  19.637  0.00  0.00    +0.000 A 
ATOM     29  C   UNL     1      15.552  10.516  18.278  0.00  0.00    +0.000 A 
ATOM     30  C   UNL     1      16.406  11.281  17.405  0.00  0.00    +0.000 A 
ATOM     31  C   UNL     1      17.622  12.133  17.845  0.00  0.00    +0.000 A 
BRANCH  29  32
ATOM     32  C   UNL     1      14.368   9.854  17.884  0.00  0.00    +0.000 C 
BRANCH  32  33
ATOM     33  N   UNL     1      13.162   9.158  17.472  0.00  0.00    +0.000 NA
ATOM     34  C   UNL     1      13.355   7.746  17.756  0.00  0.00    +0.000 C 
ATOM     35  C   UNL     1      13.056   9.292  16.029  0.00  0.00    +0.000 C 
ENDBRANCH  32  33
ENDBRANCH  29  32
ENDBRANCH  24  26
ENDBRANCH   3  24
TORSDOF 7
ENDMDL
MODEL 2
REMARK VINA RESULT:      -6.7      1.403      2.179
REMARK  Name = OTSSP167.pdbqt.pdb
REMARK  7 active torsions:
REMARK  status: ('A' for Active; 'I' for Inactive)
REMARK    1  A    between atoms: C_5  and  N_19
REMARK    2  A    between atoms: C_7  and  C_31
REMARK    3  A    between atoms: C_11  and  C_13
REMARK    4  A    between atoms: C_18  and  O_34
REMARK    5  A    between atoms: N_19  and  C_21
REMARK    6  A    between atoms: C_24  and  C_27
REMARK    7  A    between atoms: C_27  and  N_28
REMARK                            x       y       z     vdW  Elec       q    Type
REMARK                         _______ _______ _______ _____ _____    ______ ____
ROOT
ATOM      1  N   UNL     1      20.001   9.786  19.172  0.00  0.00    +0.000 NA
ATOM      2  N   UNL     1      22.175  11.631  16.887  0.00  0.00    +0.000 NA
ATOM      3  C   UNL     1      20.452  12.175  19.046  0.00  0.00    +0.000 A 
ATOM      4  C   UNL     1      20.643  10.838  18.606  0.00  0.00    +0.000 A 
ATOM      5  C   UNL     1      21.142  13.204  18.372  0.00  0.00    +0.000 A 
ATOM      6  C   UNL     1      21.518  10.643  17.516  0.00  0.00    +0.000 A 
ATOM      7  C   UNL     1      21.975  12.888  17.322  0.00  0.00    +0.000 A 
ATOM      8  C   UNL     1      21.702   9.346  17.073  0.00  0.00    +0.000 A 
ATOM      9  C   UNL     1      20.207   8.524  18.723  0.00  0.00    +0.000 A 
ATOM     10  C   UNL     1      21.057   8.270  17.664  0.00  0.00    +0.000 A 
ENDROOT
BRANCH   9  13
ATOM     11 CL   UNL     1      16.862   7.230  22.442  0.00  0.00    +0.000 Cl
ATOM     12 CL   UNL     1      19.310   3.472  19.347  0.00  0.00    +0.000 Cl
ATOM     13  C   UNL     1      19.492   7.461  19.434  0.00  0.00    +0.000 A 
ATOM     14  C   UNL     1      19.681   6.109  19.122  0.00  0.00    +0.000 A 
ATOM     15  C   UNL     1      18.599   7.765  20.469  0.00  0.00    +0.000 A 
ATOM     16  C   UNL     1      17.924   6.767  21.168  0.00  0.00    +0.000 A 
ATOM     17  C   UNL     1      19.006   5.101  19.812  0.00  0.00    +0.000 A 
ATOM     18  C   UNL     1      18.123   5.427  20.842  0.00  0.00    +0.000 A 
BRANCH  18  19
ATOM     19  O   UNL     1      17.466   4.433  21.518  0.00  0.00    +0.000 OA
ATOM     20  H   UNL     1      17.893   3.582  21.303  0.00  0.00    +0.000 HD
ENDBRANCH  18  19
ENDBRANCH   9  13
BRANCH   5  21
ATOM     21  C   UNL     1      20.989  14.619  18.706  0.00  0.00    +0.000 C 
ATOM     22  O   UNL     1      19.941  15.241  18.654  0.00  0.00    +0.000 OA
ATOM     23  C   UNL     1      22.123  15.509  19.114  0.00  0.00    +0.000 C 
ENDBRANCH   5  21
BRANCH   3  24
ATOM     24  N   UNL     1      19.677  12.513  20.202  0.00  0.00    +0.000 N 
ATOM     25  H   UNL     1      20.123  13.189  20.829  0.00  0.00    +0.000 HD
BRANCH  24  26
ATOM     26  C   UNL     1      18.320  12.444  20.351  0.00  0.00    +0.000 A 
ATOM     27  C   UNL     1      17.807  11.618  21.414  0.00  0.00    +0.000 A 
ATOM     28  C   UNL     1      16.572  10.683  21.330  0.00  0.00    +0.000 A 
ATOM     29  C   UNL     1      15.755  10.498  20.155  0.00  0.00    +0.000 A 
ATOM     30  C   UNL     1      16.282  11.304  19.082  0.00  0.00    +0.000 A 
ATOM     31  C   UNL     1      17.517  12.235  19.171  0.00  0.00    +0.000 A 
BRANCH  29  32
ATOM     32  C   UNL     1      14.553   9.759  20.103  0.00  0.00    +0.000 C 
BRANCH  32  33
ATOM     33  N   UNL     1      13.325   8.984  20.052  0.00  0.00    +0.000 NA
ATOM     34  C   UNL     1      12.372   9.620  20.946  0.00  0.00    +0.000 C 
ATOM     35  C   UNL     1      13.619   7.672  20.605  0.00  0.00    +0.000 C 
ENDBRANCH  32  33
ENDBRANCH  29  32
ENDBRANCH  24  26
ENDBRANCH   3  24
TORSDOF 7
ENDMDL
MODEL 3
REMARK VINA RESULT:      -6.4     17.306     20.313
REMARK  Name = OTSSP167.pdbqt.pdb
REMARK  7 active torsions:
REMARK  status: ('A' for Active; 'I' for Inactive)
REMARK    1  A    between atoms: C_5  and  N_19
REMARK    2  A    between atoms: C_7  and  C_31
REMARK    3  A    between atoms: C_11  and  C_13
REMARK    4  A    between atoms: C_18  and  O_34
REMARK    5  A    between atoms: N_19  and  C_21
REMARK    6  A    between atoms: C_24  and  C_27
REMARK    7  A    between atoms: C_27  and  N_28
REMARK                            x       y       z     vdW  Elec       q    Type
REMARK                         _______ _______ _______ _____ _____    ______ ____
ROOT
ATOM      1  N   UNL     1      30.337   1.724   3.575  0.00  0.00    +0.000 NA
ATOM      2  N   UNL     1      29.717  -1.734   4.579  0.00  0.00    +0.000 NA
ATOM      3  C   UNL     1      28.232   0.603   4.068  0.00  0.00    +0.000 A 
ATOM      4  C   UNL     1      29.646   0.611   3.927  0.00  0.00    +0.000 A 
ATOM      5  C   UNL     1      27.609  -0.596   4.470  0.00  0.00    +0.000 A 
ATOM      6  C   UNL     1      30.323  -0.596   4.204  0.00  0.00    +0.000 A 
ATOM      7  C   UNL     1      28.378  -1.714   4.707  0.00  0.00    +0.000 A 
ATOM      8  C   UNL     1      31.700  -0.595   4.081  0.00  0.00    +0.000 A 
ATOM      9  C   UNL     1      31.687   1.694   3.453  0.00  0.00    +0.000 A 
ATOM     10  C   UNL     1      32.403   0.540   3.704  0.00  0.00    +0.000 A 
ENDROOT
BRANCH   9  13
ATOM     11 CL   UNL     1      35.967   4.091   1.833  0.00  0.00    +0.000 Cl
ATOM     12 CL   UNL     1      31.287   6.775   2.596  0.00  0.00    +0.000 Cl
ATOM     13  C   UNL     1      32.324   2.942   3.027  0.00  0.00    +0.000 A 
ATOM     14  C   UNL     1      31.624   4.154   2.996  0.00  0.00    +0.000 A 
ATOM     15  C   UNL     1      33.673   2.967   2.649  0.00  0.00    +0.000 A 
ATOM     16  C   UNL     1      34.300   4.148   2.260  0.00  0.00    +0.000 A 
ATOM     17  C   UNL     1      32.241   5.342   2.601  0.00  0.00    +0.000 A 
ATOM     18  C   UNL     1      33.586   5.344   2.232  0.00  0.00    +0.000 A 
BRANCH  18  19
ATOM     19  O   UNL     1      34.187   6.515   1.849  0.00  0.00    +0.000 OA
ATOM     20  H   UNL     1      34.136   7.143   2.594  0.00  0.00    +0.000 HD
ENDBRANCH  18  19
ENDBRANCH   9  13
BRANCH   5  21
ATOM     21  C   UNL     1      26.169  -0.711   4.691  0.00  0.00    +0.000 C 
ATOM     22  O   UNL     1      25.323  -0.696   3.814  0.00  0.00    +0.000 OA
ATOM     23  C   UNL     1      25.537  -0.816   6.046  0.00  0.00    +0.000 C 
ENDBRANCH   5  21
BRANCH   3  24
ATOM     24  N   UNL     1      27.408   1.721   3.721  0.00  0.00    +0.000 N 
ATOM     25  H   UNL     1      26.839   1.585   2.881  0.00  0.00    +0.000 HD
BRANCH  24  26
ATOM     26  C   UNL     1      26.931   2.700   4.549  0.00  0.00    +0.000 A 
ATOM     27  C   UNL     1      25.509   2.930   4.559  0.00  0.00    +0.000 A 
ATOM     28  C   UNL     1      24.806   4.311   4.608  0.00  0.00    +0.000 A 
ATOM     29  C   UNL     1      25.488   5.583   4.639  0.00  0.00    +0.000 A 
ATOM     30  C   UNL     1      26.911   5.357   4.603  0.00  0.00    +0.000 A 
ATOM     31  C   UNL     1      27.607   3.975   4.553  0.00  0.00    +0.000 A 
BRANCH  29  32
ATOM     32  C   UNL     1      24.868   6.839   4.821  0.00  0.00    +0.000 C 
BRANCH  32  33
ATOM     33  N   UNL     1      24.242   8.134   5.023  0.00  0.00    +0.000 NA
ATOM     34  C   UNL     1      25.228   9.150   4.690  0.00  0.00    +0.000 C 
ATOM     35  C   UNL     1      23.961   8.264   6.443  0.00  0.00    +0.000 C 
ENDBRANCH  32  33
ENDBRANCH  29  32
ENDBRANCH  24  26
ENDBRANCH   3  24
TORSDOF 7
ENDMDL
MODEL 4
REMARK VINA RESULT:      -6.3     39.824     42.122
REMARK  Name = OTSSP167.pdbqt.pdb
REMARK  7 active torsions:
REMARK  status: ('A' for Active; 'I' for Inactive)
REMARK    1  A    between atoms: C_5  and  N_19
REMARK    2  A    between atoms: C_7  and  C_31
REMARK    3  A    between atoms: C_11  and  C_13
REMARK    4  A    between atoms: C_18  and  O_34
REMARK    5  A    between atoms: N_19  and  C_21
REMARK    6  A    between atoms: C_24  and  C_27
REMARK    7  A    between atoms: C_27  and  N_28
REMARK                            x       y       z     vdW  Elec       q    Type
REMARK                         _______ _______ _______ _____ _____    ______ ____
ROOT
ATOM      1  N   UNL     1      50.161 -17.787  17.008  0.00  0.00    +0.000 NA
ATOM      2  N   UNL     1      52.916 -15.696  18.186  0.00  0.00    +0.000 NA
ATOM      3  C   UNL     1      50.751 -15.505  16.396  0.00  0.00    +0.000 A 
ATOM      4  C   UNL     1      50.959 -16.698  17.139  0.00  0.00    +0.000 A 
ATOM      5  C   UNL     1      51.655 -14.439  16.580  0.00  0.00    +0.000 A 
ATOM      6  C   UNL     1      52.066 -16.721  18.013  0.00  0.00    +0.000 A 
ATOM      7  C   UNL     1      52.698 -14.580  17.468  0.00  0.00    +0.000 A 
ATOM      8  C   UNL     1      52.284 -17.882  18.733  0.00  0.00    +0.000 A 
ATOM      9  C   UNL     1      50.392 -18.909  17.733  0.00  0.00    +0.000 A 
ATOM     10  C   UNL     1      51.456 -18.989  18.609  0.00  0.00    +0.000 A 
ENDROOT
BRANCH   9  13
ATOM     11 CL   UNL     1      47.372 -21.566  14.490  0.00  0.00    +0.000 Cl
ATOM     12 CL   UNL     1      47.659 -22.782  19.795  0.00  0.00    +0.000 Cl
ATOM     13  C   UNL     1      49.443 -20.008  17.540  0.00  0.00    +0.000 A 
ATOM     14  C   UNL     1      49.022 -20.813  18.605  0.00  0.00    +0.000 A 
ATOM     15  C   UNL     1      48.910 -20.284  16.274  0.00  0.00    +0.000 A 
ATOM     16  C   UNL     1      47.993 -21.313  16.076  0.00  0.00    +0.000 A 
ATOM     17  C   UNL     1      48.108 -21.851  18.417  0.00  0.00    +0.000 A 
ATOM     18  C   UNL     1      47.588 -22.106  17.148  0.00  0.00    +0.000 A 
BRANCH  18  19
ATOM     19  O   UNL     1      46.688 -23.124  16.970  0.00  0.00    +0.000 OA
ATOM     20  H   UNL     1      47.178 -23.967  16.961  0.00  0.00    +0.000 HD
ENDBRANCH  18  19
ENDBRANCH   9  13
BRANCH   5  21
ATOM     21  C   UNL     1      51.568 -13.183  15.838  0.00  0.00    +0.000 C 
ATOM     22  O   UNL     1      51.606 -13.084  14.623  0.00  0.00    +0.000 OA
ATOM     23  C   UNL     1      51.470 -11.834  16.485  0.00  0.00    +0.000 C 
ENDBRANCH   5  21
BRANCH   3  24
ATOM     24  N   UNL     1      49.612 -15.301  15.552  0.00  0.00    +0.000 N 
ATOM     25  H   UNL     1      49.109 -14.425  15.723  0.00  0.00    +0.000 HD
BRANCH  24  26
ATOM     26  C   UNL     1      49.382 -15.828  14.312  0.00  0.00    +0.000 A 
ATOM     27  C   UNL     1      48.307 -16.777  14.179  0.00  0.00    +0.000 A 
ATOM     28  C   UNL     1      48.333 -18.077  13.334  0.00  0.00    +0.000 A 
ATOM     29  C   UNL     1      49.460 -18.533  12.556  0.00  0.00    +0.000 A 
ATOM     30  C   UNL     1      50.547 -17.598  12.707  0.00  0.00    +0.000 A 
ATOM     31  C   UNL     1      50.515 -16.301  13.554  0.00  0.00    +0.000 A 
BRANCH  29  32
ATOM     32  C   UNL     1      49.453 -19.637  11.676  0.00  0.00    +0.000 C 
BRANCH  32  33
ATOM     33  N   UNL     1      49.457 -20.763  10.758  0.00  0.00    +0.000 NA
ATOM     34  C   UNL     1      48.185 -21.450  10.909  0.00  0.00    +0.000 C 
ATOM     35  C   UNL     1      50.493 -21.681  11.201  0.00  0.00    +0.000 C 
ENDBRANCH  32  33
ENDBRANCH  29  32
ENDBRANCH  24  26
ENDBRANCH   3  24
TORSDOF 7
ENDMDL
MODEL 5
REMARK VINA RESULT:      -6.3     39.172     42.043
REMARK  Name = OTSSP167.pdbqt.pdb
REMARK  7 active torsions:
REMARK  status: ('A' for Active; 'I' for Inactive)
REMARK    1  A    between atoms: C_5  and  N_19
REMARK    2  A    between atoms: C_7  and  C_31
REMARK    3  A    between atoms: C_11  and  C_13
REMARK    4  A    between atoms: C_18  and  O_34
REMARK    5  A    between atoms: N_19  and  C_21
REMARK    6  A    between atoms: C_24  and  C_27
REMARK    7  A    between atoms: C_27  and  N_28
REMARK                            x       y       z     vdW  Elec       q    Type
REMARK                         _______ _______ _______ _____ _____    ______ ____
ROOT
ATOM      1  N   UNL     1      43.303 -16.614  -5.249  0.00  0.00    +0.000 NA
ATOM      2  N   UNL     1      44.197 -14.153  -7.797  0.00  0.00    +0.000 NA
ATOM      3  C   UNL     1      44.901 -14.780  -5.144  0.00  0.00    +0.000 A 
ATOM      4  C   UNL     1      43.937 -15.565  -5.830  0.00  0.00    +0.000 A 
ATOM      5  C   UNL     1      45.482 -13.690  -5.825  0.00  0.00    +0.000 A 
ATOM      6  C   UNL     1      43.633 -15.189  -7.156  0.00  0.00    +0.000 A 
ATOM      7  C   UNL     1      45.105 -13.424  -7.123  0.00  0.00    +0.000 A 
ATOM      8  C   UNL     1      42.687 -15.940  -7.829  0.00  0.00    +0.000 A 
ATOM      9  C   UNL     1      42.387 -17.339  -5.935  0.00  0.00    +0.000 A 
ATOM     10  C   UNL     1      42.052 -17.023  -7.237  0.00  0.00    +0.000 A 
ENDROOT
BRANCH   9  13
ATOM     11 CL   UNL     1      39.147 -21.363  -6.032  0.00  0.00    +0.000 Cl
ATOM     12 CL   UNL     1      41.997 -20.078  -1.569  0.00  0.00    +0.000 Cl
ATOM     13  C   UNL     1      41.795 -18.474  -5.221  0.00  0.00    +0.000 A 
ATOM     14  C   UNL     1      42.112 -18.751  -3.886  0.00  0.00    +0.000 A 
ATOM     15  C   UNL     1      40.874 -19.318  -5.854  0.00  0.00    +0.000 A 
ATOM     16  C   UNL     1      40.288 -20.390  -5.185  0.00  0.00    +0.000 A 
ATOM     17  C   UNL     1      41.536 -19.825  -3.208  0.00  0.00    +0.000 A 
ATOM     18  C   UNL     1      40.618 -20.652  -3.856  0.00  0.00    +0.000 A 
BRANCH  18  19
ATOM     19  O   UNL     1      40.052 -21.703  -3.184  0.00  0.00    +0.000 OA
ATOM     20  H   UNL     1      39.377 -21.350  -2.575  0.00  0.00    +0.000 HD
ENDBRANCH  18  19
ENDBRANCH   9  13
BRANCH   5  21
ATOM     21  C   UNL     1      46.448 -12.786  -5.207  0.00  0.00    +0.000 C 
ATOM     22  O   UNL     1      47.633 -13.029  -5.050  0.00  0.00    +0.000 OA
ATOM     23  C   UNL     1      46.094 -11.447  -4.634  0.00  0.00    +0.000 C 
ENDBRANCH   5  21
BRANCH   3  24
ATOM     24  N   UNL     1      45.384 -15.105  -3.836  0.00  0.00    +0.000 N 
ATOM     25  H   UNL     1      46.403 -15.168  -3.763  0.00  0.00    +0.000 HD
BRANCH  24  26
ATOM     26  C   UNL     1      44.765 -14.891  -2.636  0.00  0.00    +0.000 A 
ATOM     27  C   UNL     1      44.064 -15.999  -2.039  0.00  0.00    +0.000 A 
ATOM     28  C   UNL     1      42.693 -15.932  -1.319  0.00  0.00    +0.000 A 
ATOM     29  C   UNL     1      41.906 -14.734  -1.151  0.00  0.00    +0.000 A 
ATOM     30  C   UNL     1      42.592 -13.629  -1.770  0.00  0.00    +0.000 A 
ATOM     31  C   UNL     1      43.962 -13.701  -2.489  0.00  0.00    +0.000 A 
BRANCH  29  32
ATOM     32  C   UNL     1      40.726 -14.632  -0.382  0.00  0.00    +0.000 C 
BRANCH  32  33
ATOM     33  N   UNL     1      39.503 -14.537   0.396  0.00  0.00    +0.000 NA
ATOM     34  C   UNL     1      38.481 -13.969  -0.467  0.00  0.00    +0.000 C 
ATOM     35  C   UNL     1      39.741 -13.579   1.463  0.00  0.00    +0.000 C 
ENDBRANCH  32  33
ENDBRANCH  29  32
ENDBRANCH  24  26
ENDBRANCH   3  24
TORSDOF 7
ENDMDL
MODEL 6
REMARK VINA RESULT:      -6.2     27.994     31.413
REMARK  Name = OTSSP167.pdbqt.pdb
REMARK  7 active torsions:
REMARK  status: ('A' for Active; 'I' for Inactive)
REMARK    1  A    between atoms: C_5  and  N_19
REMARK    2  A    between atoms: C_7  and  C_31
REMARK    3  A    between atoms: C_11  and  C_13
REMARK    4  A    between atoms: C_18  and  O_34
REMARK    5  A    between atoms: N_19  and  C_21
REMARK    6  A    between atoms: C_24  and  C_27
REMARK    7  A    between atoms: C_27  and  N_28
REMARK                            x       y       z     vdW  Elec       q    Type
REMARK                         _______ _______ _______ _____ _____    ______ ____
ROOT
ATOM      1  N   UNL     1      46.249  -3.940   7.808  0.00  0.00    +0.000 NA
ATOM      2  N   UNL     1      47.577  -6.818   9.627  0.00  0.00    +0.000 NA
ATOM      3  C   UNL     1      46.242  -4.405  10.198  0.00  0.00    +0.000 A 
ATOM      4  C   UNL     1      46.550  -4.749   8.854  0.00  0.00    +0.000 A 
ATOM      5  C   UNL     1      46.625  -5.299  11.219  0.00  0.00    +0.000 A 
ATOM      6  C   UNL     1      47.223  -5.971   8.646  0.00  0.00    +0.000 A 
ATOM      7  C   UNL     1      47.275  -6.467  10.890  0.00  0.00    +0.000 A 
ATOM      8  C   UNL     1      47.538  -6.310   7.342  0.00  0.00    +0.000 A 
ATOM      9  C   UNL     1      46.561  -4.301   6.539  0.00  0.00    +0.000 A 
ATOM     10  C   UNL     1      47.214  -5.489   6.272  0.00  0.00    +0.000 A 
ENDROOT
BRANCH   9  13
ATOM     11 CL   UNL     1      47.679  -2.021   2.039  0.00  0.00    +0.000 Cl
ATOM     12 CL   UNL     1      43.066  -0.948   4.734  0.00  0.00    +0.000 Cl
ATOM     13  C   UNL     1      46.152  -3.370   5.484  0.00  0.00    +0.000 A 
ATOM     14  C   UNL     1      44.947  -2.661   5.553  0.00  0.00    +0.000 A 
ATOM     15  C   UNL     1      46.969  -3.147   4.368  0.00  0.00    +0.000 A 
ATOM     16  C   UNL     1      46.605  -2.252   3.365  0.00  0.00    +0.000 A 
ATOM     17  C   UNL     1      44.570  -1.766   4.551  0.00  0.00    +0.000 A 
ATOM     18  C   UNL     1      45.400  -1.557   3.450  0.00  0.00    +0.000 A 
BRANCH  18  19
ATOM     19  O   UNL     1      45.026  -0.674   2.471  0.00  0.00    +0.000 OA
ATOM     20  H   UNL     1      44.536  -1.166   1.785  0.00  0.00    +0.000 HD
ENDBRANCH  18  19
ENDBRANCH   9  13
BRANCH   5  21
ATOM     21  C   UNL     1      46.402  -5.030  12.638  0.00  0.00    +0.000 C 
ATOM     22  O   UNL     1      47.036  -4.231  13.308  0.00  0.00    +0.000 OA
ATOM     23  C   UNL     1      45.386  -5.746  13.475  0.00  0.00    +0.000 C 
ENDBRANCH   5  21
BRANCH   3  24
ATOM     24  N   UNL     1      45.472  -3.251  10.550  0.00  0.00    +0.000 N 
ATOM     25  H   UNL     1      45.837  -2.368  10.179  0.00  0.00    +0.000 HD
BRANCH  24  26
ATOM     26  C   UNL     1      44.147  -3.195  10.883  0.00  0.00    +0.000 A 
ATOM     27  C   UNL     1      43.185  -3.364   9.824  0.00  0.00    +0.000 A 
ATOM     28  C   UNL     1      41.871  -2.562   9.645  0.00  0.00    +0.000 A 
ATOM     29  C   UNL     1      41.422  -1.508  10.523  0.00  0.00    +0.000 A 
ATOM     30  C   UNL     1      42.395  -1.318  11.569  0.00  0.00    +0.000 A 
ATOM     31  C   UNL     1      43.707  -2.122  11.742  0.00  0.00    +0.000 A 
BRANCH  29  32
ATOM     32  C   UNL     1      40.167  -0.864  10.452  0.00  0.00    +0.000 C 
BRANCH  32  33
ATOM     33  N   UNL     1      38.872  -0.208  10.397  0.00  0.00    +0.000 NA
ATOM     34  C   UNL     1      38.143  -0.778   9.276  0.00  0.00    +0.000 C 
ATOM     35  C   UNL     1      39.107   1.192  10.085  0.00  0.00    +0.000 C 
ENDBRANCH  32  33
ENDBRANCH  29  32
ENDBRANCH  24  26
ENDBRANCH   3  24
TORSDOF 7
ENDMDL
MODEL 7
REMARK VINA RESULT:      -6.2     24.702     27.950
REMARK  Name = OTSSP167.pdbqt.pdb
REMARK  7 active torsions:
REMARK  status: ('A' for Active; 'I' for Inactive)
REMARK    1  A    between atoms: C_5  and  N_19
REMARK    2  A    between atoms: C_7  and  C_31
REMARK    3  A    between atoms: C_11  and  C_13
REMARK    4  A    between atoms: C_18  and  O_34
REMARK    5  A    between atoms: N_19  and  C_21
REMARK    6  A    between atoms: C_24  and  C_27
REMARK    7  A    between atoms: C_27  and  N_28
REMARK                            x       y       z     vdW  Elec       q    Type
REMARK                         _______ _______ _______ _____ _____    ______ ____
ROOT
ATOM      1  N   UNL     1      44.090  -1.857   9.408  0.00  0.00    +0.000 NA
ATOM      2  N   UNL     1      44.201   1.741   8.781  0.00  0.00    +0.000 NA
ATOM      3  C   UNL     1      42.332  -0.360   8.636  0.00  0.00    +0.000 A 
ATOM      4  C   UNL     1      43.659  -0.615   9.073  0.00  0.00    +0.000 A 
ATOM      5  C   UNL     1      41.989   0.961   8.279  0.00  0.00    +0.000 A 
ATOM      6  C   UNL     1      44.540   0.486   9.116  0.00  0.00    +0.000 A 
ATOM      7  C   UNL     1      42.938   1.955   8.368  0.00  0.00    +0.000 A 
ATOM      8  C   UNL     1      45.838   0.246   9.529  0.00  0.00    +0.000 A 
ATOM      9  C   UNL     1      45.366  -2.062   9.818  0.00  0.00    +0.000 A 
ATOM     10  C   UNL     1      46.272  -1.022   9.887  0.00  0.00    +0.000 A 
ENDROOT
BRANCH   9  13
ATOM     11 CL   UNL     1      45.015  -5.866  13.296  0.00  0.00    +0.000 Cl
ATOM     12 CL   UNL     1      47.825  -6.460   8.665  0.00  0.00    +0.000 Cl
ATOM     13  C   UNL     1      45.710  -3.436  10.194  0.00  0.00    +0.000 A 
ATOM     14  C   UNL     1      46.506  -4.246   9.376  0.00  0.00    +0.000 A 
ATOM     15  C   UNL     1      45.260  -3.984  11.402  0.00  0.00    +0.000 A 
ATOM     16  C   UNL     1      45.592  -5.281  11.784  0.00  0.00    +0.000 A 
ATOM     17  C   UNL     1      46.841  -5.549   9.746  0.00  0.00    +0.000 A 
ATOM     18  C   UNL     1      46.385  -6.074  10.955  0.00  0.00    +0.000 A 
BRANCH  18  19
ATOM     19  O   UNL     1      46.719  -7.353  11.314  0.00  0.00    +0.000 OA
ATOM     20  H   UNL     1      47.233  -7.751  10.587  0.00  0.00    +0.000 HD
ENDBRANCH  18  19
ENDBRANCH   9  13
BRANCH   5  21
ATOM     21  C   UNL     1      40.670   1.334   7.773  0.00  0.00    +0.000 C 
ATOM     22  O   UNL     1      39.821   1.936   8.409  0.00  0.00    +0.000 OA
ATOM     23  C   UNL     1      40.166   0.977   6.408  0.00  0.00    +0.000 C 
ENDBRANCH   5  21
BRANCH   3  24
ATOM     24  N   UNL     1      41.304  -1.357   8.641  0.00  0.00    +0.000 N 
ATOM     25  H   UNL     1      41.512  -2.183   8.073  0.00  0.00    +0.000 HD
BRANCH  24  26
ATOM     26  C   UNL     1      40.357  -1.581   9.601  0.00  0.00    +0.000 A 
ATOM     27  C   UNL     1      38.982  -1.324   9.255  0.00  0.00    +0.000 A 
ATOM     28  C   UNL     1      37.921  -0.651  10.165  0.00  0.00    +0.000 A 
ATOM     29  C   UNL     1      38.166  -0.171  11.503  0.00  0.00    +0.000 A 
ATOM     30  C   UNL     1      39.547  -0.404  11.842  0.00  0.00    +0.000 A 
ATOM     31  C   UNL     1      40.604  -1.074  10.930  0.00  0.00    +0.000 A 
BRANCH  29  32
ATOM     32  C   UNL     1      37.181   0.317  12.390  0.00  0.00    +0.000 C 
BRANCH  32  33
ATOM     33  N   UNL     1      36.182   0.826  13.314  0.00  0.00    +0.000 NA
ATOM     34  C   UNL     1      35.935   2.215  12.964  0.00  0.00    +0.000 C 
ATOM     35  C   UNL     1      36.776   0.820  14.641  0.00  0.00    +0.000 C 
ENDBRANCH  32  33
ENDBRANCH  29  32
ENDBRANCH  24  26
ENDBRANCH   3  24
TORSDOF 7
ENDMDL
MODEL 8
REMARK VINA RESULT:      -6.2     16.728     18.645
REMARK  Name = OTSSP167.pdbqt.pdb
REMARK  7 active torsions:
REMARK  status: ('A' for Active; 'I' for Inactive)
REMARK    1  A    between atoms: C_5  and  N_19
REMARK    2  A    between atoms: C_7  and  C_31
REMARK    3  A    between atoms: C_11  and  C_13
REMARK    4  A    between atoms: C_18  and  O_34
REMARK    5  A    between atoms: N_19  and  C_21
REMARK    6  A    between atoms: C_24  and  C_27
REMARK    7  A    between atoms: C_27  and  N_28
REMARK                            x       y       z     vdW  Elec       q    Type
REMARK                         _______ _______ _______ _____ _____    ______ ____
ROOT
ATOM      1  N   UNL     1      28.037   1.114   4.556  0.00  0.00    +0.000 NA
ATOM      2  N   UNL     1      31.423   0.370   3.402  0.00  0.00    +0.000 NA
ATOM      3  C   UNL     1      29.771   2.623   3.751  0.00  0.00    +0.000 A 
ATOM      4  C   UNL     1      29.292   1.329   4.087  0.00  0.00    +0.000 A 
ATOM      5  C   UNL     1      31.080   2.738   3.241  0.00  0.00    +0.000 A 
ATOM      6  C   UNL     1      30.175   0.247   3.882  0.00  0.00    +0.000 A 
ATOM      7  C   UNL     1      31.851   1.607   3.090  0.00  0.00    +0.000 A 
ATOM      8  C   UNL     1      29.714  -1.019   4.196  0.00  0.00    +0.000 A 
ATOM      9  C   UNL     1      27.615  -0.136   4.864  0.00  0.00    +0.000 A 
ATOM     10  C   UNL     1      28.436  -1.233   4.691  0.00  0.00    +0.000 A 
ENDROOT
BRANCH   9  13
ATOM     11 CL   UNL     1      23.681  -3.193   6.235  0.00  0.00    +0.000 Cl
ATOM     12 CL   UNL     1      23.373   2.233   6.629  0.00  0.00    +0.000 Cl
ATOM     13  C   UNL     1      26.256  -0.245   5.401  0.00  0.00    +0.000 A 
ATOM     14  C   UNL     1      25.505   0.887   5.741  0.00  0.00    +0.000 A 
ATOM     15  C   UNL     1      25.652  -1.496   5.579  0.00  0.00    +0.000 A 
ATOM     16  C   UNL     1      24.354  -1.617   6.070  0.00  0.00    +0.000 A 
ATOM     17  C   UNL     1      24.207   0.777   6.240  0.00  0.00    +0.000 A 
ATOM     18  C   UNL     1      23.623  -0.479   6.406  0.00  0.00    +0.000 A 
BRANCH  18  19
ATOM     19  O   UNL     1      22.347  -0.580   6.892  0.00  0.00    +0.000 OA
ATOM     20  H   UNL     1      21.968  -1.426   6.586  0.00  0.00    +0.000 HD
ENDBRANCH  18  19
ENDBRANCH   9  13
BRANCH   5  21
ATOM     21  C   UNL     1      31.663   4.010   2.819  0.00  0.00    +0.000 C 
ATOM     22  O   UNL     1      31.424   5.092   3.328  0.00  0.00    +0.000 OA
ATOM     23  C   UNL     1      32.602   4.156   1.660  0.00  0.00    +0.000 C 
ENDBRANCH   5  21
BRANCH   3  24
ATOM     24  N   UNL     1      29.026   3.819   4.003  0.00  0.00    +0.000 N 
ATOM     25  H   UNL     1      29.589   4.607   4.337  0.00  0.00    +0.000 HD
BRANCH  24  26
ATOM     26  C   UNL     1      27.834   4.197   3.451  0.00  0.00    +0.000 A 
ATOM     27  C   UNL     1      26.748   4.498   4.349  0.00  0.00    +0.000 A 
ATOM     28  C   UNL     1      25.262   4.097   4.153  0.00  0.00    +0.000 A 
ATOM     29  C   UNL     1      24.751   3.347   3.032  0.00  0.00    +0.000 A 
ATOM     30  C   UNL     1      25.839   3.023   2.145  0.00  0.00    +0.000 A 
ATOM     31  C   UNL     1      27.322   3.424   2.345  0.00  0.00    +0.000 A 
BRANCH  29  32
ATOM     32  C   UNL     1      23.386   3.094   2.772  0.00  0.00    +0.000 C 
BRANCH  32  33
ATOM     33  N   UNL     1      21.986   2.814   2.503  0.00  0.00    +0.000 NA
ATOM     34  C   UNL     1      21.563   1.780   3.433  0.00  0.00    +0.000 C 
ATOM     35  C   UNL     1      21.905   2.246   1.168  0.00  0.00    +0.000 C 
ENDBRANCH  32  33
ENDBRANCH  29  32
ENDBRANCH  24  26
ENDBRANCH   3  24
TORSDOF 7
ENDMDL
MODEL 9
REMARK VINA RESULT:      -6.2     38.127     41.266
REMARK  Name = OTSSP167.pdbqt.pdb
REMARK  7 active torsions:
REMARK  status: ('A' for Active; 'I' for Inactive)
REMARK    1  A    between atoms: C_5  and  N_19
REMARK    2  A    between atoms: C_7  and  C_31
REMARK    3  A    between atoms: C_11  and  C_13
REMARK    4  A    between atoms: C_18  and  O_34
REMARK    5  A    between atoms: N_19  and  C_21
REMARK    6  A    between atoms: C_24  and  C_27
REMARK    7  A    between atoms: C_27  and  N_28
REMARK                            x       y       z     vdW  Elec       q    Type
REMARK                         _______ _______ _______ _____ _____    ______ ____
ROOT
ATOM      1  N   UNL     1      40.353 -16.378  -3.218  0.00  0.00    +0.000 NA
ATOM      2  N   UNL     1      37.700 -14.055  -2.262  0.00  0.00    +0.000 NA
ATOM      3  C   UNL     1      40.070 -15.104  -1.162  0.00  0.00    +0.000 A 
ATOM      4  C   UNL     1      39.658 -15.489  -2.466  0.00  0.00    +0.000 A 
ATOM      5  C   UNL     1      39.261 -14.197  -0.447  0.00  0.00    +0.000 A 
ATOM      6  C   UNL     1      38.458 -14.924  -2.949  0.00  0.00    +0.000 A 
ATOM      7  C   UNL     1      38.112 -13.710  -1.028  0.00  0.00    +0.000 A 
ATOM      8  C   UNL     1      38.043 -15.300  -4.214  0.00  0.00    +0.000 A 
ATOM      9  C   UNL     1      39.928 -16.722  -4.458  0.00  0.00    +0.000 A 
ATOM     10  C   UNL     1      38.764 -16.197  -4.987  0.00  0.00    +0.000 A 
ENDROOT
BRANCH   9  13
ATOM     11 CL   UNL     1      43.016 -20.862  -4.326  0.00  0.00    +0.000 Cl
ATOM     12 CL   UNL     1      42.012 -18.174  -8.959  0.00  0.00    +0.000 Cl
ATOM     13  C   UNL     1      40.778 -17.659  -5.195  0.00  0.00    +0.000 A 
ATOM     14  C   UNL     1      40.995 -17.532  -6.572  0.00  0.00    +0.000 A 
ATOM     15  C   UNL     1      41.421 -18.716  -4.537  0.00  0.00    +0.000 A 
ATOM     16  C   UNL     1      42.247 -19.606  -5.218  0.00  0.00    +0.000 A 
ATOM     17  C   UNL     1      41.816 -18.421  -7.266  0.00  0.00    +0.000 A 
ATOM     18  C   UNL     1      42.449 -19.464  -6.590  0.00  0.00    +0.000 A 
BRANCH  18  19
ATOM     19  O   UNL     1      43.257 -20.332  -7.276  0.00  0.00    +0.000 OA
ATOM     20  H   UNL     1      43.995 -19.823  -7.662  0.00  0.00    +0.000 HD
ENDBRANCH  18  19
ENDBRANCH   9  13
BRANCH   5  21
ATOM     21  C   UNL     1      39.559 -13.766   0.917  0.00  0.00    +0.000 C 
ATOM     22  O   UNL     1      40.671 -13.494   1.338  0.00  0.00    +0.000 OA
ATOM     23  C   UNL     1      38.531 -13.649   2.001  0.00  0.00    +0.000 C 
ENDBRANCH   5  21
BRANCH   3  24
ATOM     24  N   UNL     1      41.314 -15.515  -0.585  0.00  0.00    +0.000 N 
ATOM     25  H   UNL     1      41.285 -16.424  -0.114  0.00  0.00    +0.000 HD
BRANCH  24  26
ATOM     26  C   UNL     1      42.575 -15.131  -0.950  0.00  0.00    +0.000 A 
ATOM     27  C   UNL     1      42.726 -13.838  -1.567  0.00  0.00    +0.000 A 
ATOM     28  C   UNL     1      43.646 -13.502  -2.769  0.00  0.00    +0.000 A 
ATOM     29  C   UNL     1      44.487 -14.452  -3.457  0.00  0.00    +0.000 A 
ATOM     30  C   UNL     1      44.317 -15.752  -2.858  0.00  0.00    +0.000 A 
ATOM     31  C   UNL     1      43.396 -16.083  -1.658  0.00  0.00    +0.000 A 
BRANCH  29  32
ATOM     32  C   UNL     1      45.429 -14.135  -4.460  0.00  0.00    +0.000 C 
BRANCH  32  33
ATOM     33  N   UNL     1      46.385 -13.814  -5.506  0.00  0.00    +0.000 NA
ATOM     34  C   UNL     1      47.231 -12.741  -5.007  0.00  0.00    +0.000 C 
ATOM     35  C   UNL     1      45.635 -13.277  -6.629  0.00  0.00    +0.000 C 
ENDBRANCH  32  33
ENDBRANCH  29  32
ENDBRANCH  24  26
ENDBRANCH   3  24
TORSDOF 7
ENDMDL
