MODEL 1
REMARK VINA RESULT:      -6.6      0.000      0.000
REMARK  Name = 
REMARK  0 active torsions:
REMARK  status: ('A' for Active; 'I' for Inactive)
REMARK                            x       y       z     vdW  Elec       q    Type
REMARK                         _______ _______ _______ _____ _____    ______ ____
ROOT
ATOM      1  O   UNL     1      40.366 -16.225  -2.874  0.00  0.00    +0.000 OA
ATOM      2  O   UNL     1      45.358 -16.071  -4.359  0.00  0.00    +0.000 OA
ATOM      3  N   UNL     1      40.339 -16.651  -1.576  0.00  0.00    +0.000 N 
ATOM      4  N   UNL     1      43.801 -15.631  -2.705  0.00  0.00    +0.000 N 
ATOM      5  C   UNL     1      41.720 -16.591  -0.896  0.00  0.00    +0.000 C 
ATOM      6  C   UNL     1      42.279 -15.158  -0.791  0.00  0.00    +0.000 C 
ATOM      7  C   UNL     1      42.745 -17.543  -1.524  0.00  0.00    +0.000 C 
ATOM      8  C   UNL     1      42.848 -14.646  -2.145  0.00  0.00    +0.000 C 
ATOM      9  C   UNL     1      41.241 -14.245  -0.113  0.00  0.00    +0.000 C 
ATOM     10  C   UNL     1      43.293 -16.999  -2.843  0.00  0.00    +0.000 C 
ATOM     11  C   UNL     1      39.374 -15.770  -0.811  0.00  0.00    +0.000 C 
ATOM     12  C   UNL     1      42.191 -18.968  -1.653  0.00  0.00    +0.000 C 
ATOM     13  C   UNL     1      39.840 -18.081  -1.552  0.00  0.00    +0.000 C 
ATOM     14  C   UNL     1      39.863 -14.328  -0.758  0.00  0.00    +0.000 C 
ATOM     15  C   UNL     1      40.800 -19.019  -2.274  0.00  0.00    +0.000 C 
ATOM     16  C   UNL     1      43.484 -13.257  -1.979  0.00  0.00    +0.000 C 
ATOM     17  C   UNL     1      44.186 -12.845  -3.258  0.00  0.00    +0.000 C 
ATOM     18  C   UNL     1      44.793 -15.265  -3.617  0.00  0.00    +0.000 C 
ATOM     19  C   UNL     1      45.287 -13.837  -3.557  0.00  0.00    +0.000 C 
ENDROOT
TORSDOF 0
ENDMDL
MODEL 2
REMARK VINA RESULT:      -6.5     38.134     40.198
REMARK  Name = 
REMARK  0 active torsions:
REMARK  status: ('A' for Active; 'I' for Inactive)
REMARK                            x       y       z     vdW  Elec       q    Type
REMARK                         _______ _______ _______ _____ _____    ______ ____
ROOT
ATOM      1  O   UNL     1      18.927  11.647  16.540  0.00  0.00    +0.000 OA
ATOM      2  O   UNL     1      18.796   8.682  20.823  0.00  0.00    +0.000 OA
ATOM      3  N   UNL     1      20.032  12.447  16.630  0.00  0.00    +0.000 N 
ATOM      4  N   UNL     1      20.074   9.612  19.132  0.00  0.00    +0.000 N 
ATOM      5  C   UNL     1      21.023  11.981  17.714  0.00  0.00    +0.000 C 
ATOM      6  C   UNL     1      21.613  10.584  17.432  0.00  0.00    +0.000 C 
ATOM      7  C   UNL     1      20.449  12.066  19.133  0.00  0.00    +0.000 C 
ATOM      8  C   UNL     1      20.609   9.443  17.762  0.00  0.00    +0.000 C 
ATOM      9  C   UNL     1      22.219  10.554  16.017  0.00  0.00    +0.000 C 
ATOM     10  C   UNL     1      19.481  10.920  19.426  0.00  0.00    +0.000 C 
ATOM     11  C   UNL     1      20.730  12.437  15.287  0.00  0.00    +0.000 C 
ATOM     12  C   UNL     1      19.840  13.445  19.418  0.00  0.00    +0.000 C 
ATOM     13  C   UNL     1      19.578  13.856  16.951  0.00  0.00    +0.000 C 
ATOM     14  C   UNL     1      21.257  11.048  14.946  0.00  0.00    +0.000 C 
ATOM     15  C   UNL     1      18.905  13.928  18.315  0.00  0.00    +0.000 C 
ATOM     16  C   UNL     1      21.264   8.067  17.563  0.00  0.00    +0.000 C 
ATOM     17  C   UNL     1      20.339   6.969  18.053  0.00  0.00    +0.000 C 
ATOM     18  C   UNL     1      19.553   8.540  19.861  0.00  0.00    +0.000 C 
ATOM     19  C   UNL     1      20.083   7.163  19.530  0.00  0.00    +0.000 C 
ENDROOT
TORSDOF 0
ENDMDL
MODEL 3
REMARK VINA RESULT:      -6.3     20.754     22.906
REMARK  Name = 
REMARK  0 active torsions:
REMARK  status: ('A' for Active; 'I' for Inactive)
REMARK                            x       y       z     vdW  Elec       q    Type
REMARK                         _______ _______ _______ _____ _____    ______ ____
ROOT
ATOM      1  O   UNL     1      39.659   1.631  12.574  0.00  0.00    +0.000 OA
ATOM      2  O   UNL     1      39.075   2.141   7.421  0.00  0.00    +0.000 OA
ATOM      3  N   UNL     1      38.692   2.390  13.172  0.00  0.00    +0.000 N 
ATOM      4  N   UNL     1      38.058   1.861   9.482  0.00  0.00    +0.000 N 
ATOM      5  C   UNL     1      37.580   2.821  12.197  0.00  0.00    +0.000 C 
ATOM      6  C   UNL     1      36.793   1.630  11.614  0.00  0.00    +0.000 C 
ATOM      7  C   UNL     1      38.078   3.754  11.088  0.00  0.00    +0.000 C 
ATOM      8  C   UNL     1      37.582   0.893  10.495  0.00  0.00    +0.000 C 
ATOM      9  C   UNL     1      36.270   0.744  12.760  0.00  0.00    +0.000 C 
ATOM     10  C   UNL     1      38.833   2.993   9.999  0.00  0.00    +0.000 C 
ATOM     11  C   UNL     1      38.078   1.573  14.290  0.00  0.00    +0.000 C 
ATOM     12  C   UNL     1      38.881   4.932  11.654  0.00  0.00    +0.000 C 
ATOM     13  C   UNL     1      39.344   3.627  13.754  0.00  0.00    +0.000 C 
ATOM     14  C   UNL     1      37.358   0.344  13.748  0.00  0.00    +0.000 C 
ATOM     15  C   UNL     1      39.942   4.507  12.663  0.00  0.00    +0.000 C 
ATOM     16  C   UNL     1      36.729  -0.224   9.872  0.00  0.00    +0.000 C 
ATOM     17  C   UNL     1      37.439  -0.818   8.671  0.00  0.00    +0.000 C 
ATOM     18  C   UNL     1      38.361   1.475   8.174  0.00  0.00    +0.000 C 
ATOM     19  C   UNL     1      37.639   0.262   7.633  0.00  0.00    +0.000 C 
ENDROOT
TORSDOF 0
ENDMDL
MODEL 4
REMARK VINA RESULT:      -6.2     20.492     22.656
REMARK  Name = 
REMARK  0 active torsions:
REMARK  status: ('A' for Active; 'I' for Inactive)
REMARK                            x       y       z     vdW  Elec       q    Type
REMARK                         _______ _______ _______ _____ _____    ______ ____
ROOT
ATOM      1  O   UNL     1      39.825   0.376  10.717  0.00  0.00    +0.000 OA
ATOM      2  O   UNL     1      35.927   0.831  14.144  0.00  0.00    +0.000 OA
ATOM      3  N   UNL     1      39.349   0.779   9.501  0.00  0.00    +0.000 N 
ATOM      4  N   UNL     1      37.070   1.754  12.356  0.00  0.00    +0.000 N 
ATOM      5  C   UNL     1      38.016   1.544   9.602  0.00  0.00    +0.000 C 
ATOM      6  C   UNL     1      38.134   2.861  10.395  0.00  0.00    +0.000 C 
ATOM      7  C   UNL     1      36.862   0.681  10.127  0.00  0.00    +0.000 C 
ATOM      8  C   UNL     1      38.192   2.621  11.931  0.00  0.00    +0.000 C 
ATOM      9  C   UNL     1      39.271   3.718   9.809  0.00  0.00    +0.000 C 
ATOM     10  C   UNL     1      36.943   0.481  11.640  0.00  0.00    +0.000 C 
ATOM     11  C   UNL     1      40.387   1.679   8.864  0.00  0.00    +0.000 C 
ATOM     12  C   UNL     1      36.748  -0.642   9.359  0.00  0.00    +0.000 C 
ATOM     13  C   UNL     1      39.148  -0.447   8.634  0.00  0.00    +0.000 C 
ATOM     14  C   UNL     1      40.582   2.957   9.671  0.00  0.00    +0.000 C 
ATOM     15  C   UNL     1      38.080  -1.368   9.210  0.00  0.00    +0.000 C 
ATOM     16  C   UNL     1      38.210   3.957  12.691  0.00  0.00    +0.000 C 
ATOM     17  C   UNL     1      38.090   3.714  14.183  0.00  0.00    +0.000 C 
ATOM     18  C   UNL     1      36.590   1.754  13.668  0.00  0.00    +0.000 C 
ATOM     19  C   UNL     1      36.774   3.025  14.465  0.00  0.00    +0.000 C 
ENDROOT
TORSDOF 0
ENDMDL
MODEL 5
REMARK VINA RESULT:      -6.0     38.951     40.565
REMARK  Name = 
REMARK  0 active torsions:
REMARK  status: ('A' for Active; 'I' for Inactive)
REMARK                            x       y       z     vdW  Elec       q    Type
REMARK                         _______ _______ _______ _____ _____    ______ ____
ROOT
ATOM      1  O   UNL     1      50.846   3.846  31.088  0.00  0.00    +0.000 OA
ATOM      2  O   UNL     1      51.016   8.126  34.054  0.00  0.00    +0.000 OA
ATOM      3  N   UNL     1      49.904   4.056  30.120  0.00  0.00    +0.000 N 
ATOM      4  N   UNL     1      50.880   7.234  31.923  0.00  0.00    +0.000 N 
ATOM      5  C   UNL     1      49.492   5.536  29.995  0.00  0.00    +0.000 C 
ATOM      6  C   UNL     1      50.656   6.452  29.568  0.00  0.00    +0.000 C 
ATOM      7  C   UNL     1      48.791   6.074  31.248  0.00  0.00    +0.000 C 
ATOM      8  C   UNL     1      51.632   6.751  30.742  0.00  0.00    +0.000 C 
ATOM      9  C   UNL     1      51.303   5.903  28.284  0.00  0.00    +0.000 C 
ATOM     10  C   UNL     1      49.782   6.372  32.372  0.00  0.00    +0.000 C 
ATOM     11  C   UNL     1      50.476   3.590  28.797  0.00  0.00    +0.000 C 
ATOM     12  C   UNL     1      47.643   5.159  31.695  0.00  0.00    +0.000 C 
ATOM     13  C   UNL     1      48.679   3.231  30.456  0.00  0.00    +0.000 C 
ATOM     14  C   UNL     1      51.679   4.431  28.387  0.00  0.00    +0.000 C 
ATOM     15  C   UNL     1      48.039   3.688  31.760  0.00  0.00    +0.000 C 
ATOM     16  C   UNL     1      52.721   7.744  30.306  0.00  0.00    +0.000 C 
ATOM     17  C   UNL     1      53.558   8.163  31.499  0.00  0.00    +0.000 C 
ATOM     18  C   UNL     1      51.481   8.007  32.918  0.00  0.00    +0.000 C 
ATOM     19  C   UNL     1      52.668   8.849  32.509  0.00  0.00    +0.000 C 
ENDROOT
TORSDOF 0
ENDMDL
MODEL 6
REMARK VINA RESULT:      -5.8      1.701      4.743
REMARK  Name = 
REMARK  0 active torsions:
REMARK  status: ('A' for Active; 'I' for Inactive)
REMARK                            x       y       z     vdW  Elec       q    Type
REMARK                         _______ _______ _______ _____ _____    ______ ____
ROOT
ATOM      1  O   UNL     1      41.818 -16.189  -4.439  0.00  0.00    +0.000 OA
ATOM      2  O   UNL     1      41.294 -13.344  -0.106  0.00  0.00    +0.000 OA
ATOM      3  N   UNL     1      42.747 -17.159  -4.182  0.00  0.00    +0.000 N 
ATOM      4  N   UNL     1      41.514 -15.449  -1.043  0.00  0.00    +0.000 N 
ATOM      5  C   UNL     1      43.042 -17.323  -2.678  0.00  0.00    +0.000 C 
ATOM      6  C   UNL     1      41.813 -17.779  -1.868  0.00  0.00    +0.000 C 
ATOM      7  C   UNL     1      43.691 -16.083  -2.052  0.00  0.00    +0.000 C 
ATOM      8  C   UNL     1      40.809 -16.618  -1.615  0.00  0.00    +0.000 C 
ATOM      9  C   UNL     1      41.218 -19.051  -2.501  0.00  0.00    +0.000 C 
ATOM     10  C   UNL     1      42.673 -14.971  -1.803  0.00  0.00    +0.000 C 
ATOM     11  C   UNL     1      42.222 -18.470  -4.727  0.00  0.00    +0.000 C 
ATOM     12  C   UNL     1      44.904 -15.606  -2.862  0.00  0.00    +0.000 C 
ATOM     13  C   UNL     1      44.031 -16.796  -4.899  0.00  0.00    +0.000 C 
ATOM     14  C   UNL     1      40.959 -18.908  -3.995  0.00  0.00    +0.000 C 
ATOM     15  C   UNL     1      44.625 -15.502  -4.357  0.00  0.00    +0.000 C 
ATOM     16  C   UNL     1      39.648 -17.086  -0.723  0.00  0.00    +0.000 C 
ATOM     17  C   UNL     1      38.773 -15.909  -0.340  0.00  0.00    +0.000 C 
ATOM     18  C   UNL     1      40.847 -14.477  -0.293  0.00  0.00    +0.000 C 
ATOM     19  C   UNL     1      39.600 -14.914   0.442  0.00  0.00    +0.000 C 
ENDROOT
TORSDOF 0
ENDMDL
MODEL 7
REMARK VINA RESULT:      -5.6     18.692     20.498
REMARK  Name = 
REMARK  0 active torsions:
REMARK  status: ('A' for Active; 'I' for Inactive)
REMARK                            x       y       z     vdW  Elec       q    Type
REMARK                         _______ _______ _______ _____ _____    ______ ____
ROOT
ATOM      1  O   UNL     1      39.084   1.321   8.759  0.00  0.00    +0.000 OA
ATOM      2  O   UNL     1      41.794  -3.048   9.607  0.00  0.00    +0.000 OA
ATOM      3  N   UNL     1      38.025   1.319   9.623  0.00  0.00    +0.000 N 
ATOM      4  N   UNL     1      40.642  -1.259  10.518  0.00  0.00    +0.000 N 
ATOM      5  C   UNL     1      38.173   0.281  10.752  0.00  0.00    +0.000 C 
ATOM      6  C   UNL     1      39.382   0.555  11.668  0.00  0.00    +0.000 C 
ATOM      7  C   UNL     1      38.176  -1.166  10.245  0.00  0.00    +0.000 C 
ATOM      8  C   UNL     1      40.728   0.134  11.011  0.00  0.00    +0.000 C 
ATOM      9  C   UNL     1      39.318   2.002  12.192  0.00  0.00    +0.000 C 
ATOM     10  C   UNL     1      39.518  -1.548   9.622  0.00  0.00    +0.000 C 
ATOM     11  C   UNL     1      37.913   2.700  10.234  0.00  0.00    +0.000 C 
ATOM     12  C   UNL     1      36.989  -1.445   9.315  0.00  0.00    +0.000 C 
ATOM     13  C   UNL     1      36.766   1.014   8.837  0.00  0.00    +0.000 C 
ATOM     14  C   UNL     1      39.134   3.030  11.084  0.00  0.00    +0.000 C 
ATOM     15  C   UNL     1      36.810  -0.384   8.234  0.00  0.00    +0.000 C 
ATOM     16  C   UNL     1      41.897   0.330  11.989  0.00  0.00    +0.000 C 
ATOM     17  C   UNL     1      43.173  -0.245  11.404  0.00  0.00    +0.000 C 
ATOM     18  C   UNL     1      41.779  -2.048  10.327  0.00  0.00    +0.000 C 
ATOM     19  C   UNL     1      42.986  -1.727  11.179  0.00  0.00    +0.000 C 
ENDROOT
TORSDOF 0
ENDMDL
MODEL 8
REMARK VINA RESULT:      -5.6     47.286     49.048
REMARK  Name = 
REMARK  0 active torsions:
REMARK  status: ('A' for Active; 'I' for Inactive)
REMARK                            x       y       z     vdW  Elec       q    Type
REMARK                         _______ _______ _______ _____ _____    ______ ____
ROOT
ATOM      1  O   UNL     1      17.136   6.065  36.156  0.00  0.00    +0.000 OA
ATOM      2  O   UNL     1      14.337   2.785  33.230  0.00  0.00    +0.000 OA
ATOM      3  N   UNL     1      18.274   5.407  36.533  0.00  0.00    +0.000 N 
ATOM      4  N   UNL     1      16.423   3.644  33.746  0.00  0.00    +0.000 N 
ATOM      5  C   UNL     1      18.524   4.126  35.715  0.00  0.00    +0.000 C 
ATOM      6  C   UNL     1      18.749   4.401  34.215  0.00  0.00    +0.000 C 
ATOM      7  C   UNL     1      17.449   3.054  35.928  0.00  0.00    +0.000 C 
ATOM      8  C   UNL     1      17.420   4.702  33.465  0.00  0.00    +0.000 C 
ATOM      9  C   UNL     1      19.866   5.447  34.042  0.00  0.00    +0.000 C 
ATOM     10  C   UNL     1      16.165   3.374  35.163  0.00  0.00    +0.000 C 
ATOM     11  C   UNL     1      19.445   6.348  36.346  0.00  0.00    +0.000 C 
ATOM     12  C   UNL     1      17.201   2.786  37.418  0.00  0.00    +0.000 C 
ATOM     13  C   UNL     1      18.153   5.041  37.997  0.00  0.00    +0.000 C 
ATOM     14  C   UNL     1      19.643   6.701  34.876  0.00  0.00    +0.000 C 
ATOM     15  C   UNL     1      17.012   4.059  38.234  0.00  0.00    +0.000 C 
ATOM     16  C   UNL     1      17.671   4.874  31.958  0.00  0.00    +0.000 C 
ATOM     17  C   UNL     1      16.354   4.992  31.216  0.00  0.00    +0.000 C 
ATOM     18  C   UNL     1      15.357   3.384  32.882  0.00  0.00    +0.000 C 
ATOM     19  C   UNL     1      15.557   3.724  31.423  0.00  0.00    +0.000 C 
ENDROOT
TORSDOF 0
ENDMDL
MODEL 9
REMARK VINA RESULT:      -5.5     24.000     25.281
REMARK  Name = 
REMARK  0 active torsions:
REMARK  status: ('A' for Active; 'I' for Inactive)
REMARK                            x       y       z     vdW  Elec       q    Type
REMARK                         _______ _______ _______ _____ _____    ______ ____
ROOT
ATOM      1  O   UNL     1      24.200   1.316   4.322  0.00  0.00    +0.000 OA
ATOM      2  O   UNL     1      22.034  -1.831   7.866  0.00  0.00    +0.000 OA
ATOM      3  N   UNL     1      25.269   0.654   3.787  0.00  0.00    +0.000 N 
ATOM      4  N   UNL     1      22.987  -1.620   5.768  0.00  0.00    +0.000 N 
ATOM      5  C   UNL     1      25.265  -0.853   4.110  0.00  0.00    +0.000 C 
ATOM      6  C   UNL     1      24.050  -1.594   3.516  0.00  0.00    +0.000 C 
ATOM      7  C   UNL     1      25.420  -1.150   5.606  0.00  0.00    +0.000 C 
ATOM      8  C   UNL     1      22.750  -1.345   4.332  0.00  0.00    +0.000 C 
ATOM      9  C   UNL     1      23.957  -1.307   2.006  0.00  0.00    +0.000 C 
ATOM     10  C   UNL     1      24.119  -0.911   6.372  0.00  0.00    +0.000 C 
ATOM     11  C   UNL     1      25.232   0.836   2.284  0.00  0.00    +0.000 C 
ATOM     12  C   UNL     1      26.613  -0.401   6.213  0.00  0.00    +0.000 C 
ATOM     13  C   UNL     1      26.539   1.271   4.336  0.00  0.00    +0.000 C 
ATOM     14  C   UNL     1      23.998   0.179   1.677  0.00  0.00    +0.000 C 
ATOM     15  C   UNL     1      26.646   1.077   5.844  0.00  0.00    +0.000 C 
ATOM     16  C   UNL     1      21.586  -2.176   3.770  0.00  0.00    +0.000 C 
ATOM     17  C   UNL     1      20.374  -2.061   4.675  0.00  0.00    +0.000 C 
ATOM     18  C   UNL     1      21.946  -1.942   6.642  0.00  0.00    +0.000 C 
ATOM     19  C   UNL     1      20.727  -2.604   6.041  0.00  0.00    +0.000 C 
ENDROOT
TORSDOF 0
ENDMDL
