MODEL 1
REMARK VINA RESULT:      -7.2      0.000      0.000
REMARK  Name = 
REMARK  23 active torsions:
REMARK  status: ('A' for Active; 'I' for Inactive)
REMARK    1  A    between atoms: O_2  and  C_17
REMARK    2  A    between atoms: O_2  and  C_36
REMARK    3  A    between atoms: O_3  and  C_20
REMARK    4  A    between atoms: O_3  and  C_37
REMARK    5  A    between atoms: O_4  and  C_21
REMARK    6  A    between atoms: O_5  and  C_22
REMARK    7  A    between atoms: O_6  and  C_30
REMARK    8  A    between atoms: O_6  and  C_39
REMARK    9  A    between atoms: O_8  and  C_31
REMARK   10  A    between atoms: O_8  and  C_40
REMARK   11  A    between atoms: O_13  and  C_42
REMARK   12  A    between atoms: N_15  and  C_46
REMARK   13  A    between atoms: C_18  and  C_29
REMARK   14  A    between atoms: C_24  and  C_33
REMARK   15  A    between atoms: C_24  and  C_34
REMARK   16  A    between atoms: C_32  and  C_35
REMARK   17  A    between atoms: C_36  and  C_38
REMARK   18  A    between atoms: C_37  and  C_41
REMARK   19  A    between atoms: C_39  and  C_43
REMARK   20  A    between atoms: C_40  and  C_42
REMARK   21  A    between atoms: C_42  and  C_46
REMARK   22  A    between atoms: C_46  and  C_50
REMARK   23  A    between atoms: C_53  and  C_56
REMARK                            x       y       z     vdW  Elec       q    Type
REMARK                         _______ _______ _______ _____ _____    ______ ____
ROOT
ATOM      1  O   UNL     1      44.921 -13.056  -2.412  0.00  0.00    +0.000 OA
ATOM      2  O   UNL     1      42.149 -12.738  -8.467  0.00  0.00    +0.000 OA
ATOM      3  C   UNL     1      41.937 -12.942  -4.121  0.00  0.00    +0.000 C 
ATOM      4  C   UNL     1      42.999 -13.591  -3.187  0.00  0.00    +0.000 C 
ATOM      5  C   UNL     1      42.396 -13.419  -5.899  0.00  0.00    +0.000 C 
ATOM      6  C   UNL     1      44.235 -12.717  -3.649  0.00  0.00    +0.000 C 
ATOM      7  C   UNL     1      40.206 -13.148  -3.458  0.00  0.00    +0.000 C 
ATOM      8  C   UNL     1      38.399 -12.779  -3.891  0.00  0.00    +0.000 C 
ATOM      9  C   UNL     1      43.847 -12.810  -6.100  0.00  0.00    +0.000 C 
ATOM     10  C   UNL     1      44.869 -13.113  -4.963  0.00  0.00    +0.000 C 
ATOM     11  C   UNL     1      37.721 -12.230  -5.436  0.00  0.00    +0.000 C 
ATOM     12  C   UNL     1      43.575 -13.104  -1.799  0.00  0.00    +0.000 C 
ATOM     13  C   UNL     1      41.446 -13.016  -7.472  0.00  0.00    +0.000 C 
ATOM     14  C   UNL     1      37.621 -14.164  -3.730  0.00  0.00    +0.000 C 
ATOM     15  C   UNL     1      38.147 -13.192  -6.650  0.00  0.00    +0.000 C 
ATOM     16  C   UNL     1      42.640 -14.976  -6.067  0.00  0.00    +0.000 C 
ATOM     17  C   UNL     1      39.547 -12.949  -7.751  0.00  0.00    +0.000 C 
ATOM     18  C   UNL     1      37.377 -15.054  -5.032  0.00  0.00    +0.000 C 
ATOM     19  C   UNL     1      37.694 -14.476  -6.460  0.00  0.00    +0.000 C 
ATOM     20  C   UNL     1      36.120 -12.331  -5.290  0.00  0.00    +0.000 C 
ATOM     21  C   UNL     1      37.731 -10.705  -5.775  0.00  0.00    +0.000 C 
ATOM     22  C   UNL     1      37.723 -15.515  -7.554  0.00  0.00    +0.000 C 
ENDROOT
BRANCH   9  23
ATOM     23  O   UNL     1      43.747 -11.390  -6.201  0.00  0.00    +0.000 OA
ATOM     24  H   UNL     1      42.797 -11.190  -6.322  0.00  0.00    +0.000 HD
ENDBRANCH   9  23
BRANCH   8  25
ATOM     25  O   UNL     1      37.919 -11.913  -2.845  0.00  0.00    +0.000 OA
ATOM     26  H   UNL     1      36.952 -12.006  -2.781  0.00  0.00    +0.000 HD
ENDBRANCH   8  25
BRANCH  18  27
ATOM     27  O   UNL     1      38.166 -16.273  -4.897  0.00  0.00    +0.000 OA
BRANCH  27  29
ATOM     28  O   UNL     1      36.439 -17.660  -5.363  0.00  0.00    +0.000 OA
ATOM     29  C   UNL     1      37.479 -17.435  -4.752  0.00  0.00    +0.000 C 
BRANCH  29  30
ATOM     30  C   UNL     1      38.019 -18.359  -3.656  0.00  0.00    +0.000 C 
BRANCH  30  31
ATOM     31  O   UNL     1      38.158 -17.759  -2.363  0.00  0.00    +0.000 OA
ATOM     32  H   UNL     1      38.093 -16.796  -2.503  0.00  0.00    +0.000 HD
ENDBRANCH  30  31
BRANCH  30  33
ATOM     33  C   UNL     1      39.379 -18.937  -4.138  0.00  0.00    +0.000 C 
BRANCH  33  34
ATOM     34  C   UNL     1      39.162 -20.012  -5.193  0.00  0.00    +0.000 A 
ATOM     35  C   UNL     1      38.524 -21.213  -4.834  0.00  0.00    +0.000 A 
ATOM     36  C   UNL     1      39.608 -19.859  -6.515  0.00  0.00    +0.000 A 
ATOM     37  C   UNL     1      38.323 -22.223  -5.776  0.00  0.00    +0.000 A 
ATOM     38  C   UNL     1      39.404 -20.870  -7.456  0.00  0.00    +0.000 A 
ATOM     39  C   UNL     1      38.760 -22.050  -7.087  0.00  0.00    +0.000 A 
ENDBRANCH  33  34
BRANCH  33  41
ATOM     40  O   UNL     1      42.002 -19.629  -1.746  0.00  0.00    +0.000 OA
ATOM     41  N   UNL     1      40.144 -19.462  -3.000  0.00  0.00    +0.000 N 
ATOM     42  C   UNL     1      41.498 -19.605  -2.865  0.00  0.00    +0.000 C 
ATOM     43  H   UNL     1      39.645 -19.462  -2.116  0.00  0.00    +0.000 HD
BRANCH  42  44
ATOM     44  C   UNL     1      42.367 -19.684  -4.061  0.00  0.00    +0.000 A 
ATOM     45  C   UNL     1      42.693 -18.544  -4.803  0.00  0.00    +0.000 A 
ATOM     46  C   UNL     1      42.806 -20.943  -4.487  0.00  0.00    +0.000 A 
ATOM     47  C   UNL     1      43.507 -18.658  -5.931  0.00  0.00    +0.000 A 
ATOM     48  C   UNL     1      43.617 -21.055  -5.616  0.00  0.00    +0.000 A 
ATOM     49  C   UNL     1      43.974 -19.911  -6.331  0.00  0.00    +0.000 A 
ENDBRANCH  42  44
ENDBRANCH  33  41
ENDBRANCH  30  33
ENDBRANCH  29  30
ENDBRANCH  27  29
ENDBRANCH  18  27
BRANCH  17  50
ATOM     50  O   UNL     1      39.146 -11.823  -8.563  0.00  0.00    +0.000 OA
BRANCH  50  52
ATOM     51  O   UNL     1      38.297 -10.995 -10.461  0.00  0.00    +0.000 OA
ATOM     52  C   UNL     1      38.822 -11.935  -9.871  0.00  0.00    +0.000 C 
ATOM     53  C   UNL     1      39.041 -13.259 -10.538  0.00  0.00    +0.000 C 
ENDBRANCH  50  52
ENDBRANCH  17  50
BRANCH   7  54
ATOM     54  O   UNL     1      40.138 -14.214  -4.227  0.00  0.00    +0.000 OA
BRANCH  54  56
ATOM     55  O   UNL     1      40.570 -16.103  -3.695  0.00  0.00    +0.000 OA
ATOM     56  C   UNL     1      40.329 -15.035  -3.141  0.00  0.00    +0.000 C 
BRANCH  56  57
ATOM     57  C   UNL     1      39.936 -14.538  -1.335  0.00  0.00    +0.000 A 
ATOM     58  C   UNL     1      40.914 -14.064  -0.358  0.00  0.00    +0.000 A 
ATOM     59  C   UNL     1      38.650 -14.428  -0.725  0.00  0.00    +0.000 A 
ATOM     60  C   UNL     1      40.655 -13.580   0.949  0.00  0.00    +0.000 A 
ATOM     61  C   UNL     1      38.370 -13.947   0.586  0.00  0.00    +0.000 A 
ATOM     62  C   UNL     1      39.371 -13.519   1.424  0.00  0.00    +0.000 A 
ENDBRANCH  56  57
ENDBRANCH  54  56
ENDBRANCH   7  54
BRANCH   4  63
ATOM     63  O   UNL     1      43.148 -15.010  -3.428  0.00  0.00    +0.000 OA
BRANCH  63  65
ATOM     64  O   UNL     1      45.072 -16.094  -3.077  0.00  0.00    +0.000 OA
ATOM     65  C   UNL     1      43.932 -15.835  -2.696  0.00  0.00    +0.000 C 
ATOM     66  C   UNL     1      43.361 -16.515  -1.493  0.00  0.00    +0.000 C 
ENDBRANCH  63  65
ENDBRANCH   4  63
TORSDOF 17
ENDMDL
MODEL 2
REMARK VINA RESULT:      -7.1      2.471      5.754
REMARK  Name = 
REMARK  23 active torsions:
REMARK  status: ('A' for Active; 'I' for Inactive)
REMARK    1  A    between atoms: O_2  and  C_17
REMARK    2  A    between atoms: O_2  and  C_36
REMARK    3  A    between atoms: O_3  and  C_20
REMARK    4  A    between atoms: O_3  and  C_37
REMARK    5  A    between atoms: O_4  and  C_21
REMARK    6  A    between atoms: O_5  and  C_22
REMARK    7  A    between atoms: O_6  and  C_30
REMARK    8  A    between atoms: O_6  and  C_39
REMARK    9  A    between atoms: O_8  and  C_31
REMARK   10  A    between atoms: O_8  and  C_40
REMARK   11  A    between atoms: O_13  and  C_42
REMARK   12  A    between atoms: N_15  and  C_46
REMARK   13  A    between atoms: C_18  and  C_29
REMARK   14  A    between atoms: C_24  and  C_33
REMARK   15  A    between atoms: C_24  and  C_34
REMARK   16  A    between atoms: C_32  and  C_35
REMARK   17  A    between atoms: C_36  and  C_38
REMARK   18  A    between atoms: C_37  and  C_41
REMARK   19  A    between atoms: C_39  and  C_43
REMARK   20  A    between atoms: C_40  and  C_42
REMARK   21  A    between atoms: C_42  and  C_46
REMARK   22  A    between atoms: C_46  and  C_50
REMARK   23  A    between atoms: C_53  and  C_56
REMARK                            x       y       z     vdW  Elec       q    Type
REMARK                         _______ _______ _______ _____ _____    ______ ____
ROOT
ATOM      1  O   UNL     1      39.397 -14.123   0.614  0.00  0.00    +0.000 OA
ATOM      2  O   UNL     1      35.800 -12.064  -4.609  0.00  0.00    +0.000 OA
ATOM      3  C   UNL     1      38.208 -15.012  -2.490  0.00  0.00    +0.000 C 
ATOM      4  C   UNL     1      39.319 -14.700  -1.446  0.00  0.00    +0.000 C 
ATOM      5  C   UNL     1      37.727 -13.364  -3.297  0.00  0.00    +0.000 C 
ATOM      6  C   UNL     1      38.421 -13.877  -0.435  0.00  0.00    +0.000 C 
ATOM      7  C   UNL     1      38.606 -16.528  -3.500  0.00  0.00    +0.000 C 
ATOM      8  C   UNL     1      37.940 -17.569  -4.936  0.00  0.00    +0.000 C 
ATOM      9  C   UNL     1      37.205 -12.479  -2.089  0.00  0.00    +0.000 C 
ATOM     10  C   UNL     1      38.123 -12.448  -0.829  0.00  0.00    +0.000 C 
ATOM     11  C   UNL     1      36.626 -17.187  -6.064  0.00  0.00    +0.000 C 
ATOM     12  C   UNL     1      39.661 -15.406  -0.075  0.00  0.00    +0.000 C 
ATOM     13  C   UNL     1      36.503 -13.093  -4.700  0.00  0.00    +0.000 C 
ATOM     14  C   UNL     1      39.151 -17.712  -5.968  0.00  0.00    +0.000 C 
ATOM     15  C   UNL     1      36.848 -15.767  -6.779  0.00  0.00    +0.000 C 
ATOM     16  C   UNL     1      38.985 -12.550  -3.814  0.00  0.00    +0.000 C 
ATOM     17  C   UNL     1      36.169 -14.192  -6.240  0.00  0.00    +0.000 C 
ATOM     18  C   UNL     1      39.220 -16.702  -7.201  0.00  0.00    +0.000 C 
ATOM     19  C   UNL     1      38.010 -15.747  -7.515  0.00  0.00    +0.000 C 
ATOM     20  C   UNL     1      36.676 -18.312  -7.216  0.00  0.00    +0.000 C 
ATOM     21  C   UNL     1      35.150 -17.486  -5.646  0.00  0.00    +0.000 C 
ATOM     22  C   UNL     1      38.332 -14.643  -8.491  0.00  0.00    +0.000 C 
ENDROOT
BRANCH   9  23
ATOM     23  O   UNL     1      35.934 -12.972  -1.665  0.00  0.00    +0.000 OA
ATOM     24  H   UNL     1      35.389 -13.058  -2.473  0.00  0.00    +0.000 HD
ENDBRANCH   9  23
BRANCH   8  25
ATOM     25  O   UNL     1      37.710 -18.882  -4.388  0.00  0.00    +0.000 OA
ATOM     26  H   UNL     1      38.291 -19.517  -4.843  0.00  0.00    +0.000 HD
ENDBRANCH   8  25
BRANCH  18  27
ATOM     27  O   UNL     1      40.384 -15.845  -7.016  0.00  0.00    +0.000 OA
BRANCH  27  29
ATOM     28  O   UNL     1      41.264 -16.641  -8.943  0.00  0.00    +0.000 OA
ATOM     29  C   UNL     1      41.381 -15.957  -7.932  0.00  0.00    +0.000 C 
BRANCH  29  30
ATOM     30  C   UNL     1      42.700 -15.298  -7.517  0.00  0.00    +0.000 C 
BRANCH  30  31
ATOM     31  O   UNL     1      43.530 -14.856  -8.598  0.00  0.00    +0.000 OA
ATOM     32  H   UNL     1      43.467 -15.545  -9.286  0.00  0.00    +0.000 HD
ENDBRANCH  30  31
BRANCH  30  33
ATOM     33  C   UNL     1      43.472 -16.293  -6.608  0.00  0.00    +0.000 C 
BRANCH  33  34
ATOM     34  C   UNL     1      44.112 -15.563  -5.435  0.00  0.00    +0.000 A 
ATOM     35  C   UNL     1      44.081 -14.159  -5.396  0.00  0.00    +0.000 A 
ATOM     36  C   UNL     1      44.765 -16.249  -4.399  0.00  0.00    +0.000 A 
ATOM     37  C   UNL     1      44.670 -13.461  -4.340  0.00  0.00    +0.000 A 
ATOM     38  C   UNL     1      45.352 -15.550  -3.343  0.00  0.00    +0.000 A 
ATOM     39  C   UNL     1      45.303 -14.157  -3.312  0.00  0.00    +0.000 A 
ENDBRANCH  33  34
BRANCH  33  41
ATOM     40  O   UNL     1      45.133 -18.670  -8.769  0.00  0.00    +0.000 OA
ATOM     41  N   UNL     1      44.481 -17.022  -7.388  0.00  0.00    +0.000 N 
ATOM     42  C   UNL     1      44.481 -18.331  -7.786  0.00  0.00    +0.000 C 
ATOM     43  H   UNL     1      45.111 -16.433  -7.924  0.00  0.00    +0.000 HD
BRANCH  42  44
ATOM     44  C   UNL     1      43.663 -19.334  -7.069  0.00  0.00    +0.000 A 
ATOM     45  C   UNL     1      44.225 -20.185  -6.112  0.00  0.00    +0.000 A 
ATOM     46  C   UNL     1      42.314 -19.469  -7.418  0.00  0.00    +0.000 A 
ATOM     47  C   UNL     1      43.424 -21.126  -5.463  0.00  0.00    +0.000 A 
ATOM     48  C   UNL     1      41.517 -20.412  -6.770  0.00  0.00    +0.000 A 
ATOM     49  C   UNL     1      42.071 -21.233  -5.786  0.00  0.00    +0.000 A 
ENDBRANCH  42  44
ENDBRANCH  33  41
ENDBRANCH  30  33
ENDBRANCH  29  30
ENDBRANCH  27  29
ENDBRANCH  18  27
BRANCH  17  50
ATOM     50  O   UNL     1      34.761 -14.312  -6.539  0.00  0.00    +0.000 OA
BRANCH  50  52
ATOM     51  O   UNL     1      32.894 -13.518  -7.485  0.00  0.00    +0.000 OA
ATOM     52  C   UNL     1      34.119 -13.497  -7.407  0.00  0.00    +0.000 C 
ATOM     53  C   UNL     1      34.952 -12.647  -8.318  0.00  0.00    +0.000 C 
ENDBRANCH  50  52
ENDBRANCH  17  50
BRANCH   7  54
ATOM     54  O   UNL     1      39.112 -15.693  -4.383  0.00  0.00    +0.000 OA
BRANCH  54  56
ATOM     55  O   UNL     1      41.028 -15.099  -4.502  0.00  0.00    +0.000 OA
ATOM     56  C   UNL     1      40.388 -16.001  -3.971  0.00  0.00    +0.000 C 
BRANCH  56  57
ATOM     57  C   UNL     1      40.873 -17.635  -3.100  0.00  0.00    +0.000 A 
ATOM     58  C   UNL     1      42.112 -18.376  -3.324  0.00  0.00    +0.000 A 
ATOM     59  C   UNL     1      40.183 -18.289  -2.034  0.00  0.00    +0.000 A 
ATOM     60  C   UNL     1      42.564 -19.523  -2.626  0.00  0.00    +0.000 A 
ATOM     61  C   UNL     1      40.619 -19.442  -1.322  0.00  0.00    +0.000 A 
ATOM     62  C   UNL     1      41.811 -20.060  -1.614  0.00  0.00    +0.000 A 
ENDBRANCH  56  57
ENDBRANCH  54  56
ENDBRANCH   7  54
BRANCH   4  63
ATOM     63  O   UNL     1      40.415 -13.949  -2.019  0.00  0.00    +0.000 OA
BRANCH  63  65
ATOM     64  O   UNL     1      42.254 -12.837  -1.402  0.00  0.00    +0.000 OA
ATOM     65  C   UNL     1      41.668 -13.913  -1.512  0.00  0.00    +0.000 C 
ATOM     66  C   UNL     1      42.371 -15.195  -1.200  0.00  0.00    +0.000 C 
ENDBRANCH  63  65
ENDBRANCH   4  63
TORSDOF 17
ENDMDL
MODEL 3
REMARK VINA RESULT:      -6.9     48.497     51.901
REMARK  Name = 
REMARK  23 active torsions:
REMARK  status: ('A' for Active; 'I' for Inactive)
REMARK    1  A    between atoms: O_2  and  C_17
REMARK    2  A    between atoms: O_2  and  C_36
REMARK    3  A    between atoms: O_3  and  C_20
REMARK    4  A    between atoms: O_3  and  C_37
REMARK    5  A    between atoms: O_4  and  C_21
REMARK    6  A    between atoms: O_5  and  C_22
REMARK    7  A    between atoms: O_6  and  C_30
REMARK    8  A    between atoms: O_6  and  C_39
REMARK    9  A    between atoms: O_8  and  C_31
REMARK   10  A    between atoms: O_8  and  C_40
REMARK   11  A    between atoms: O_13  and  C_42
REMARK   12  A    between atoms: N_15  and  C_46
REMARK   13  A    between atoms: C_18  and  C_29
REMARK   14  A    between atoms: C_24  and  C_33
REMARK   15  A    between atoms: C_24  and  C_34
REMARK   16  A    between atoms: C_32  and  C_35
REMARK   17  A    between atoms: C_36  and  C_38
REMARK   18  A    between atoms: C_37  and  C_41
REMARK   19  A    between atoms: C_39  and  C_43
REMARK   20  A    between atoms: C_40  and  C_42
REMARK   21  A    between atoms: C_42  and  C_46
REMARK   22  A    between atoms: C_46  and  C_50
REMARK   23  A    between atoms: C_53  and  C_56
REMARK                            x       y       z     vdW  Elec       q    Type
REMARK                         _______ _______ _______ _____ _____    ______ ____
ROOT
ATOM      1  O   UNL     1      30.423 -10.470  45.184  0.00  0.00    +0.000 OA
ATOM      2  O   UNL     1      33.877  -7.718  50.179  0.00  0.00    +0.000 OA
ATOM      3  C   UNL     1      33.064  -8.402  45.954  0.00  0.00    +0.000 C 
ATOM      4  C   UNL     1      32.404  -9.675  45.348  0.00  0.00    +0.000 C 
ATOM      5  C   UNL     1      33.445  -8.787  47.772  0.00  0.00    +0.000 C 
ATOM      6  C   UNL     1      31.057  -9.619  46.178  0.00  0.00    +0.000 C 
ATOM      7  C   UNL     1      34.340  -7.666  44.811  0.00  0.00    +0.000 C 
ATOM      8  C   UNL     1      35.607  -6.262  44.712  0.00  0.00    +0.000 C 
ATOM      9  C   UNL     1      32.027  -9.107  48.407  0.00  0.00    +0.000 C 
ATOM     10  C   UNL     1      31.141 -10.108  47.606  0.00  0.00    +0.000 C 
ATOM     11  C   UNL     1      36.188  -5.202  46.010  0.00  0.00    +0.000 C 
ATOM     12  C   UNL     1      31.324  -9.822  44.205  0.00  0.00    +0.000 C 
ATOM     13  C   UNL     1      34.327  -7.682  49.014  0.00  0.00    +0.000 C 
ATOM     14  C   UNL     1      36.985  -6.949  44.286  0.00  0.00    +0.000 C 
ATOM     15  C   UNL     1      36.741  -6.040  47.263  0.00  0.00    +0.000 C 
ATOM     16  C   UNL     1      34.229 -10.153  47.953  0.00  0.00    +0.000 C 
ATOM     17  C   UNL     1      35.807  -6.490  48.731  0.00  0.00    +0.000 C 
ATOM     18  C   UNL     1      38.029  -7.330  45.431  0.00  0.00    +0.000 C 
ATOM     19  C   UNL     1      37.804  -6.837  46.908  0.00  0.00    +0.000 C 
ATOM     20  C   UNL     1      37.432  -4.380  45.401  0.00  0.00    +0.000 C 
ATOM     21  C   UNL     1      35.358  -3.932  46.387  0.00  0.00    +0.000 C 
ATOM     22  C   UNL     1      38.676  -7.526  47.928  0.00  0.00    +0.000 C 
ENDROOT
BRANCH   9  23
ATOM     23  O   UNL     1      31.284  -7.894  48.521  0.00  0.00    +0.000 OA
ATOM     24  H   UNL     1      30.355  -8.119  48.313  0.00  0.00    +0.000 HD
ENDBRANCH   9  23
BRANCH   8  25
ATOM     25  O   UNL     1      35.194  -5.445  43.600  0.00  0.00    +0.000 OA
ATOM     26  H   UNL     1      34.539  -4.797  43.914  0.00  0.00    +0.000 HD
ENDBRANCH   8  25
BRANCH  18  27
ATOM     27  O   UNL     1      38.119  -8.784  45.491  0.00  0.00    +0.000 OA
BRANCH  27  29
ATOM     28  O   UNL     1      39.545 -10.525  45.258  0.00  0.00    +0.000 OA
ATOM     29  C   UNL     1      39.276  -9.346  45.056  0.00  0.00    +0.000 C 
BRANCH  29  30
ATOM     30  C   UNL     1      40.272  -8.356  44.444  0.00  0.00    +0.000 C 
BRANCH  30  31
ATOM     31  O   UNL     1      40.504  -8.510  43.039  0.00  0.00    +0.000 OA
ATOM     32  H   UNL     1      40.641  -7.610  42.688  0.00  0.00    +0.000 HD
ENDBRANCH  30  31
BRANCH  30  33
ATOM     33  C   UNL     1      41.607  -8.464  45.233  0.00  0.00    +0.000 C 
BRANCH  33  34
ATOM     34  C   UNL     1      42.498  -7.264  44.947  0.00  0.00    +0.000 A 
ATOM     35  C   UNL     1      43.191  -7.193  43.727  0.00  0.00    +0.000 A 
ATOM     36  C   UNL     1      42.678  -6.232  45.882  0.00  0.00    +0.000 A 
ATOM     37  C   UNL     1      44.026  -6.112  43.442  0.00  0.00    +0.000 A 
ATOM     38  C   UNL     1      43.512  -5.150  45.594  0.00  0.00    +0.000 A 
ATOM     39  C   UNL     1      44.184  -5.089  44.374  0.00  0.00    +0.000 A 
ENDBRANCH  33  34
BRANCH  33  41
ATOM     40  O   UNL     1      43.429 -11.581  45.455  0.00  0.00    +0.000 OA
ATOM     41  N   UNL     1      42.294  -9.720  44.905  0.00  0.00    +0.000 N 
ATOM     42  C   UNL     1      43.276 -10.372  45.601  0.00  0.00    +0.000 C 
ATOM     43  H   UNL     1      41.804 -10.312  44.242  0.00  0.00    +0.000 HD
BRANCH  42  44
ATOM     44  C   UNL     1      44.125  -9.637  46.567  0.00  0.00    +0.000 A 
ATOM     45  C   UNL     1      43.732  -9.461  47.897  0.00  0.00    +0.000 A 
ATOM     46  C   UNL     1      45.310  -9.052  46.105  0.00  0.00    +0.000 A 
ATOM     47  C   UNL     1      44.554  -8.754  48.776  0.00  0.00    +0.000 A 
ATOM     48  C   UNL     1      46.127  -8.344  46.984  0.00  0.00    +0.000 A 
ATOM     49  C   UNL     1      45.753  -8.204  48.322  0.00  0.00    +0.000 A 
ENDBRANCH  42  44
ENDBRANCH  33  41
ENDBRANCH  30  33
ENDBRANCH  29  30
ENDBRANCH  27  29
ENDBRANCH  18  27
BRANCH  17  50
ATOM     50  O   UNL     1      35.647  -5.235  49.427  0.00  0.00    +0.000 OA
BRANCH  50  52
ATOM     51  O   UNL     1      35.323  -5.119  51.639  0.00  0.00    +0.000 OA
ATOM     52  C   UNL     1      36.093  -5.028  50.687  0.00  0.00    +0.000 C 
ATOM     53  C   UNL     1      37.519  -4.601  50.865  0.00  0.00    +0.000 C 
ENDBRANCH  50  52
ENDBRANCH  17  50
BRANCH   7  54
ATOM     54  O   UNL     1      35.220  -8.369  45.492  0.00  0.00    +0.000 OA
BRANCH  54  56
ATOM     55  O   UNL     1      34.739  -8.651  43.561  0.00  0.00    +0.000 OA
ATOM     56  C   UNL     1      35.389  -9.225  44.429  0.00  0.00    +0.000 C 
BRANCH  56  57
ATOM     57  C   UNL     1      36.172 -10.966  44.564  0.00  0.00    +0.000 A 
ATOM     58  C   UNL     1      36.761 -11.715  43.456  0.00  0.00    +0.000 A 
ATOM     59  C   UNL     1      36.414 -11.720  45.752  0.00  0.00    +0.000 A 
ATOM     60  C   UNL     1      37.449 -12.952  43.527  0.00  0.00    +0.000 A 
ATOM     61  C   UNL     1      37.101 -12.963  45.844  0.00  0.00    +0.000 A 
ATOM     62  C   UNL     1      37.623 -13.581  44.732  0.00  0.00    +0.000 A 
ENDBRANCH  56  57
ENDBRANCH  54  56
ENDBRANCH   7  54
BRANCH   4  63
ATOM     63  O   UNL     1      33.196 -10.865  45.576  0.00  0.00    +0.000 OA
BRANCH  63  65
ATOM     64  O   UNL     1      32.435 -12.936  45.933  0.00  0.00    +0.000 OA
ATOM     65  C   UNL     1      32.865 -12.101  45.140  0.00  0.00    +0.000 C 
ATOM     66  C   UNL     1      33.139 -12.476  43.718  0.00  0.00    +0.000 C 
ENDBRANCH  63  65
ENDBRANCH   4  63
TORSDOF 17
ENDMDL
MODEL 4
REMARK VINA RESULT:      -6.9      2.620      7.333
REMARK  Name = 
REMARK  23 active torsions:
REMARK  status: ('A' for Active; 'I' for Inactive)
REMARK    1  A    between atoms: O_2  and  C_17
REMARK    2  A    between atoms: O_2  and  C_36
REMARK    3  A    between atoms: O_3  and  C_20
REMARK    4  A    between atoms: O_3  and  C_37
REMARK    5  A    between atoms: O_4  and  C_21
REMARK    6  A    between atoms: O_5  and  C_22
REMARK    7  A    between atoms: O_6  and  C_30
REMARK    8  A    between atoms: O_6  and  C_39
REMARK    9  A    between atoms: O_8  and  C_31
REMARK   10  A    between atoms: O_8  and  C_40
REMARK   11  A    between atoms: O_13  and  C_42
REMARK   12  A    between atoms: N_15  and  C_46
REMARK   13  A    between atoms: C_18  and  C_29
REMARK   14  A    between atoms: C_24  and  C_33
REMARK   15  A    between atoms: C_24  and  C_34
REMARK   16  A    between atoms: C_32  and  C_35
REMARK   17  A    between atoms: C_36  and  C_38
REMARK   18  A    between atoms: C_37  and  C_41
REMARK   19  A    between atoms: C_39  and  C_43
REMARK   20  A    between atoms: C_40  and  C_42
REMARK   21  A    between atoms: C_42  and  C_46
REMARK   22  A    between atoms: C_46  and  C_50
REMARK   23  A    between atoms: C_53  and  C_56
REMARK                            x       y       z     vdW  Elec       q    Type
REMARK                         _______ _______ _______ _____ _____    ______ ____
ROOT
ATOM      1  O   UNL     1      45.266 -19.933  -8.119  0.00  0.00    +0.000 OA
ATOM      2  O   UNL     1      45.822 -13.292  -8.332  0.00  0.00    +0.000 OA
ATOM      3  C   UNL     1      44.629 -17.015  -6.411  0.00  0.00    +0.000 C 
ATOM      4  C   UNL     1      44.236 -18.332  -7.142  0.00  0.00    +0.000 C 
ATOM      5  C   UNL     1      44.749 -15.661  -7.734  0.00  0.00    +0.000 C 
ATOM      6  C   UNL     1      45.583 -18.524  -7.950  0.00  0.00    +0.000 C 
ATOM      7  C   UNL     1      43.658 -16.775  -4.836  0.00  0.00    +0.000 C 
ATOM      8  C   UNL     1      43.415 -15.542  -3.419  0.00  0.00    +0.000 C 
ATOM      9  C   UNL     1      45.880 -16.180  -8.718  0.00  0.00    +0.000 C 
ATOM     10  C   UNL     1      45.742 -17.662  -9.182  0.00  0.00    +0.000 C 
ATOM     11  C   UNL     1      43.990 -13.869  -3.296  0.00  0.00    +0.000 C 
ATOM     12  C   UNL     1      44.593 -19.834  -6.806  0.00  0.00    +0.000 C 
ATOM     13  C   UNL     1      45.098 -13.831  -7.469  0.00  0.00    +0.000 C 
ATOM     14  C   UNL     1      41.840 -15.296  -3.322  0.00  0.00    +0.000 C 
ATOM     15  C   UNL     1      43.539 -12.989  -4.561  0.00  0.00    +0.000 C 
ATOM     16  C   UNL     1      43.468 -15.607  -8.667  0.00  0.00    +0.000 C 
ATOM     17  C   UNL     1      44.514 -12.686  -6.041  0.00  0.00    +0.000 C 
ATOM     18  C   UNL     1      41.224 -14.022  -4.059  0.00  0.00    +0.000 C 
ATOM     19  C   UNL     1      42.170 -12.923  -4.669  0.00  0.00    +0.000 C 
ATOM     20  C   UNL     1      43.274 -13.237  -1.999  0.00  0.00    +0.000 C 
ATOM     21  C   UNL     1      45.445 -13.597  -2.794  0.00  0.00    +0.000 C 
ATOM     22  C   UNL     1      41.476 -11.959  -5.599  0.00  0.00    +0.000 C 
ENDROOT
BRANCH   9  23
ATOM     23  O   UNL     1      47.147 -16.064  -8.072  0.00  0.00    +0.000 OA
ATOM     24  H   UNL     1      47.492 -16.974  -7.977  0.00  0.00    +0.000 HD
ENDBRANCH   9  23
BRANCH   8  25
ATOM     25  O   UNL     1      43.795 -16.249  -2.222  0.00  0.00    +0.000 OA
ATOM     26  H   UNL     1      44.127 -15.606  -1.571  0.00  0.00    +0.000 HD
ENDBRANCH   8  25
BRANCH  18  27
ATOM     27  O   UNL     1      40.386 -14.497  -5.153  0.00  0.00    +0.000 OA
BRANCH  27  29
ATOM     28  O   UNL     1      38.214 -14.266  -5.745  0.00  0.00    +0.000 OA
ATOM     29  C   UNL     1      39.053 -14.589  -4.911  0.00  0.00    +0.000 C 
BRANCH  29  30
ATOM     30  C   UNL     1      38.695 -14.970  -3.471  0.00  0.00    +0.000 C 
BRANCH  30  31
ATOM     31  O   UNL     1      37.845 -16.114  -3.333  0.00  0.00    +0.000 OA
ATOM     32  H   UNL     1      37.158 -16.025  -4.021  0.00  0.00    +0.000 HD
ENDBRANCH  30  31
BRANCH  30  33
ATOM     33  C   UNL     1      38.055 -13.730  -2.788  0.00  0.00    +0.000 C 
BRANCH  33  34
ATOM     34  C   UNL     1      38.385 -13.704  -1.303  0.00  0.00    +0.000 A 
ATOM     35  C   UNL     1      39.629 -14.191  -0.863  0.00  0.00    +0.000 A 
ATOM     36  C   UNL     1      37.472 -13.236  -0.345  0.00  0.00    +0.000 A 
ATOM     37  C   UNL     1      39.955 -14.192   0.494  0.00  0.00    +0.000 A 
ATOM     38  C   UNL     1      37.801 -13.237   1.011  0.00  0.00    +0.000 A 
ATOM     39  C   UNL     1      39.043 -13.712   1.430  0.00  0.00    +0.000 A 
ENDBRANCH  33  34
BRANCH  33  41
ATOM     40  O   UNL     1      34.761 -13.210  -4.188  0.00  0.00    +0.000 OA
ATOM     41  N   UNL     1      36.602 -13.719  -3.005  0.00  0.00    +0.000 N 
ATOM     42  C   UNL     1      35.848 -12.851  -3.746  0.00  0.00    +0.000 C 
ATOM     43  H   UNL     1      36.138 -14.602  -2.815  0.00  0.00    +0.000 HD
BRANCH  42  44
ATOM     44  C   UNL     1      36.355 -11.496  -4.061  0.00  0.00    +0.000 A 
ATOM     45  C   UNL     1      36.653 -11.115  -5.373  0.00  0.00    +0.000 A 
ATOM     46  C   UNL     1      36.603 -10.613  -3.003  0.00  0.00    +0.000 A 
ATOM     47  C   UNL     1      37.139  -9.832  -5.630  0.00  0.00    +0.000 A 
ATOM     48  C   UNL     1      37.092  -9.333  -3.263  0.00  0.00    +0.000 A 
ATOM     49  C   UNL     1      37.350  -8.941  -4.578  0.00  0.00    +0.000 A 
ENDBRANCH  42  44
ENDBRANCH  33  41
ENDBRANCH  30  33
ENDBRANCH  29  30
ENDBRANCH  27  29
ENDBRANCH  18  27
BRANCH  17  50
ATOM     50  O   UNL     1      45.556 -11.797  -5.583  0.00  0.00    +0.000 OA
BRANCH  50  52
ATOM     51  O   UNL     1      44.711  -9.949  -6.521  0.00  0.00    +0.000 OA
ATOM     52  C   UNL     1      45.495 -10.454  -5.722  0.00  0.00    +0.000 C 
ATOM     53  C   UNL     1      46.469  -9.623  -4.942  0.00  0.00    +0.000 C 
ENDBRANCH  50  52
ENDBRANCH  17  50
BRANCH   7  54
ATOM     54  O   UNL     1      42.835 -16.051  -5.564  0.00  0.00    +0.000 OA
BRANCH  54  56
ATOM     55  O   UNL     1      41.227 -16.770  -6.531  0.00  0.00    +0.000 OA
ATOM     56  C   UNL     1      41.901 -17.060  -5.548  0.00  0.00    +0.000 C 
BRANCH  56  57
ATOM     57  C   UNL     1      41.671 -18.289  -4.099  0.00  0.00    +0.000 A 
ATOM     58  C   UNL     1      42.476 -19.488  -3.873  0.00  0.00    +0.000 A 
ATOM     59  C   UNL     1      40.795 -18.158  -2.980  0.00  0.00    +0.000 A 
ATOM     60  C   UNL     1      42.418 -20.363  -2.760  0.00  0.00    +0.000 A 
ATOM     61  C   UNL     1      40.720 -19.027  -1.854  0.00  0.00    +0.000 A 
ATOM     62  C   UNL     1      41.533 -20.128  -1.740  0.00  0.00    +0.000 A 
ENDBRANCH  56  57
ENDBRANCH  54  56
ENDBRANCH   7  54
BRANCH   4  63
ATOM     63  O   UNL     1      43.060 -18.170  -7.970  0.00  0.00    +0.000 OA
BRANCH  63  65
ATOM     64  O   UNL     1      42.553 -19.412  -9.758  0.00  0.00    +0.000 OA
ATOM     65  C   UNL     1      42.392 -19.187  -8.560  0.00  0.00    +0.000 C 
ATOM     66  C   UNL     1      41.375 -19.951  -7.775  0.00  0.00    +0.000 C 
ENDBRANCH  63  65
ENDBRANCH   4  63
TORSDOF 17
ENDMDL
MODEL 5
REMARK VINA RESULT:      -6.9     38.449     43.189
REMARK  Name = 
REMARK  23 active torsions:
REMARK  status: ('A' for Active; 'I' for Inactive)
REMARK    1  A    between atoms: O_2  and  C_17
REMARK    2  A    between atoms: O_2  and  C_36
REMARK    3  A    between atoms: O_3  and  C_20
REMARK    4  A    between atoms: O_3  and  C_37
REMARK    5  A    between atoms: O_4  and  C_21
REMARK    6  A    between atoms: O_5  and  C_22
REMARK    7  A    between atoms: O_6  and  C_30
REMARK    8  A    between atoms: O_6  and  C_39
REMARK    9  A    between atoms: O_8  and  C_31
REMARK   10  A    between atoms: O_8  and  C_40
REMARK   11  A    between atoms: O_13  and  C_42
REMARK   12  A    between atoms: N_15  and  C_46
REMARK   13  A    between atoms: C_18  and  C_29
REMARK   14  A    between atoms: C_24  and  C_33
REMARK   15  A    between atoms: C_24  and  C_34
REMARK   16  A    between atoms: C_32  and  C_35
REMARK   17  A    between atoms: C_36  and  C_38
REMARK   18  A    between atoms: C_37  and  C_41
REMARK   19  A    between atoms: C_39  and  C_43
REMARK   20  A    between atoms: C_40  and  C_42
REMARK   21  A    between atoms: C_42  and  C_46
REMARK   22  A    between atoms: C_46  and  C_50
REMARK   23  A    between atoms: C_53  and  C_56
REMARK                            x       y       z     vdW  Elec       q    Type
REMARK                         _______ _______ _______ _____ _____    ______ ____
ROOT
ATOM      1  O   UNL     1      50.916   0.751  28.097  0.00  0.00    +0.000 OA
ATOM      2  O   UNL     1      50.518   5.291  32.964  0.00  0.00    +0.000 OA
ATOM      3  C   UNL     1      51.742   1.426  31.369  0.00  0.00    +0.000 C 
ATOM      4  C   UNL     1      51.024   0.642  30.232  0.00  0.00    +0.000 C 
ATOM      5  C   UNL     1      50.606   2.867  31.851  0.00  0.00    +0.000 C 
ATOM      6  C   UNL     1      51.119   1.765  29.120  0.00  0.00    +0.000 C 
ATOM      7  C   UNL     1      52.486   0.285  32.642  0.00  0.00    +0.000 C 
ATOM      8  C   UNL     1      53.424   0.310  34.287  0.00  0.00    +0.000 C 
ATOM      9  C   UNL     1      50.462   3.711  30.516  0.00  0.00    +0.000 C 
ATOM     10  C   UNL     1      50.120   2.893  29.234  0.00  0.00    +0.000 C 
ATOM     11  C   UNL     1      53.712   1.680  35.376  0.00  0.00    +0.000 C 
ATOM     12  C   UNL     1      51.620  -0.171  29.015  0.00  0.00    +0.000 C 
ATOM     13  C   UNL     1      50.873   4.121  33.227  0.00  0.00    +0.000 C 
ATOM     14  C   UNL     1      52.609  -0.651  35.268  0.00  0.00    +0.000 C 
ATOM     15  C   UNL     1      52.344   2.418  35.781  0.00  0.00    +0.000 C 
ATOM     16  C   UNL     1      49.117   2.399  32.134  0.00  0.00    +0.000 C 
ATOM     17  C   UNL     1      51.637   3.858  34.970  0.00  0.00    +0.000 C 
ATOM     18  C   UNL     1      51.555   0.006  36.270  0.00  0.00    +0.000 C 
ATOM     19  C   UNL     1      51.488   1.568  36.442  0.00  0.00    +0.000 C 
ATOM     20  C   UNL     1      54.336   1.063  36.726  0.00  0.00    +0.000 C 
ATOM     21  C   UNL     1      54.914   2.639  35.096  0.00  0.00    +0.000 C 
ATOM     22  C   UNL     1      50.256   2.058  37.161  0.00  0.00    +0.000 C 
ENDROOT
BRANCH   9  23
ATOM     23  O   UNL     1      51.692   4.389  30.260  0.00  0.00    +0.000 OA
ATOM     24  H   UNL     1      51.977   4.113  29.365  0.00  0.00    +0.000 HD
ENDBRANCH   9  23
BRANCH   8  25
ATOM     25  O   UNL     1      54.682  -0.342  34.025  0.00  0.00    +0.000 OA
ATOM     26  H   UNL     1      54.815  -1.043  34.686  0.00  0.00    +0.000 HD
ENDBRANCH   8  25
BRANCH  18  27
ATOM     27  O   UNL     1      50.222  -0.421  35.862  0.00  0.00    +0.000 OA
BRANCH  27  29
ATOM     28  O   UNL     1      49.650  -1.353  37.844  0.00  0.00    +0.000 OA
ATOM     29  C   UNL     1      49.626  -1.379  36.618  0.00  0.00    +0.000 C 
BRANCH  29  30
ATOM     30  C   UNL     1      49.072  -2.563  35.819  0.00  0.00    +0.000 C 
BRANCH  30  31
ATOM     31  O   UNL     1      47.887  -3.163  36.354  0.00  0.00    +0.000 OA
ATOM     32  H   UNL     1      48.188  -3.806  37.023  0.00  0.00    +0.000 HD
ENDBRANCH  30  31
BRANCH  30  33
ATOM     33  C   UNL     1      50.202  -3.621  35.678  0.00  0.00    +0.000 C 
BRANCH  33  34
ATOM     34  C   UNL     1      49.978  -4.484  34.444  0.00  0.00    +0.000 A 
ATOM     35  C   UNL     1      50.678  -5.696  34.313  0.00  0.00    +0.000 A 
ATOM     36  C   UNL     1      49.114  -4.094  33.409  0.00  0.00    +0.000 A 
ATOM     37  C   UNL     1      50.504  -6.503  33.188  0.00  0.00    +0.000 A 
ATOM     38  C   UNL     1      48.940  -4.903  32.285  0.00  0.00    +0.000 A 
ATOM     39  C   UNL     1      49.633  -6.107  32.175  0.00  0.00    +0.000 A 
ENDBRANCH  33  34
BRANCH  33  41
ATOM     40  O   UNL     1      50.954  -4.840  38.999  0.00  0.00    +0.000 OA
ATOM     41  N   UNL     1      50.285  -4.447  36.890  0.00  0.00    +0.000 N 
ATOM     42  C   UNL     1      51.236  -4.439  37.874  0.00  0.00    +0.000 C 
ATOM     43  H   UNL     1      49.408  -4.873  37.174  0.00  0.00    +0.000 HD
BRANCH  42  44
ATOM     44  C   UNL     1      52.591  -3.906  37.604  0.00  0.00    +0.000 A 
ATOM     45  C   UNL     1      53.442  -4.515  36.676  0.00  0.00    +0.000 A 
ATOM     46  C   UNL     1      53.040  -2.812  38.353  0.00  0.00    +0.000 A 
ATOM     47  C   UNL     1      54.717  -3.991  36.455  0.00  0.00    +0.000 A 
ATOM     48  C   UNL     1      54.315  -2.292  38.132  0.00  0.00    +0.000 A 
ATOM     49  C   UNL     1      55.148  -2.877  37.177  0.00  0.00    +0.000 A 
ENDBRANCH  42  44
ENDBRANCH  33  41
ENDBRANCH  30  33
ENDBRANCH  29  30
ENDBRANCH  27  29
ENDBRANCH  18  27
BRANCH  17  50
ATOM     50  O   UNL     1      52.525   4.930  35.353  0.00  0.00    +0.000 OA
BRANCH  50  52
ATOM     51  O   UNL     1      51.867   7.029  35.767  0.00  0.00    +0.000 OA
ATOM     52  C   UNL     1      52.164   5.920  36.201  0.00  0.00    +0.000 C 
ATOM     53  C   UNL     1      52.227   5.640  37.672  0.00  0.00    +0.000 C 
ENDBRANCH  50  52
ENDBRANCH  17  50
BRANCH   7  54
ATOM     54  O   UNL     1      51.367   0.458  33.315  0.00  0.00    +0.000 OA
BRANCH  54  56
ATOM     55  O   UNL     1      49.710  -0.669  33.177  0.00  0.00    +0.000 OA
ATOM     56  C   UNL     1      50.899  -0.763  32.891  0.00  0.00    +0.000 C 
BRANCH  56  57
ATOM     57  C   UNL     1      52.021  -2.216  32.348  0.00  0.00    +0.000 A 
ATOM     58  C   UNL     1      52.916  -2.966  33.228  0.00  0.00    +0.000 A 
ATOM     59  C   UNL     1      52.056  -2.858  31.073  0.00  0.00    +0.000 A 
ATOM     60  C   UNL     1      53.677  -4.114  32.899  0.00  0.00    +0.000 A 
ATOM     61  C   UNL     1      52.815  -4.010  30.723  0.00  0.00    +0.000 A 
ATOM     62  C   UNL     1      53.624  -4.643  31.635  0.00  0.00    +0.000 A 
ENDBRANCH  56  57
ENDBRANCH  54  56
ENDBRANCH   7  54
BRANCH   4  63
ATOM     63  O   UNL     1      49.672   0.270  30.591  0.00  0.00    +0.000 OA
BRANCH  63  65
ATOM     64  O   UNL     1      48.074   0.040  29.044  0.00  0.00    +0.000 OA
ATOM     65  C   UNL     1      48.858  -0.493  29.827  0.00  0.00    +0.000 C 
ATOM     66  C   UNL     1      48.837  -1.975  30.029  0.00  0.00    +0.000 C 
ENDBRANCH  63  65
ENDBRANCH   4  63
TORSDOF 17
ENDMDL
MODEL 6
REMARK VINA RESULT:      -6.9     20.470     24.826
REMARK  Name = 
REMARK  23 active torsions:
REMARK  status: ('A' for Active; 'I' for Inactive)
REMARK    1  A    between atoms: O_2  and  C_17
REMARK    2  A    between atoms: O_2  and  C_36
REMARK    3  A    between atoms: O_3  and  C_20
REMARK    4  A    between atoms: O_3  and  C_37
REMARK    5  A    between atoms: O_4  and  C_21
REMARK    6  A    between atoms: O_5  and  C_22
REMARK    7  A    between atoms: O_6  and  C_30
REMARK    8  A    between atoms: O_6  and  C_39
REMARK    9  A    between atoms: O_8  and  C_31
REMARK   10  A    between atoms: O_8  and  C_40
REMARK   11  A    between atoms: O_13  and  C_42
REMARK   12  A    between atoms: N_15  and  C_46
REMARK   13  A    between atoms: C_18  and  C_29
REMARK   14  A    between atoms: C_24  and  C_33
REMARK   15  A    between atoms: C_24  and  C_34
REMARK   16  A    between atoms: C_32  and  C_35
REMARK   17  A    between atoms: C_36  and  C_38
REMARK   18  A    between atoms: C_37  and  C_41
REMARK   19  A    between atoms: C_39  and  C_43
REMARK   20  A    between atoms: C_40  and  C_42
REMARK   21  A    between atoms: C_42  and  C_46
REMARK   22  A    between atoms: C_46  and  C_50
REMARK   23  A    between atoms: C_53  and  C_56
REMARK                            x       y       z     vdW  Elec       q    Type
REMARK                         _______ _______ _______ _____ _____    ______ ____
ROOT
ATOM      1  O   UNL     1      53.579 -22.405  21.031  0.00  0.00    +0.000 OA
ATOM      2  O   UNL     1      47.116 -21.784  19.516  0.00  0.00    +0.000 OA
ATOM      3  C   UNL     1      51.306 -22.310  18.449  0.00  0.00    +0.000 C 
ATOM      4  C   UNL     1      52.526 -21.798  19.269  0.00  0.00    +0.000 C 
ATOM      5  C   UNL     1      49.756 -21.533  19.218  0.00  0.00    +0.000 C 
ATOM      6  C   UNL     1      52.192 -22.551  20.620  0.00  0.00    +0.000 C 
ATOM      7  C   UNL     1      51.630 -22.261  16.613  0.00  0.00    +0.000 C 
ATOM      8  C   UNL     1      50.788 -22.600  14.950  0.00  0.00    +0.000 C 
ATOM      9  C   UNL     1      49.758 -22.062  20.713  0.00  0.00    +0.000 C 
ATOM     10  C   UNL     1      51.112 -21.926  21.474  0.00  0.00    +0.000 C 
ATOM     11  C   UNL     1      49.072 -22.902  14.620  0.00  0.00    +0.000 C 
ATOM     12  C   UNL     1      53.907 -22.494  19.591  0.00  0.00    +0.000 C 
ATOM     13  C   UNL     1      47.980 -21.694  18.618  0.00  0.00    +0.000 C 
ATOM     14  C   UNL     1      51.005 -21.281  14.076  0.00  0.00    +0.000 C 
ATOM     15  C   UNL     1      48.136 -21.742  15.217  0.00  0.00    +0.000 C 
ATOM     16  C   UNL     1      49.888 -19.964  19.398  0.00  0.00    +0.000 C 
ATOM     17  C   UNL     1      47.315 -21.762  16.816  0.00  0.00    +0.000 C 
ATOM     18  C   UNL     1      49.838 -20.194  14.040  0.00  0.00    +0.000 C 
ATOM     19  C   UNL     1      48.430 -20.518  14.661  0.00  0.00    +0.000 C 
ATOM     20  C   UNL     1      48.906 -22.868  13.018  0.00  0.00    +0.000 C 
ATOM     21  C   UNL     1      48.506 -24.349  14.784  0.00  0.00    +0.000 C 
ATOM     22  C   UNL     1      47.542 -19.313  14.843  0.00  0.00    +0.000 C 
ENDROOT
BRANCH   9  23
ATOM     23  O   UNL     1      49.417 -23.448  20.717  0.00  0.00    +0.000 OA
ATOM     24  H   UNL     1      48.600 -23.532  20.185  0.00  0.00    +0.000 HD
ENDBRANCH   9  23
BRANCH   8  25
ATOM     25  O   UNL     1      51.567 -23.639  14.327  0.00  0.00    +0.000 OA
ATOM     26  H   UNL     1      52.411 -23.727  14.804  0.00  0.00    +0.000 HD
ENDBRANCH   8  25
BRANCH  18  27
ATOM     27  O   UNL     1      50.319 -18.995  14.714  0.00  0.00    +0.000 OA
BRANCH  27  29
ATOM     28  O   UNL     1      51.572 -18.072  13.071  0.00  0.00    +0.000 OA
ATOM     29  C   UNL     1      50.699 -17.957  13.925  0.00  0.00    +0.000 C 
BRANCH  29  30
ATOM     30  C   UNL     1      50.069 -16.612  14.298  0.00  0.00    +0.000 C 
BRANCH  30  31
ATOM     31  O   UNL     1      48.919 -16.239  13.529  0.00  0.00    +0.000 OA
ATOM     32  H   UNL     1      48.263 -16.949  13.663  0.00  0.00    +0.000 HD
ENDBRANCH  30  31
BRANCH  30  33
ATOM     33  C   UNL     1      51.169 -15.519  14.197  0.00  0.00    +0.000 C 
BRANCH  33  34
ATOM     34  C   UNL     1      50.828 -14.330  15.085  0.00  0.00    +0.000 A 
ATOM     35  C   UNL     1      51.631 -13.178  15.036  0.00  0.00    +0.000 A 
ATOM     36  C   UNL     1      49.748 -14.357  15.982  0.00  0.00    +0.000 A 
ATOM     37  C   UNL     1      51.352 -12.078  15.848  0.00  0.00    +0.000 A 
ATOM     38  C   UNL     1      49.469 -13.255  16.792  0.00  0.00    +0.000 A 
ATOM     39  C   UNL     1      50.269 -12.115  16.723  0.00  0.00    +0.000 A 
ENDBRANCH  33  34
BRANCH  33  41
ATOM     40  O   UNL     1      52.365 -15.193  10.800  0.00  0.00    +0.000 OA
ATOM     41  N   UNL     1      51.348 -15.099  12.802  0.00  0.00    +0.000 N 
ATOM     42  C   UNL     1      52.471 -15.156  12.022  0.00  0.00    +0.000 C 
ATOM     43  H   UNL     1      50.487 -15.014  12.270  0.00  0.00    +0.000 HD
BRANCH  42  44
ATOM     44  C   UNL     1      53.813 -15.220  12.643  0.00  0.00    +0.000 A 
ATOM     45  C   UNL     1      54.505 -16.429  12.760  0.00  0.00    +0.000 A 
ATOM     46  C   UNL     1      54.356 -14.049  13.184  0.00  0.00    +0.000 A 
ATOM     47  C   UNL     1      55.765 -16.454  13.361  0.00  0.00    +0.000 A 
ATOM     48  C   UNL     1      55.614 -14.077  13.787  0.00  0.00    +0.000 A 
ATOM     49  C   UNL     1      56.321 -15.277  13.866  0.00  0.00    +0.000 A 
ENDBRANCH  42  44
ENDBRANCH  33  41
ENDBRANCH  30  33
ENDBRANCH  29  30
ENDBRANCH  27  29
ENDBRANCH  18  27
BRANCH  17  50
ATOM     50  O   UNL     1      46.273 -22.747  16.648  0.00  0.00    +0.000 OA
BRANCH  50  52
ATOM     51  O   UNL     1      44.218 -21.862  16.712  0.00  0.00    +0.000 OA
ATOM     52  C   UNL     1      45.078 -22.469  16.080  0.00  0.00    +0.000 C 
ATOM     53  C   UNL     1      44.816 -22.999  14.702  0.00  0.00    +0.000 C 
ENDBRANCH  50  52
ENDBRANCH  17  50
BRANCH   7  54
ATOM     54  O   UNL     1      51.041 -21.084  16.635  0.00  0.00    +0.000 OA
BRANCH  54  56
ATOM     55  O   UNL     1      52.977 -21.419  16.215  0.00  0.00    +0.000 OA
ATOM     56  C   UNL     1      52.242 -20.456  16.404  0.00  0.00    +0.000 C 
BRANCH  56  57
ATOM     57  C   UNL     1      52.551 -18.589  16.690  0.00  0.00    +0.000 A 
ATOM     58  C   UNL     1      51.747 -17.721  17.547  0.00  0.00    +0.000 A 
ATOM     59  C   UNL     1      53.658 -17.812  16.231  0.00  0.00    +0.000 A 
ATOM     60  C   UNL     1      52.001 -16.367  17.877  0.00  0.00    +0.000 A 
ATOM     61  C   UNL     1      53.930 -16.451  16.549  0.00  0.00    +0.000 A 
ATOM     62  C   UNL     1      53.104 -15.726  17.376  0.00  0.00    +0.000 A 
ENDBRANCH  56  57
ENDBRANCH  54  56
ENDBRANCH   7  54
BRANCH   4  63
ATOM     63  O   UNL     1      52.547 -20.355  19.379  0.00  0.00    +0.000 OA
BRANCH  63  65
ATOM     64  O   UNL     1      54.658 -19.719  19.007  0.00  0.00    +0.000 OA
ATOM     65  C   UNL     1      53.641 -19.625  19.692  0.00  0.00    +0.000 C 
ATOM     66  C   UNL     1      53.641 -18.800  20.939  0.00  0.00    +0.000 C 
ENDBRANCH  63  65
ENDBRANCH   4  63
TORSDOF 17
ENDMDL
MODEL 7
REMARK VINA RESULT:      -6.9     18.973     23.634
REMARK  Name = 
REMARK  23 active torsions:
REMARK  status: ('A' for Active; 'I' for Inactive)
REMARK    1  A    between atoms: O_2  and  C_17
REMARK    2  A    between atoms: O_2  and  C_36
REMARK    3  A    between atoms: O_3  and  C_20
REMARK    4  A    between atoms: O_3  and  C_37
REMARK    5  A    between atoms: O_4  and  C_21
REMARK    6  A    between atoms: O_5  and  C_22
REMARK    7  A    between atoms: O_6  and  C_30
REMARK    8  A    between atoms: O_6  and  C_39
REMARK    9  A    between atoms: O_8  and  C_31
REMARK   10  A    between atoms: O_8  and  C_40
REMARK   11  A    between atoms: O_13  and  C_42
REMARK   12  A    between atoms: N_15  and  C_46
REMARK   13  A    between atoms: C_18  and  C_29
REMARK   14  A    between atoms: C_24  and  C_33
REMARK   15  A    between atoms: C_24  and  C_34
REMARK   16  A    between atoms: C_32  and  C_35
REMARK   17  A    between atoms: C_36  and  C_38
REMARK   18  A    between atoms: C_37  and  C_41
REMARK   19  A    between atoms: C_39  and  C_43
REMARK   20  A    between atoms: C_40  and  C_42
REMARK   21  A    between atoms: C_42  and  C_46
REMARK   22  A    between atoms: C_46  and  C_50
REMARK   23  A    between atoms: C_53  and  C_56
REMARK                            x       y       z     vdW  Elec       q    Type
REMARK                         _______ _______ _______ _____ _____    ______ ____
ROOT
ATOM      1  O   UNL     1      53.759 -20.736  20.557  0.00  0.00    +0.000 OA
ATOM      2  O   UNL     1      47.210 -21.800  19.892  0.00  0.00    +0.000 OA
ATOM      3  C   UNL     1      51.274 -21.589  18.336  0.00  0.00    +0.000 C 
ATOM      4  C   UNL     1      52.416 -20.689  18.891  0.00  0.00    +0.000 C 
ATOM      5  C   UNL     1      49.672 -21.042  19.192  0.00  0.00    +0.000 C 
ATOM      6  C   UNL     1      52.410 -21.248  20.372  0.00  0.00    +0.000 C 
ATOM      7  C   UNL     1      51.385 -21.794  16.485  0.00  0.00    +0.000 C 
ATOM      8  C   UNL     1      50.480 -22.593  15.026  0.00  0.00    +0.000 C 
ATOM      9  C   UNL     1      49.953 -21.287  20.733  0.00  0.00    +0.000 C 
ATOM     10  C   UNL     1      51.308 -20.731  21.268  0.00  0.00    +0.000 C 
ATOM     11  C   UNL     1      48.858 -23.311  14.988  0.00  0.00    +0.000 C 
ATOM     12  C   UNL     1      53.948 -21.004  19.114  0.00  0.00    +0.000 C 
ATOM     13  C   UNL     1      47.931 -21.684  18.878  0.00  0.00    +0.000 C 
ATOM     14  C   UNL     1      50.288 -21.433  13.945  0.00  0.00    +0.000 C 
ATOM     15  C   UNL     1      47.743 -22.294  15.534  0.00  0.00    +0.000 C 
ATOM     16  C   UNL     1      49.448 -19.474  19.119  0.00  0.00    +0.000 C 
ATOM     17  C   UNL     1      47.119 -22.210  17.218  0.00  0.00    +0.000 C 
ATOM     18  C   UNL     1      48.900 -20.647  13.913  0.00  0.00    +0.000 C 
ATOM     19  C   UNL     1      47.680 -21.153  14.768  0.00  0.00    +0.000 C 
ATOM     20  C   UNL     1      48.525 -23.596  13.438  0.00  0.00    +0.000 C 
ATOM     21  C   UNL     1      48.670 -24.795  15.442  0.00  0.00    +0.000 C 
ATOM     22  C   UNL     1      46.557 -20.155  14.893  0.00  0.00    +0.000 C 
ENDROOT
BRANCH   9  23
ATOM     23  O   UNL     1      49.950 -22.691  20.990  0.00  0.00    +0.000 OA
ATOM     24  H   UNL     1      49.027 -22.928  21.212  0.00  0.00    +0.000 HD
ENDBRANCH   9  23
BRANCH   8  25
ATOM     25  O   UNL     1      51.413 -23.533  14.459  0.00  0.00    +0.000 OA
ATOM     26  H   UNL     1      52.305 -23.143  14.484  0.00  0.00    +0.000 HD
ENDBRANCH   8  25
BRANCH  18  27
ATOM     27  O   UNL     1      49.152 -19.273  14.329  0.00  0.00    +0.000 OA
BRANCH  27  29
ATOM     28  O   UNL     1      47.969 -18.343  12.639  0.00  0.00    +0.000 OA
ATOM     29  C   UNL     1      48.923 -18.301  13.408  0.00  0.00    +0.000 C 
BRANCH  29  30
ATOM     30  C   UNL     1      50.033 -17.250  13.306  0.00  0.00    +0.000 C 
BRANCH  30  31
ATOM     31  O   UNL     1      49.640 -15.911  13.631  0.00  0.00    +0.000 OA
ATOM     32  H   UNL     1      50.412 -15.348  13.437  0.00  0.00    +0.000 HD
ENDBRANCH  30  31
BRANCH  30  33
ATOM     33  C   UNL     1      50.625 -17.311  11.871  0.00  0.00    +0.000 C 
BRANCH  33  34
ATOM     34  C   UNL     1      51.394 -18.608  11.663  0.00  0.00    +0.000 A 
ATOM     35  C   UNL     1      50.924 -19.548  10.730  0.00  0.00    +0.000 A 
ATOM     36  C   UNL     1      52.549 -18.915  12.399  0.00  0.00    +0.000 A 
ATOM     37  C   UNL     1      51.600 -20.752  10.526  0.00  0.00    +0.000 A 
ATOM     38  C   UNL     1      53.225 -20.118  12.193  0.00  0.00    +0.000 A 
ATOM     39  C   UNL     1      52.752 -21.035  11.256  0.00  0.00    +0.000 A 
ENDBRANCH  33  34
BRANCH  33  41
ATOM     40  O   UNL     1      52.098 -14.334  10.440  0.00  0.00    +0.000 OA
ATOM     41  N   UNL     1      51.482 -16.145  11.620  0.00  0.00    +0.000 N 
ATOM     42  C   UNL     1      51.747 -15.510  10.437  0.00  0.00    +0.000 C 
ATOM     43  H   UNL     1      51.679 -15.579  12.439  0.00  0.00    +0.000 HD
BRANCH  42  44
ATOM     44  C   UNL     1      51.570 -16.218   9.149  0.00  0.00    +0.000 A 
ATOM     45  C   UNL     1      52.559 -17.066   8.641  0.00  0.00    +0.000 A 
ATOM     46  C   UNL     1      50.413 -15.968   8.402  0.00  0.00    +0.000 A 
ATOM     47  C   UNL     1      52.361 -17.709   7.417  0.00  0.00    +0.000 A 
ATOM     48  C   UNL     1      50.219 -16.609   7.179  0.00  0.00    +0.000 A 
ATOM     49  C   UNL     1      51.189 -17.486   6.693  0.00  0.00    +0.000 A 
ENDBRANCH  42  44
ENDBRANCH  33  41
ENDBRANCH  30  33
ENDBRANCH  29  30
ENDBRANCH  27  29
ENDBRANCH  18  27
BRANCH  17  50
ATOM     50  O   UNL     1      46.327 -23.410  17.345  0.00  0.00    +0.000 OA
BRANCH  50  52
ATOM     51  O   UNL     1      44.286 -22.494  17.414  0.00  0.00    +0.000 OA
ATOM     52  C   UNL     1      45.038 -23.404  17.752  0.00  0.00    +0.000 C 
ATOM     53  C   UNL     1      44.593 -24.486  18.690  0.00  0.00    +0.000 C 
ENDBRANCH  50  52
ENDBRANCH  17  50
BRANCH   7  54
ATOM     54  O   UNL     1      50.540 -20.787  16.416  0.00  0.00    +0.000 OA
BRANCH  54  56
ATOM     55  O   UNL     1      52.404 -20.763  15.667  0.00  0.00    +0.000 OA
ATOM     56  C   UNL     1      51.542 -19.951  15.982  0.00  0.00    +0.000 C 
BRANCH  56  57
ATOM     57  C   UNL     1      51.533 -18.051  16.216  0.00  0.00    +0.000 A 
ATOM     58  C   UNL     1      52.570 -17.137  15.741  0.00  0.00    +0.000 A 
ATOM     59  C   UNL     1      50.482 -17.247  16.753  0.00  0.00    +0.000 A 
ATOM     60  C   UNL     1      52.553 -15.721  15.791  0.00  0.00    +0.000 A 
ATOM     61  C   UNL     1      50.448 -15.825  16.813  0.00  0.00    +0.000 A 
ATOM     62  C   UNL     1      51.481 -15.059  16.330  0.00  0.00    +0.000 A 
ENDBRANCH  56  57
ENDBRANCH  54  56
ENDBRANCH   7  54
BRANCH   4  63
ATOM     63  O   UNL     1      52.107 -19.280  18.783  0.00  0.00    +0.000 OA
BRANCH  63  65
ATOM     64  O   UNL     1      54.031 -18.146  18.677  0.00  0.00    +0.000 OA
ATOM     65  C   UNL     1      52.923 -18.282  19.192  0.00  0.00    +0.000 C 
ATOM     66  C   UNL     1      52.515 -17.427  20.349  0.00  0.00    +0.000 C 
ENDBRANCH  63  65
ENDBRANCH   4  63
TORSDOF 17
ENDMDL
MODEL 8
REMARK VINA RESULT:      -6.8     57.306     61.341
REMARK  Name = 
REMARK  23 active torsions:
REMARK  status: ('A' for Active; 'I' for Inactive)
REMARK    1  A    between atoms: O_2  and  C_17
REMARK    2  A    between atoms: O_2  and  C_36
REMARK    3  A    between atoms: O_3  and  C_20
REMARK    4  A    between atoms: O_3  and  C_37
REMARK    5  A    between atoms: O_4  and  C_21
REMARK    6  A    between atoms: O_5  and  C_22
REMARK    7  A    between atoms: O_6  and  C_30
REMARK    8  A    between atoms: O_6  and  C_39
REMARK    9  A    between atoms: O_8  and  C_31
REMARK   10  A    between atoms: O_8  and  C_40
REMARK   11  A    between atoms: O_13  and  C_42
REMARK   12  A    between atoms: N_15  and  C_46
REMARK   13  A    between atoms: C_18  and  C_29
REMARK   14  A    between atoms: C_24  and  C_33
REMARK   15  A    between atoms: C_24  and  C_34
REMARK   16  A    between atoms: C_32  and  C_35
REMARK   17  A    between atoms: C_36  and  C_38
REMARK   18  A    between atoms: C_37  and  C_41
REMARK   19  A    between atoms: C_39  and  C_43
REMARK   20  A    between atoms: C_40  and  C_42
REMARK   21  A    between atoms: C_42  and  C_46
REMARK   22  A    between atoms: C_46  and  C_50
REMARK   23  A    between atoms: C_53  and  C_56
REMARK                            x       y       z     vdW  Elec       q    Type
REMARK                         _______ _______ _______ _____ _____    ______ ____
ROOT
ATOM      1  O   UNL     1      34.439  11.304  51.760  0.00  0.00    +0.000 OA
ATOM      2  O   UNL     1      36.724  17.448  50.540  0.00  0.00    +0.000 OA
ATOM      3  C   UNL     1      36.626  13.148  49.847  0.00  0.00    +0.000 C 
ATOM      4  C   UNL     1      36.244  12.065  50.898  0.00  0.00    +0.000 C 
ATOM      5  C   UNL     1      36.794  14.791  50.781  0.00  0.00    +0.000 C 
ATOM      6  C   UNL     1      34.798  12.613  51.237  0.00  0.00    +0.000 C 
ATOM      7  C   UNL     1      37.936  12.544  48.666  0.00  0.00    +0.000 C 
ATOM      8  C   UNL     1      38.995  13.121  47.206  0.00  0.00    +0.000 C 
ATOM      9  C   UNL     1      35.359  15.026  51.414  0.00  0.00    +0.000 C 
ATOM     10  C   UNL     1      34.745  13.806  52.164  0.00  0.00    +0.000 C 
ATOM     11  C   UNL     1      39.230  14.768  46.592  0.00  0.00    +0.000 C 
ATOM     12  C   UNL     1      35.370  10.758  50.748  0.00  0.00    +0.000 C 
ATOM     13  C   UNL     1      37.326  16.454  50.080  0.00  0.00    +0.000 C 
ATOM     14  C   UNL     1      40.503  12.757  47.591  0.00  0.00    +0.000 C 
ATOM     15  C   UNL     1      39.711  15.773  47.748  0.00  0.00    +0.000 C 
ATOM     16  C   UNL     1      37.728  14.673  52.057  0.00  0.00    +0.000 C 
ATOM     17  C   UNL     1      38.649  16.832  48.739  0.00  0.00    +0.000 C 
ATOM     18  C   UNL     1      41.415  13.894  48.240  0.00  0.00    +0.000 C 
ATOM     19  C   UNL     1      40.915  15.384  48.288  0.00  0.00    +0.000 C 
ATOM     20  C   UNL     1      40.421  14.683  45.511  0.00  0.00    +0.000 C 
ATOM     21  C   UNL     1      38.185  15.367  45.596  0.00  0.00    +0.000 C 
ATOM     22  C   UNL     1      41.720  16.277  49.199  0.00  0.00    +0.000 C 
ENDROOT
BRANCH   9  23
ATOM     23  O   UNL     1      34.445  15.378  50.376  0.00  0.00    +0.000 OA
ATOM     24  H   UNL     1      34.848  15.072  49.539  0.00  0.00    +0.000 HD
ENDBRANCH   9  23
BRANCH   8  25
ATOM     25  O   UNL     1      38.635  12.265  46.105  0.00  0.00    +0.000 OA
ATOM     26  H   UNL     1      38.240  11.449  46.458  0.00  0.00    +0.000 HD
ENDBRANCH   8  25
BRANCH  18  27
ATOM     27  O   UNL     1      41.699  13.510  49.618  0.00  0.00    +0.000 OA
BRANCH  27  29
ATOM     28  O   UNL     1      43.749  13.693  50.558  0.00  0.00    +0.000 OA
ATOM     29  C   UNL     1      42.949  13.053  49.883  0.00  0.00    +0.000 C 
BRANCH  29  30
ATOM     30  C   UNL     1      43.325  11.766  49.142  0.00  0.00    +0.000 C 
BRANCH  30  31
ATOM     31  O   UNL     1      43.463  10.603  49.967  0.00  0.00    +0.000 OA
ATOM     32  H   UNL     1      43.060  10.830  50.825  0.00  0.00    +0.000 HD
ENDBRANCH  30  31
BRANCH  30  33
ATOM     33  C   UNL     1      44.635  12.030  48.349  0.00  0.00    +0.000 C 
BRANCH  33  34
ATOM     34  C   UNL     1      44.324  12.623  46.982  0.00  0.00    +0.000 A 
ATOM     35  C   UNL     1      44.634  13.970  46.727  0.00  0.00    +0.000 A 
ATOM     36  C   UNL     1      43.704  11.874  45.969  0.00  0.00    +0.000 A 
ATOM     37  C   UNL     1      44.349  14.546  45.488  0.00  0.00    +0.000 A 
ATOM     38  C   UNL     1      43.422  12.451  44.730  0.00  0.00    +0.000 A 
ATOM     39  C   UNL     1      43.746  13.785  44.489  0.00  0.00    +0.000 A 
ENDBRANCH  33  34
BRANCH  33  41
ATOM     40  O   UNL     1      47.344   9.640  48.177  0.00  0.00    +0.000 OA
ATOM     41  N   UNL     1      45.415  10.792  48.221  0.00  0.00    +0.000 N 
ATOM     42  C   UNL     1      46.713  10.630  47.819  0.00  0.00    +0.000 C 
ATOM     43  H   UNL     1      45.049  10.004  48.746  0.00  0.00    +0.000 HD
BRANCH  42  44
ATOM     44  C   UNL     1      47.377  11.663  46.992  0.00  0.00    +0.000 A 
ATOM     45  C   UNL     1      48.002  12.771  47.573  0.00  0.00    +0.000 A 
ATOM     46  C   UNL     1      47.309  11.550  45.598  0.00  0.00    +0.000 A 
ATOM     47  C   UNL     1      48.610  13.730  46.761  0.00  0.00    +0.000 A 
ATOM     48  C   UNL     1      47.914  12.511  44.790  0.00  0.00    +0.000 A 
ATOM     49  C   UNL     1      48.572  13.595  45.373  0.00  0.00    +0.000 A 
ENDBRANCH  42  44
ENDBRANCH  33  41
ENDBRANCH  30  33
ENDBRANCH  29  30
ENDBRANCH  27  29
ENDBRANCH  18  27
BRANCH  17  50
ATOM     50  O   UNL     1      38.218  17.846  47.806  0.00  0.00    +0.000 OA
BRANCH  50  52
ATOM     51  O   UNL     1      37.577  19.988  47.895  0.00  0.00    +0.000 OA
ATOM     52  C   UNL     1      38.481  19.162  47.972  0.00  0.00    +0.000 C 
ATOM     53  C   UNL     1      39.911  19.572  48.160  0.00  0.00    +0.000 C 
ENDBRANCH  50  52
ENDBRANCH  17  50
BRANCH   7  54
ATOM     54  O   UNL     1      38.800  13.117  49.478  0.00  0.00    +0.000 OA
BRANCH  54  56
ATOM     55  O   UNL     1      38.666  11.144  49.120  0.00  0.00    +0.000 OA
ATOM     56  C   UNL     1      39.244  11.888  49.906  0.00  0.00    +0.000 C 
BRANCH  56  57
ATOM     57  C   UNL     1      40.221  11.602  51.527  0.00  0.00    +0.000 A 
ATOM     58  C   UNL     1      40.469  12.614  52.552  0.00  0.00    +0.000 A 
ATOM     59  C   UNL     1      40.724  10.365  52.031  0.00  0.00    +0.000 A 
ATOM     60  C   UNL     1      41.086  12.423  53.814  0.00  0.00    +0.000 A 
ATOM     61  C   UNL     1      41.348  10.153  53.293  0.00  0.00    +0.000 A 
ATOM     62  C   UNL     1      41.527  11.180  54.189  0.00  0.00    +0.000 A 
ENDBRANCH  56  57
ENDBRANCH  54  56
ENDBRANCH   7  54
BRANCH   4  63
ATOM     63  O   UNL     1      37.155  12.047  52.023  0.00  0.00    +0.000 OA
BRANCH  63  65
ATOM     64  O   UNL     1      37.377   9.936  52.725  0.00  0.00    +0.000 OA
ATOM     65  C   UNL     1      37.148  11.112  53.000  0.00  0.00    +0.000 C 
ATOM     66  C   UNL     1      36.745  11.502  54.386  0.00  0.00    +0.000 C 
ENDBRANCH  63  65
ENDBRANCH   4  63
TORSDOF 17
ENDMDL
MODEL 9
REMARK VINA RESULT:      -6.7     55.842     61.120
REMARK  Name = 
REMARK  23 active torsions:
REMARK  status: ('A' for Active; 'I' for Inactive)
REMARK    1  A    between atoms: O_2  and  C_17
REMARK    2  A    between atoms: O_2  and  C_36
REMARK    3  A    between atoms: O_3  and  C_20
REMARK    4  A    between atoms: O_3  and  C_37
REMARK    5  A    between atoms: O_4  and  C_21
REMARK    6  A    between atoms: O_5  and  C_22
REMARK    7  A    between atoms: O_6  and  C_30
REMARK    8  A    between atoms: O_6  and  C_39
REMARK    9  A    between atoms: O_8  and  C_31
REMARK   10  A    between atoms: O_8  and  C_40
REMARK   11  A    between atoms: O_13  and  C_42
REMARK   12  A    between atoms: N_15  and  C_46
REMARK   13  A    between atoms: C_18  and  C_29
REMARK   14  A    between atoms: C_24  and  C_33
REMARK   15  A    between atoms: C_24  and  C_34
REMARK   16  A    between atoms: C_32  and  C_35
REMARK   17  A    between atoms: C_36  and  C_38
REMARK   18  A    between atoms: C_37  and  C_41
REMARK   19  A    between atoms: C_39  and  C_43
REMARK   20  A    between atoms: C_40  and  C_42
REMARK   21  A    between atoms: C_42  and  C_46
REMARK   22  A    between atoms: C_46  and  C_50
REMARK   23  A    between atoms: C_53  and  C_56
REMARK                            x       y       z     vdW  Elec       q    Type
REMARK                         _______ _______ _______ _____ _____    ______ ____
ROOT
ATOM      1  O   UNL     1      34.913  11.475  51.674  0.00  0.00    +0.000 OA
ATOM      2  O   UNL     1      37.283  17.586  50.449  0.00  0.00    +0.000 OA
ATOM      3  C   UNL     1      36.978  13.318  49.629  0.00  0.00    +0.000 C 
ATOM      4  C   UNL     1      36.657  12.211  50.675  0.00  0.00    +0.000 C 
ATOM      5  C   UNL     1      37.286  14.921  50.596  0.00  0.00    +0.000 C 
ATOM      6  C   UNL     1      35.267  12.790  51.163  0.00  0.00    +0.000 C 
ATOM      7  C   UNL     1      38.155  12.716  48.314  0.00  0.00    +0.000 C 
ATOM      8  C   UNL     1      39.096  13.312  46.782  0.00  0.00    +0.000 C 
ATOM      9  C   UNL     1      35.923  15.177  51.366  0.00  0.00    +0.000 C 
ATOM     10  C   UNL     1      35.338  13.950  52.130  0.00  0.00    +0.000 C 
ATOM     11  C   UNL     1      39.329  14.972  46.203  0.00  0.00    +0.000 C 
ATOM     12  C   UNL     1      35.730  10.937  50.564  0.00  0.00    +0.000 C 
ATOM     13  C   UNL     1      37.808  16.591  49.904  0.00  0.00    +0.000 C 
ATOM     14  C   UNL     1      40.619  12.889  47.015  0.00  0.00    +0.000 C 
ATOM     15  C   UNL     1      39.947  15.920  47.342  0.00  0.00    +0.000 C 
ATOM     16  C   UNL     1      38.326  14.729  51.777  0.00  0.00    +0.000 C 
ATOM     17  C   UNL     1      39.016  16.975  48.461  0.00  0.00    +0.000 C 
ATOM     18  C   UNL     1      41.624  13.973  47.614  0.00  0.00    +0.000 C 
ATOM     19  C   UNL     1      41.181  15.476  47.756  0.00  0.00    +0.000 C 
ATOM     20  C   UNL     1      40.414  14.889  45.015  0.00  0.00    +0.000 C 
ATOM     21  C   UNL     1      38.219  15.638  45.328  0.00  0.00    +0.000 C 
ATOM     22  C   UNL     1      42.095  16.311  48.618  0.00  0.00    +0.000 C 
ENDROOT
BRANCH   9  23
ATOM     23  O   UNL     1      34.930  15.594  50.429  0.00  0.00    +0.000 OA
ATOM     24  H   UNL     1      35.294  16.380  49.974  0.00  0.00    +0.000 HD
ENDBRANCH   9  23
BRANCH   8  25
ATOM     25  O   UNL     1      38.608  12.508  45.691  0.00  0.00    +0.000 OA
ATOM     26  H   UNL     1      37.704  12.792  45.472  0.00  0.00    +0.000 HD
ENDBRANCH   8  25
BRANCH  18  27
ATOM     27  O   UNL     1      42.018  13.533  48.947  0.00  0.00    +0.000 OA
BRANCH  27  29
ATOM     28  O   UNL     1      43.996  13.370  50.034  0.00  0.00    +0.000 OA
ATOM     29  C   UNL     1      43.282  13.057  49.087  0.00  0.00    +0.000 C 
BRANCH  29  30
ATOM     30  C   UNL     1      43.788  12.238  47.896  0.00  0.00    +0.000 C 
BRANCH  30  31
ATOM     31  O   UNL     1      44.692  11.176  48.222  0.00  0.00    +0.000 OA
ATOM     32  H   UNL     1      44.137  10.430  48.518  0.00  0.00    +0.000 HD
ENDBRANCH  30  31
BRANCH  30  33
ATOM     33  C   UNL     1      44.441  13.216  46.880  0.00  0.00    +0.000 C 
BRANCH  33  34
ATOM     34  C   UNL     1      44.668  12.527  45.541  0.00  0.00    +0.000 A 
ATOM     35  C   UNL     1      45.981  12.305  45.093  0.00  0.00    +0.000 A 
ATOM     36  C   UNL     1      43.602  12.131  44.717  0.00  0.00    +0.000 A 
ATOM     37  C   UNL     1      46.221  11.688  43.864  0.00  0.00    +0.000 A 
ATOM     38  C   UNL     1      43.844  11.513  43.490  0.00  0.00    +0.000 A 
ATOM     39  C   UNL     1      45.153  11.289  43.065  0.00  0.00    +0.000 A 
ENDBRANCH  33  34
BRANCH  33  41
ATOM     40  O   UNL     1      47.014  15.421  48.143  0.00  0.00    +0.000 OA
ATOM     41  N   UNL     1      45.699  13.749  47.417  0.00  0.00    +0.000 N 
ATOM     42  C   UNL     1      46.219  15.009  47.303  0.00  0.00    +0.000 C 
ATOM     43  H   UNL     1      46.093  13.214  48.185  0.00  0.00    +0.000 HD
BRANCH  42  44
ATOM     44  C   UNL     1      45.794  15.899  46.199  0.00  0.00    +0.000 A 
ATOM     45  C   UNL     1      44.461  16.294  46.052  0.00  0.00    +0.000 A 
ATOM     46  C   UNL     1      46.747  16.288  45.249  0.00  0.00    +0.000 A 
ATOM     47  C   UNL     1      44.095  17.126  44.992  0.00  0.00    +0.000 A 
ATOM     48  C   UNL     1      46.378  17.116  44.190  0.00  0.00    +0.000 A 
ATOM     49  C   UNL     1      45.054  17.542  44.068  0.00  0.00    +0.000 A 
ENDBRANCH  42  44
ENDBRANCH  33  41
ENDBRANCH  30  33
ENDBRANCH  29  30
ENDBRANCH  27  29
ENDBRANCH  18  27
BRANCH  17  50
ATOM     50  O   UNL     1      38.535  18.034  47.604  0.00  0.00    +0.000 OA
BRANCH  50  52
ATOM     51  O   UNL     1      37.846  20.164  47.615  0.00  0.00    +0.000 OA
ATOM     52  C   UNL     1      38.723  19.346  47.876  0.00  0.00    +0.000 C 
ATOM     53  C   UNL     1      40.058  19.766  48.414  0.00  0.00    +0.000 C 
ENDBRANCH  50  52
ENDBRANCH  17  50
BRANCH   7  54
ATOM     54  O   UNL     1      39.107  13.233  49.061  0.00  0.00    +0.000 OA
BRANCH  54  56
ATOM     55  O   UNL     1      38.836  11.277  48.691  0.00  0.00    +0.000 OA
ATOM     56  C   UNL     1      39.555  11.977  49.397  0.00  0.00    +0.000 C 
BRANCH  56  57
ATOM     57  C   UNL     1      40.743  11.612  50.852  0.00  0.00    +0.000 A 
ATOM     58  C   UNL     1      41.014  12.516  51.968  0.00  0.00    +0.000 A 
ATOM     59  C   UNL     1      41.423  10.388  51.132  0.00  0.00    +0.000 A 
ATOM     60  C   UNL     1      41.794  12.246  53.120  0.00  0.00    +0.000 A 
ATOM     61  C   UNL     1      42.212  10.099  52.281  0.00  0.00    +0.000 A 
ATOM     62  C   UNL     1      42.397  11.026  53.279  0.00  0.00    +0.000 A 
ENDBRANCH  56  57
ENDBRANCH  54  56
ENDBRANCH   7  54
BRANCH   4  63
ATOM     63  O   UNL     1      37.665  12.125  51.710  0.00  0.00    +0.000 OA
BRANCH  63  65
ATOM     64  O   UNL     1      38.101  10.003  52.263  0.00  0.00    +0.000 OA
ATOM     65  C   UNL     1      37.749  11.126  52.618  0.00  0.00    +0.000 C 
ATOM     66  C   UNL     1      37.299  11.371  54.023  0.00  0.00    +0.000 C 
ENDBRANCH  63  65
ENDBRANCH   4  63
TORSDOF 17
ENDMDL
