MODEL 1
REMARK VINA RESULT:      -8.0      0.000      0.000
REMARK  Name = 
REMARK  5 active torsions:
REMARK  status: ('A' for Active; 'I' for Inactive)
REMARK    1  A    between atoms: O_1  and  C_16
REMARK    2  A    between atoms: O_3  and  C_25
REMARK    3  A    between atoms: C_11  and  C_22
REMARK    4  A    between atoms: C_16  and  C_28
REMARK    5  A    between atoms: C_29  and  C_31
REMARK                            x       y       z     vdW  Elec       q    Type
REMARK                         _______ _______ _______ _____ _____    ______ ____
ROOT
ATOM      1  O   UNL     1      21.343   2.214   4.969  0.00  0.00    +0.000 OA
ATOM      2  N   UNL     1      30.470  -0.075   3.700  0.00  0.00    +0.000 NA
ATOM      3  C   UNL     1      27.190   1.188   5.275  0.00  0.00    +0.000 C 
ATOM      4  C   UNL     1      26.238   2.390   5.035  0.00  0.00    +0.000 C 
ATOM      5  C   UNL     1      24.954   0.505   5.796  0.00  0.00    +0.000 C 
ATOM      6  C   UNL     1      24.838   1.764   4.927  0.00  0.00    +0.000 C 
ATOM      7  C   UNL     1      28.345   1.104   4.257  0.00  0.00    +0.000 C 
ATOM      8  C   UNL     1      26.287  -0.063   5.321  0.00  0.00    +0.000 C 
ATOM      9  C   UNL     1      23.680  -0.379   5.731  0.00  0.00    +0.000 C 
ATOM     10  C   UNL     1      29.062   2.470   4.188  0.00  0.00    +0.000 C 
ATOM     11  C   UNL     1      26.606   3.211   3.803  0.00  0.00    +0.000 C 
ATOM     12  C   UNL     1      22.508   0.513   6.243  0.00  0.00    +0.000 C 
ATOM     13  C   UNL     1      28.083   3.598   3.775  0.00  0.00    +0.000 C 
ATOM     14  C   UNL     1      30.331   2.394   3.289  0.00  0.00    +0.000 C 
ATOM     15  C   UNL     1      23.674   2.645   5.356  0.00  0.00    +0.000 C 
ATOM     16  C   UNL     1      29.329  -0.012   4.630  0.00  0.00    +0.000 C 
ATOM     17  C   UNL     1      31.250   1.194   3.731  0.00  0.00    +0.000 C 
ATOM     18  C   UNL     1      23.819  -1.586   6.693  0.00  0.00    +0.000 C 
ATOM     19  C   UNL     1      22.405   1.808   5.435  0.00  0.00    +0.000 C 
ATOM     20  C   UNL     1      23.415  -0.908   4.299  0.00  0.00    +0.000 C 
ATOM     21  C   UNL     1      21.189  -0.253   6.343  0.00  0.00    +0.000 C 
ATOM     22  C   UNL     1      22.512  -2.362   6.878  0.00  0.00    +0.000 C 
ATOM     23  C   UNL     1      21.339  -1.462   7.268  0.00  0.00    +0.000 C 
ATOM     24  C   UNL     1      32.498   1.079   2.819  0.00  0.00    +0.000 C 
ATOM     25  C   UNL     1      31.305  -1.237   4.065  0.00  0.00    +0.000 C 
ATOM     26  C   UNL     1      31.098   3.724   3.315  0.00  0.00    +0.000 C 
ATOM     27  C   UNL     1      32.502  -1.428   3.128  0.00  0.00    +0.000 C 
ATOM     28  C   UNL     1      33.344  -0.153   3.119  0.00  0.00    +0.000 C 
ATOM     29  C   UNL     1      32.064  -1.838   1.719  0.00  0.00    +0.000 C 
ENDROOT
BRANCH  14  30
ATOM     30  O   UNL     1      29.905   2.167   1.935  0.00  0.00    +0.000 OA
ATOM     31  H   UNL     1      28.928   2.134   1.978  0.00  0.00    +0.000 HD
ENDBRANCH  14  30
BRANCH  23  32
ATOM     32  O   UNL     1      20.148  -2.241   7.242  0.00  0.00    +0.000 OA
ATOM     33  H   UNL     1      20.351  -3.080   6.793  0.00  0.00    +0.000 HD
ENDBRANCH  23  32
TORSDOF 2
ENDMDL
MODEL 2
REMARK VINA RESULT:      -7.8     36.530     38.797
REMARK  Name = 
REMARK  5 active torsions:
REMARK  status: ('A' for Active; 'I' for Inactive)
REMARK    1  A    between atoms: O_1  and  C_16
REMARK    2  A    between atoms: O_3  and  C_25
REMARK    3  A    between atoms: C_11  and  C_22
REMARK    4  A    between atoms: C_16  and  C_28
REMARK    5  A    between atoms: C_29  and  C_31
REMARK                            x       y       z     vdW  Elec       q    Type
REMARK                         _______ _______ _______ _____ _____    ______ ____
ROOT
ATOM      1  O   UNL     1      52.088   5.895  33.918  0.00  0.00    +0.000 OA
ATOM      2  N   UNL     1      49.244  -2.926  35.981  0.00  0.00    +0.000 NA
ATOM      3  C   UNL     1      49.380   0.912  35.702  0.00  0.00    +0.000 C 
ATOM      4  C   UNL     1      50.256   2.036  36.317  0.00  0.00    +0.000 C 
ATOM      5  C   UNL     1      49.571   2.690  34.107  0.00  0.00    +0.000 C 
ATOM      6  C   UNL     1      50.712   2.879  35.115  0.00  0.00    +0.000 C 
ATOM      7  C   UNL     1      49.838  -0.507  36.091  0.00  0.00    +0.000 C 
ATOM      8  C   UNL     1      49.354   1.182  34.183  0.00  0.00    +0.000 C 
ATOM      9  C   UNL     1      49.875   3.351  32.736  0.00  0.00    +0.000 C 
ATOM     10  C   UNL     1      49.984  -0.593  37.626  0.00  0.00    +0.000 C 
ATOM     11  C   UNL     1      51.429   1.505  37.134  0.00  0.00    +0.000 C 
ATOM     12  C   UNL     1      50.082   4.868  33.024  0.00  0.00    +0.000 C 
ATOM     13  C   UNL     1      51.005   0.448  38.152  0.00  0.00    +0.000 C 
ATOM     14  C   UNL     1      50.295  -2.049  38.080  0.00  0.00    +0.000 C 
ATOM     15  C   UNL     1      50.987   4.350  35.392  0.00  0.00    +0.000 C 
ATOM     16  C   UNL     1      48.853  -1.565  35.575  0.00  0.00    +0.000 C 
ATOM     17  C   UNL     1      49.252  -3.055  37.465  0.00  0.00    +0.000 C 
ATOM     18  C   UNL     1      48.655   3.204  31.791  0.00  0.00    +0.000 C 
ATOM     19  C   UNL     1      51.173   5.088  34.074  0.00  0.00    +0.000 C 
ATOM     20  C   UNL     1      51.115   2.722  32.054  0.00  0.00    +0.000 C 
ATOM     21  C   UNL     1      50.286   5.685  31.748  0.00  0.00    +0.000 C 
ATOM     22  C   UNL     1      48.777   4.045  30.517  0.00  0.00    +0.000 C 
ATOM     23  C   UNL     1      49.095   5.512  30.804  0.00  0.00    +0.000 C 
ATOM     24  C   UNL     1      49.573  -4.515  37.876  0.00  0.00    +0.000 C 
ATOM     25  C   UNL     1      48.310  -3.884  35.356  0.00  0.00    +0.000 C 
ATOM     26  C   UNL     1      50.328  -2.146  39.613  0.00  0.00    +0.000 C 
ATOM     27  C   UNL     1      48.653  -5.343  35.674  0.00  0.00    +0.000 C 
ATOM     28  C   UNL     1      48.675  -5.538  37.189  0.00  0.00    +0.000 C 
ATOM     29  C   UNL     1      49.967  -5.776  35.019  0.00  0.00    +0.000 C 
ENDROOT
BRANCH  14  30
ATOM     30  O   UNL     1      51.603  -2.397  37.597  0.00  0.00    +0.000 OA
ATOM     31  H   UNL     1      52.017  -2.903  38.326  0.00  0.00    +0.000 HD
ENDBRANCH  14  30
BRANCH  23  32
ATOM     32  O   UNL     1      49.361   6.164  29.567  0.00  0.00    +0.000 OA
ATOM     33  H   UNL     1      48.507   6.341  29.135  0.00  0.00    +0.000 HD
ENDBRANCH  23  32
TORSDOF 2
ENDMDL
MODEL 3
REMARK VINA RESULT:      -7.8     19.274     22.050
REMARK  Name = 
REMARK  5 active torsions:
REMARK  status: ('A' for Active; 'I' for Inactive)
REMARK    1  A    between atoms: O_1  and  C_16
REMARK    2  A    between atoms: O_3  and  C_25
REMARK    3  A    between atoms: C_11  and  C_22
REMARK    4  A    between atoms: C_16  and  C_28
REMARK    5  A    between atoms: C_29  and  C_31
REMARK                            x       y       z     vdW  Elec       q    Type
REMARK                         _______ _______ _______ _____ _____    ______ ____
ROOT
ATOM      1  O   UNL     1      20.174  19.316  18.560  0.00  0.00    +0.000 OA
ATOM      2  N   UNL     1      19.498   9.929  19.818  0.00  0.00    +0.000 NA
ATOM      3  C   UNL     1      20.798  13.554  19.880  0.00  0.00    +0.000 C 
ATOM      4  C   UNL     1      21.321  14.560  18.821  0.00  0.00    +0.000 C 
ATOM      5  C   UNL     1      20.202  15.768  20.573  0.00  0.00    +0.000 C 
ATOM      6  C   UNL     1      20.517  15.847  19.074  0.00  0.00    +0.000 C 
ATOM      7  C   UNL     1      20.296  12.228  19.275  0.00  0.00    +0.000 C 
ATOM      8  C   UNL     1      19.743  14.319  20.705  0.00  0.00    +0.000 C 
ATOM      9  C   UNL     1      19.265  16.913  21.043  0.00  0.00    +0.000 C 
ATOM     10  C   UNL     1      21.383  11.651  18.341  0.00  0.00    +0.000 C 
ATOM     11  C   UNL     1      21.176  14.055  17.389  0.00  0.00    +0.000 C 
ATOM     12  C   UNL     1      20.015  18.242  20.727  0.00  0.00    +0.000 C 
ATOM     13  C   UNL     1      21.732  12.645  17.204  0.00  0.00    +0.000 C 
ATOM     14  C   UNL     1      20.987  10.237  17.825  0.00  0.00    +0.000 C 
ATOM     15  C   UNL     1      21.207  17.152  18.706  0.00  0.00    +0.000 C 
ATOM     16  C   UNL     1      19.930  11.223  20.374  0.00  0.00    +0.000 C 
ATOM     17  C   UNL     1      20.593   9.300  19.028  0.00  0.00    +0.000 C 
ATOM     18  C   UNL     1      19.053  16.834  22.576  0.00  0.00    +0.000 C 
ATOM     19  C   UNL     1      20.400  18.323  19.248  0.00  0.00    +0.000 C 
ATOM     20  C   UNL     1      17.884  16.853  20.343  0.00  0.00    +0.000 C 
ATOM     21  C   UNL     1      19.263  19.474  21.233  0.00  0.00    +0.000 C 
ATOM     22  C   UNL     1      18.353  18.068  23.151  0.00  0.00    +0.000 C 
ATOM     23  C   UNL     1      19.028  19.377  22.741  0.00  0.00    +0.000 C 
ATOM     24  C   UNL     1      20.157   7.899  18.527  0.00  0.00    +0.000 C 
ATOM     25  C   UNL     1      19.064   9.064  20.933  0.00  0.00    +0.000 C 
ATOM     26  C   UNL     1      22.121   9.625  16.988  0.00  0.00    +0.000 C 
ATOM     27  C   UNL     1      18.546   7.701  20.462  0.00  0.00    +0.000 C 
ATOM     28  C   UNL     1      19.630   7.004  19.643  0.00  0.00    +0.000 C 
ATOM     29  C   UNL     1      17.231   7.827  19.687  0.00  0.00    +0.000 C 
ENDROOT
BRANCH  14  30
ATOM     30  O   UNL     1      19.844  10.379  16.965  0.00  0.00    +0.000 OA
ATOM     31  H   UNL     1      19.187   9.741  17.308  0.00  0.00    +0.000 HD
ENDBRANCH  14  30
BRANCH  23  32
ATOM     32  O   UNL     1      18.210  20.459  23.172  0.00  0.00    +0.000 OA
ATOM     33  H   UNL     1      17.281  20.198  23.045  0.00  0.00    +0.000 HD
ENDBRANCH  23  32
TORSDOF 2
ENDMDL
MODEL 4
REMARK VINA RESULT:      -7.7     20.306     22.827
REMARK  Name = 
REMARK  5 active torsions:
REMARK  status: ('A' for Active; 'I' for Inactive)
REMARK    1  A    between atoms: O_1  and  C_16
REMARK    2  A    between atoms: O_3  and  C_25
REMARK    3  A    between atoms: C_11  and  C_22
REMARK    4  A    between atoms: C_16  and  C_28
REMARK    5  A    between atoms: C_29  and  C_31
REMARK                            x       y       z     vdW  Elec       q    Type
REMARK                         _______ _______ _______ _____ _____    ______ ____
ROOT
ATOM      1  O   UNL     1      17.168  17.774  22.672  0.00  0.00    +0.000 OA
ATOM      2  N   UNL     1      19.071   8.765  20.356  0.00  0.00    +0.000 NA
ATOM      3  C   UNL     1      19.396  12.341  21.747  0.00  0.00    +0.000 C 
ATOM      4  C   UNL     1      19.519  13.761  21.133  0.00  0.00    +0.000 C 
ATOM      5  C   UNL     1      18.334  13.904  23.221  0.00  0.00    +0.000 C 
ATOM      6  C   UNL     1      18.446  14.593  21.855  0.00  0.00    +0.000 C 
ATOM      7  C   UNL     1      19.186  11.232  20.698  0.00  0.00    +0.000 C 
ATOM      8  C   UNL     1      18.280  12.436  22.809  0.00  0.00    +0.000 C 
ATOM      9  C   UNL     1      17.194  14.496  24.092  0.00  0.00    +0.000 C 
ATOM     10  C   UNL     1      20.270  11.353  19.605  0.00  0.00    +0.000 C 
ATOM     11  C   UNL     1      19.346  13.777  19.618  0.00  0.00    +0.000 C 
ATOM     12  C   UNL     1      17.537  16.004  24.286  0.00  0.00    +0.000 C 
ATOM     13  C   UNL     1      20.221  12.740  18.916  0.00  0.00    +0.000 C 
ATOM     14  C   UNL     1      20.195  10.163  18.605  0.00  0.00    +0.000 C 
ATOM     15  C   UNL     1      18.731  16.081  21.992  0.00  0.00    +0.000 C 
ATOM     16  C   UNL     1      19.217   9.843  21.349  0.00  0.00    +0.000 C 
ATOM     17  C   UNL     1      20.194   8.790  19.376  0.00  0.00    +0.000 C 
ATOM     18  C   UNL     1      17.186  13.823  25.488  0.00  0.00    +0.000 C 
ATOM     19  C   UNL     1      17.718  16.708  22.939  0.00  0.00    +0.000 C 
ATOM     20  C   UNL     1      15.805  14.303  23.435  0.00  0.00    +0.000 C 
ATOM     21  C   UNL     1      16.557  16.712  25.221  0.00  0.00    +0.000 C 
ATOM     22  C   UNL     1      16.262  14.524  26.488  0.00  0.00    +0.000 C 
ATOM     23  C   UNL     1      16.528  16.026  26.588  0.00  0.00    +0.000 C 
ATOM     24  C   UNL     1      20.078   7.596  18.395  0.00  0.00    +0.000 C 
ATOM     25  C   UNL     1      19.003   7.476  21.073  0.00  0.00    +0.000 C 
ATOM     26  C   UNL     1      21.345  10.232  17.589  0.00  0.00    +0.000 C 
ATOM     27  C   UNL     1      18.803   6.282  20.135  0.00  0.00    +0.000 C 
ATOM     28  C   UNL     1      19.929   6.255  19.104  0.00  0.00    +0.000 C 
ATOM     29  C   UNL     1      17.420   6.301  19.476  0.00  0.00    +0.000 C 
ENDROOT
BRANCH  14  30
ATOM     30  O   UNL     1      18.964  10.274  17.871  0.00  0.00    +0.000 OA
ATOM     31  H   UNL     1      18.833   9.396  17.460  0.00  0.00    +0.000 HD
ENDBRANCH  14  30
BRANCH  23  32
ATOM     32  O   UNL     1      15.513  16.608  27.399  0.00  0.00    +0.000 OA
ATOM     33  H   UNL     1      14.846  15.923  27.579  0.00  0.00    +0.000 HD
ENDBRANCH  23  32
TORSDOF 2
ENDMDL
MODEL 5
REMARK VINA RESULT:      -7.5     15.595     19.145
REMARK  Name = 
REMARK  5 active torsions:
REMARK  status: ('A' for Active; 'I' for Inactive)
REMARK    1  A    between atoms: O_1  and  C_16
REMARK    2  A    between atoms: O_3  and  C_25
REMARK    3  A    between atoms: C_11  and  C_22
REMARK    4  A    between atoms: C_16  and  C_28
REMARK    5  A    between atoms: C_29  and  C_31
REMARK                            x       y       z     vdW  Elec       q    Type
REMARK                         _______ _______ _______ _____ _____    ______ ____
ROOT
ATOM      1  O   UNL     1      43.979   9.511  14.774  0.00  0.00    +0.000 OA
ATOM      2  N   UNL     1      37.215   2.849  14.611  0.00  0.00    +0.000 NA
ATOM      3  C   UNL     1      40.620   4.610  14.975  0.00  0.00    +0.000 C 
ATOM      4  C   UNL     1      41.629   5.281  14.006  0.00  0.00    +0.000 C 
ATOM      5  C   UNL     1      41.711   6.403  16.131  0.00  0.00    +0.000 C 
ATOM      6  C   UNL     1      41.918   6.655  14.632  0.00  0.00    +0.000 C 
ATOM      7  C   UNL     1      39.325   4.138  14.287  0.00  0.00    +0.000 C 
ATOM      8  C   UNL     1      40.403   5.619  16.123  0.00  0.00    +0.000 C 
ATOM      9  C   UNL     1      41.818   7.704  16.971  0.00  0.00    +0.000 C 
ATOM     10  C   UNL     1      39.687   3.273  13.059  0.00  0.00    +0.000 C 
ATOM     11  C   UNL     1      41.107   5.391  12.577  0.00  0.00    +0.000 C 
ATOM     12  C   UNL     1      43.251   8.264  16.720  0.00  0.00    +0.000 C 
ATOM     13  C   UNL     1      40.556   4.067  12.050  0.00  0.00    +0.000 C 
ATOM     14  C   UNL     1      38.415   2.645  12.419  0.00  0.00    +0.000 C 
ATOM     15  C   UNL     1      43.287   7.251  14.340  0.00  0.00    +0.000 C 
ATOM     16  C   UNL     1      38.435   3.356  15.262  0.00  0.00    +0.000 C 
ATOM     17  C   UNL     1      37.555   1.904  13.510  0.00  0.00    +0.000 C 
ATOM     18  C   UNL     1      41.689   7.375  18.480  0.00  0.00    +0.000 C 
ATOM     19  C   UNL     1      43.511   8.468  15.226  0.00  0.00    +0.000 C 
ATOM     20  C   UNL     1      40.724   8.731  16.587  0.00  0.00    +0.000 C 
ATOM     21  C   UNL     1      43.554   9.499  17.569  0.00  0.00    +0.000 C 
ATOM     22  C   UNL     1      42.036   8.561  19.386  0.00  0.00    +0.000 C 
ATOM     23  C   UNL     1      43.395   9.179  19.057  0.00  0.00    +0.000 C 
ATOM     24  C   UNL     1      36.263   1.308  12.896  0.00  0.00    +0.000 C 
ATOM     25  C   UNL     1      36.370   2.208  15.638  0.00  0.00    +0.000 C 
ATOM     26  C   UNL     1      38.793   1.700  11.269  0.00  0.00    +0.000 C 
ATOM     27  C   UNL     1      35.045   1.683  15.076  0.00  0.00    +0.000 C 
ATOM     28  C   UNL     1      35.330   0.704  13.940  0.00  0.00    +0.000 C 
ATOM     29  C   UNL     1      34.121   2.823  14.635  0.00  0.00    +0.000 C 
ENDROOT
BRANCH  14  30
ATOM     30  O   UNL     1      37.624   3.709  11.862  0.00  0.00    +0.000 OA
ATOM     31  H   UNL     1      37.647   4.421  12.533  0.00  0.00    +0.000 HD
ENDBRANCH  14  30
BRANCH  23  32
ATOM     32  O   UNL     1      43.544  10.368  19.825  0.00  0.00    +0.000 OA
ATOM     33  H   UNL     1      42.765  10.928  19.660  0.00  0.00    +0.000 HD
ENDBRANCH  23  32
TORSDOF 2
ENDMDL
MODEL 6
REMARK VINA RESULT:      -7.4      3.915      6.685
REMARK  Name = 
REMARK  5 active torsions:
REMARK  status: ('A' for Active; 'I' for Inactive)
REMARK    1  A    between atoms: O_1  and  C_16
REMARK    2  A    between atoms: O_3  and  C_25
REMARK    3  A    between atoms: C_11  and  C_22
REMARK    4  A    between atoms: C_16  and  C_28
REMARK    5  A    between atoms: C_29  and  C_31
REMARK                            x       y       z     vdW  Elec       q    Type
REMARK                         _______ _______ _______ _____ _____    ______ ____
ROOT
ATOM      1  O   UNL     1      25.548  -2.405   4.762  0.00  0.00    +0.000 OA
ATOM      2  N   UNL     1      24.425   7.007   5.319  0.00  0.00    +0.000 NA
ATOM      3  C   UNL     1      24.568   3.405   3.966  0.00  0.00    +0.000 C 
ATOM      4  C   UNL     1      25.692   2.372   3.684  0.00  0.00    +0.000 C 
ATOM      5  C   UNL     1      23.695   1.205   4.340  0.00  0.00    +0.000 C 
ATOM      6  C   UNL     1      25.223   1.084   4.380  0.00  0.00    +0.000 C 
ATOM      7  C   UNL     1      25.076   4.703   4.622  0.00  0.00    +0.000 C 
ATOM      8  C   UNL     1      23.499   2.651   4.785  0.00  0.00    +0.000 C 
ATOM      9  C   UNL     1      22.989   0.063   5.118  0.00  0.00    +0.000 C 
ATOM     10  C   UNL     1      26.253   5.266   3.794  0.00  0.00    +0.000 C 
ATOM     11  C   UNL     1      27.064   2.830   4.168  0.00  0.00    +0.000 C 
ATOM     12  C   UNL     1      23.434  -1.266   4.435  0.00  0.00    +0.000 C 
ATOM     13  C   UNL     1      27.412   4.241   3.698  0.00  0.00    +0.000 C 
ATOM     14  C   UNL     1      26.700   6.658   4.327  0.00  0.00    +0.000 C 
ATOM     15  C   UNL     1      25.706  -0.223   3.768  0.00  0.00    +0.000 C 
ATOM     16  C   UNL     1      23.949   5.738   4.743  0.00  0.00    +0.000 C 
ATOM     17  C   UNL     1      25.465   7.627   4.451  0.00  0.00    +0.000 C 
ATOM     18  C   UNL     1      21.451   0.188   4.969  0.00  0.00    +0.000 C 
ATOM     19  C   UNL     1      24.959  -1.387   4.403  0.00  0.00    +0.000 C 
ATOM     20  C   UNL     1      23.349   0.082   6.625  0.00  0.00    +0.000 C 
ATOM     21  C   UNL     1      22.734  -2.490   5.024  0.00  0.00    +0.000 C 
ATOM     22  C   UNL     1      20.696  -1.038   5.492  0.00  0.00    +0.000 C 
ATOM     23  C   UNL     1      21.215  -2.350   4.904  0.00  0.00    +0.000 C 
ATOM     24  C   UNL     1      25.889   9.005   5.020  0.00  0.00    +0.000 C 
ATOM     25  C   UNL     1      23.264   7.901   5.500  0.00  0.00    +0.000 C 
ATOM     26  C   UNL     1      27.795   7.258   3.432  0.00  0.00    +0.000 C 
ATOM     27  C   UNL     1      23.638   9.242   6.140  0.00  0.00    +0.000 C 
ATOM     28  C   UNL     1      24.706   9.927   5.290  0.00  0.00    +0.000 C 
ATOM     29  C   UNL     1      24.082   9.073   7.596  0.00  0.00    +0.000 C 
ENDROOT
BRANCH  14  30
ATOM     30  O   UNL     1      27.267   6.473   5.636  0.00  0.00    +0.000 OA
ATOM     31  H   UNL     1      26.857   7.167   6.190  0.00  0.00    +0.000 HD
ENDBRANCH  14  30
BRANCH  23  32
ATOM     32  O   UNL     1      20.576  -3.428   5.578  0.00  0.00    +0.000 OA
ATOM     33  H   UNL     1      20.583  -3.230   6.530  0.00  0.00    +0.000 HD
ENDBRANCH  23  32
TORSDOF 2
ENDMDL
MODEL 7
REMARK VINA RESULT:      -7.0     36.506     38.566
REMARK  Name = 
REMARK  5 active torsions:
REMARK  status: ('A' for Active; 'I' for Inactive)
REMARK    1  A    between atoms: O_1  and  C_16
REMARK    2  A    between atoms: O_3  and  C_25
REMARK    3  A    between atoms: C_11  and  C_22
REMARK    4  A    between atoms: C_16  and  C_28
REMARK    5  A    between atoms: C_29  and  C_31
REMARK                            x       y       z     vdW  Elec       q    Type
REMARK                         _______ _______ _______ _____ _____    ______ ____
ROOT
ATOM      1  O   UNL     1      51.130  -3.019  37.860  0.00  0.00    +0.000 OA
ATOM      2  N   UNL     1      50.131   4.618  32.308  0.00  0.00    +0.000 NA
ATOM      3  C   UNL     1      49.359   1.475  34.394  0.00  0.00    +0.000 C 
ATOM      4  C   UNL     1      49.653  -0.042  34.260  0.00  0.00    +0.000 C 
ATOM      5  C   UNL     1      49.615   0.550  36.590  0.00  0.00    +0.000 C 
ATOM      6  C   UNL     1      50.256  -0.446  35.615  0.00  0.00    +0.000 C 
ATOM      7  C   UNL     1      50.008   2.329  33.287  0.00  0.00    +0.000 C 
ATOM      8  C   UNL     1      49.782   1.861  35.828  0.00  0.00    +0.000 C 
ATOM      9  C   UNL     1      50.185   0.423  38.028  0.00  0.00    +0.000 C 
ATOM     10  C   UNL     1      49.641   1.738  31.908  0.00  0.00    +0.000 C 
ATOM     11  C   UNL     1      50.575  -0.375  33.090  0.00  0.00    +0.000 C 
ATOM     12  C   UNL     1      49.884  -1.036  38.485  0.00  0.00    +0.000 C 
ATOM     13  C   UNL     1      50.118   0.268  31.782  0.00  0.00    +0.000 C 
ATOM     14  C   UNL     1      50.143   2.652  30.753  0.00  0.00    +0.000 C 
ATOM     15  C   UNL     1      50.032  -1.888  36.046  0.00  0.00    +0.000 C 
ATOM     16  C   UNL     1      49.565   3.794  33.389  0.00  0.00    +0.000 C 
ATOM     17  C   UNL     1      49.668   4.137  30.976  0.00  0.00    +0.000 C 
ATOM     18  C   UNL     1      49.440   1.389  38.983  0.00  0.00    +0.000 C 
ATOM     19  C   UNL     1      50.458  -2.055  37.499  0.00  0.00    +0.000 C 
ATOM     20  C   UNL     1      51.701   0.738  38.078  0.00  0.00    +0.000 C 
ATOM     21  C   UNL     1      50.291  -1.292  39.936  0.00  0.00    +0.000 C 
ATOM     22  C   UNL     1      49.766   1.144  40.460  0.00  0.00    +0.000 C 
ATOM     23  C   UNL     1      49.578  -0.315  40.874  0.00  0.00    +0.000 C 
ATOM     24  C   UNL     1      50.195   5.068  29.855  0.00  0.00    +0.000 C 
ATOM     25  C   UNL     1      49.745   6.024  32.542  0.00  0.00    +0.000 C 
ATOM     26  C   UNL     1      49.678   2.115  29.391  0.00  0.00    +0.000 C 
ATOM     27  C   UNL     1      50.323   6.983  31.496  0.00  0.00    +0.000 C 
ATOM     28  C   UNL     1      49.880   6.538  30.104  0.00  0.00    +0.000 C 
ATOM     29  C   UNL     1      51.846   7.096  31.606  0.00  0.00    +0.000 C 
ENDROOT
BRANCH  14  30
ATOM     30  O   UNL     1      51.580   2.628  30.759  0.00  0.00    +0.000 OA
ATOM     31  H   UNL     1      51.828   2.440  31.686  0.00  0.00    +0.000 HD
ENDBRANCH  14  30
BRANCH  23  32
ATOM     32  O   UNL     1      50.071  -0.472  42.200  0.00  0.00    +0.000 OA
ATOM     33  H   UNL     1      49.874   0.345  42.689  0.00  0.00    +0.000 HD
ENDBRANCH  23  32
TORSDOF 2
ENDMDL
MODEL 8
REMARK VINA RESULT:      -7.0     21.518     27.288
REMARK  Name = 
REMARK  5 active torsions:
REMARK  status: ('A' for Active; 'I' for Inactive)
REMARK    1  A    between atoms: O_1  and  C_16
REMARK    2  A    between atoms: O_3  and  C_25
REMARK    3  A    between atoms: C_11  and  C_22
REMARK    4  A    between atoms: C_16  and  C_28
REMARK    5  A    between atoms: C_29  and  C_31
REMARK                            x       y       z     vdW  Elec       q    Type
REMARK                         _______ _______ _______ _____ _____    ______ ____
ROOT
ATOM      1  O   UNL     1      48.017 -18.204  -8.350  0.00  0.00    +0.000 OA
ATOM      2  N   UNL     1      40.663 -16.251  -2.671  0.00  0.00    +0.000 NA
ATOM      3  C   UNL     1      43.197 -16.115  -5.567  0.00  0.00    +0.000 C 
ATOM      4  C   UNL     1      44.700 -15.753  -5.707  0.00  0.00    +0.000 C 
ATOM      5  C   UNL     1      44.143 -17.446  -7.320  0.00  0.00    +0.000 C 
ATOM      6  C   UNL     1      45.316 -16.932  -6.477  0.00  0.00    +0.000 C 
ATOM      7  C   UNL     1      42.692 -16.096  -4.111  0.00  0.00    +0.000 C 
ATOM      8  C   UNL     1      43.021 -17.469  -6.287  0.00  0.00    +0.000 C 
ATOM      9  C   UNL     1      44.494 -18.744  -8.096  0.00  0.00    +0.000 C 
ATOM     10  C   UNL     1      43.078 -14.752  -3.456  0.00  0.00    +0.000 C 
ATOM     11  C   UNL     1      45.386 -15.509  -4.367  0.00  0.00    +0.000 C 
ATOM     12  C   UNL     1      45.695 -18.383  -9.022  0.00  0.00    +0.000 C 
ATOM     13  C   UNL     1      44.613 -14.536  -3.480  0.00  0.00    +0.000 C 
ATOM     14  C   UNL     1      42.457 -14.620  -2.035  0.00  0.00    +0.000 C 
ATOM     15  C   UNL     1      46.533 -16.612  -7.332  0.00  0.00    +0.000 C 
ATOM     16  C   UNL     1      41.175 -16.318  -4.050  0.00  0.00    +0.000 C 
ATOM     17  C   UNL     1      40.909 -14.906  -2.079  0.00  0.00    +0.000 C 
ATOM     18  C   UNL     1      43.305 -19.166  -8.995  0.00  0.00    +0.000 C 
ATOM     19  C   UNL     1      46.862 -17.807  -8.216  0.00  0.00    +0.000 C 
ATOM     20  C   UNL     1      44.839 -19.913  -7.139  0.00  0.00    +0.000 C 
ATOM     21  C   UNL     1      46.096 -19.538  -9.939  0.00  0.00    +0.000 C 
ATOM     22  C   UNL     1      43.662 -20.285  -9.978  0.00  0.00    +0.000 C 
ATOM     23  C   UNL     1      44.910 -19.973 -10.803  0.00  0.00    +0.000 C 
ATOM     24  C   UNL     1      40.284 -14.819  -0.663  0.00  0.00    +0.000 C 
ATOM     25  C   UNL     1      39.224 -16.581  -2.692  0.00  0.00    +0.000 C 
ATOM     26  C   UNL     1      42.753 -13.237  -1.436  0.00  0.00    +0.000 C 
ATOM     27  C   UNL     1      38.594 -16.588  -1.295  0.00  0.00    +0.000 C 
ATOM     28  C   UNL     1      38.815 -15.228  -0.635  0.00  0.00    +0.000 C 
ATOM     29  C   UNL     1      39.126 -17.737  -0.435  0.00  0.00    +0.000 C 
ENDROOT
BRANCH  14  30
ATOM     30  O   UNL     1      43.077 -15.600  -1.185  0.00  0.00    +0.000 OA
ATOM     31  H   UNL     1      43.506 -16.232  -1.797  0.00  0.00    +0.000 HD
ENDBRANCH  14  30
BRANCH  23  32
ATOM     32  O   UNL     1      45.257 -21.135 -11.549  0.00  0.00    +0.000 OA
ATOM     33  H   UNL     1      45.263 -21.891 -10.936  0.00  0.00    +0.000 HD
ENDBRANCH  23  32
TORSDOF 2
ENDMDL
MODEL 9
REMARK VINA RESULT:      -7.0     36.451     37.948
REMARK  Name = 
REMARK  5 active torsions:
REMARK  status: ('A' for Active; 'I' for Inactive)
REMARK    1  A    between atoms: O_1  and  C_16
REMARK    2  A    between atoms: O_3  and  C_25
REMARK    3  A    between atoms: C_11  and  C_22
REMARK    4  A    between atoms: C_16  and  C_28
REMARK    5  A    between atoms: C_29  and  C_31
REMARK                            x       y       z     vdW  Elec       q    Type
REMARK                         _______ _______ _______ _____ _____    ______ ____
ROOT
ATOM      1  O   UNL     1      31.466  23.877  28.475  0.00  0.00    +0.000 OA
ATOM      2  N   UNL     1      29.421  23.183  37.721  0.00  0.00    +0.000 NA
ATOM      3  C   UNL     1      29.743  24.528  34.127  0.00  0.00    +0.000 C 
ATOM      4  C   UNL     1      30.914  24.982  33.216  0.00  0.00    +0.000 C 
ATOM      5  C   UNL     1      29.185  24.012  31.854  0.00  0.00    +0.000 C 
ATOM      6  C   UNL     1      30.705  24.216  31.899  0.00  0.00    +0.000 C 
ATOM      7  C   UNL     1      30.202  23.967  35.486  0.00  0.00    +0.000 C 
ATOM      8  C   UNL     1      28.906  23.547  33.280  0.00  0.00    +0.000 C 
ATOM      9  C   UNL     1      28.741  23.127  30.660  0.00  0.00    +0.000 C 
ATOM     10  C   UNL     1      31.164  24.973  36.154  0.00  0.00    +0.000 C 
ATOM     11  C   UNL     1      32.287  24.725  33.828  0.00  0.00    +0.000 C 
ATOM     12  C   UNL     1      29.215  23.867  29.373  0.00  0.00    +0.000 C 
ATOM     13  C   UNL     1      32.399  25.249  35.258  0.00  0.00    +0.000 C 
ATOM     14  C   UNL     1      31.536  24.524  37.597  0.00  0.00    +0.000 C 
ATOM     15  C   UNL     1      31.225  24.892  30.639  0.00  0.00    +0.000 C 
ATOM     16  C   UNL     1      29.003  23.671  36.396  0.00  0.00    +0.000 C 
ATOM     17  C   UNL     1      30.237  24.208  38.430  0.00  0.00    +0.000 C 
ATOM     18  C   UNL     1      27.195  23.029  30.615  0.00  0.00    +0.000 C 
ATOM     19  C   UNL     1      30.720  24.142  29.415  0.00  0.00    +0.000 C 
ATOM     20  C   UNL     1      29.331  21.697  30.749  0.00  0.00    +0.000 C 
ATOM     21  C   UNL     1      28.755  23.170  28.092  0.00  0.00    +0.000 C 
ATOM     22  C   UNL     1      26.670  22.388  29.327  0.00  0.00    +0.000 C 
ATOM     23  C   UNL     1      27.230  23.047  28.066  0.00  0.00    +0.000 C 
ATOM     24  C   UNL     1      30.593  23.719  39.857  0.00  0.00    +0.000 C 
ATOM     25  C   UNL     1      28.213  22.823  38.488  0.00  0.00    +0.000 C 
ATOM     26  C   UNL     1      32.402  25.584  38.292  0.00  0.00    +0.000 C 
ATOM     27  C   UNL     1      28.535  22.255  39.874  0.00  0.00    +0.000 C 
ATOM     28  C   UNL     1      29.373  23.267  40.652  0.00  0.00    +0.000 C 
ATOM     29  C   UNL     1      29.219  20.888  39.786  0.00  0.00    +0.000 C 
ENDROOT
BRANCH  14  30
ATOM     30  O   UNL     1      32.319  23.322  37.502  0.00  0.00    +0.000 OA
ATOM     31  H   UNL     1      33.213  23.621  37.242  0.00  0.00    +0.000 HD
ENDBRANCH  14  30
BRANCH  23  32
ATOM     32  O   UNL     1      26.827  22.276  26.940  0.00  0.00    +0.000 OA
ATOM     33  H   UNL     1      27.628  21.898  26.536  0.00  0.00    +0.000 HD
ENDBRANCH  23  32
TORSDOF 2
ENDMDL
