MODEL 1
REMARK VINA RESULT:      -6.6      0.000      0.000
REMARK  Name = PhIP.pdbqt.pdb
REMARK  2 active torsions:
REMARK  status: ('A' for Active; 'I' for Inactive)
REMARK    1  A    between atoms: N_4  and  C_9
REMARK    2  A    between atoms: C_7  and  C_10
REMARK                            x       y       z     vdW  Elec       q    Type
REMARK                         _______ _______ _______ _____ _____    ______ ____
ROOT
ATOM      1  N   UNL     1      18.516   6.871  21.251  0.00  0.00    +0.000 N 
ATOM      2  N   UNL     1      18.856   5.077  19.722  0.00  0.00    +0.000 NA
ATOM      3  N   UNL     1      20.237   6.297  18.142  0.00  0.00    +0.000 NA
ATOM      4  C   UNL     1      19.335   7.342  20.270  0.00  0.00    +0.000 C 
ATOM      5  C   UNL     1      19.504   6.142  19.326  0.00  0.00    +0.000 C 
ATOM      6  C   UNL     1      20.419   8.730  18.588  0.00  0.00    +0.000 C 
ATOM      7  C   UNL     1      19.733   8.493  19.821  0.00  0.00    +0.000 C 
ATOM      8  C   UNL     1      18.244   5.555  20.869  0.00  0.00    +0.000 C 
ATOM      9  C   UNL     1      17.533   7.709  21.917  0.00  0.00    +0.000 C 
ATOM     10  C   UNL     1      20.520   7.431  17.984  0.00  0.00    +0.000 C 
ENDROOT
BRANCH   6  11
ATOM     11  C   UNL     1      20.961   9.982  18.097  0.00  0.00    +0.000 A 
ATOM     12  C   UNL     1      20.404  11.201  18.488  0.00  0.00    +0.000 A 
ATOM     13  C   UNL     1      22.052   9.991  17.225  0.00  0.00    +0.000 A 
ATOM     14  C   UNL     1      20.923  12.406  18.017  0.00  0.00    +0.000 A 
ATOM     15  C   UNL     1      22.575  11.193  16.751  0.00  0.00    +0.000 A 
ATOM     16  C   UNL     1      22.009  12.401  17.148  0.00  0.00    +0.000 A 
ENDBRANCH   6  11
BRANCH   8  17
ATOM     17  N   UNL     1      17.324   4.702  21.501  0.00  0.00    +0.000 NA
ATOM     18  H   UNL     1      16.515   4.485  20.929  0.00  0.00    +0.000 HD
ATOM     19  H   UNL     1      17.762   3.892  21.921  0.00  0.00    +0.000 HD
ENDBRANCH   8  17
TORSDOF 2
ENDMDL
MODEL 2
REMARK VINA RESULT:      -6.3      1.978      3.413
REMARK  Name = PhIP.pdbqt.pdb
REMARK  2 active torsions:
REMARK  status: ('A' for Active; 'I' for Inactive)
REMARK    1  A    between atoms: N_4  and  C_9
REMARK    2  A    between atoms: C_7  and  C_10
REMARK                            x       y       z     vdW  Elec       q    Type
REMARK                         _______ _______ _______ _____ _____    ______ ____
ROOT
ATOM      1  N   UNL     1      19.894   8.360  19.140  0.00  0.00    +0.000 N 
ATOM      2  N   UNL     1      21.087   7.371  17.331  0.00  0.00    +0.000 NA
ATOM      3  N   UNL     1      22.072   9.419  16.476  0.00  0.00    +0.000 NA
ATOM      4  C   UNL     1      20.581   9.364  18.528  0.00  0.00    +0.000 C 
ATOM      5  C   UNL     1      21.316   8.659  17.378  0.00  0.00    +0.000 C 
ATOM      6  C   UNL     1      21.241  11.495  17.550  0.00  0.00    +0.000 C 
ATOM      7  C   UNL     1      20.555  10.662  18.489  0.00  0.00    +0.000 C 
ATOM      8  C   UNL     1      20.202   7.225  18.386  0.00  0.00    +0.000 C 
ATOM      9  C   UNL     1      18.590   8.564  19.748  0.00  0.00    +0.000 C 
ATOM     10  C   UNL     1      21.911  10.569  16.679  0.00  0.00    +0.000 C 
ENDROOT
BRANCH   6  11
ATOM     11  C   UNL     1      21.313  12.943  17.530  0.00  0.00    +0.000 A 
ATOM     12  C   UNL     1      21.864  13.643  18.606  0.00  0.00    +0.000 A 
ATOM     13  C   UNL     1      20.834  13.664  16.435  0.00  0.00    +0.000 A 
ATOM     14  C   UNL     1      21.934  15.035  18.589  0.00  0.00    +0.000 A 
ATOM     15  C   UNL     1      20.901  15.056  16.413  0.00  0.00    +0.000 A 
ATOM     16  C   UNL     1      21.452  15.741  17.492  0.00  0.00    +0.000 A 
ENDBRANCH   6  11
BRANCH   8  17
ATOM     17  N   UNL     1      19.614   5.960  18.551  0.00  0.00    +0.000 NA
ATOM     18  H   UNL     1      18.631   5.999  18.797  0.00  0.00    +0.000 HD
ATOM     19  H   UNL     1      19.823   5.327  17.789  0.00  0.00    +0.000 HD
ENDBRANCH   8  17
TORSDOF 2
ENDMDL
MODEL 3
REMARK VINA RESULT:      -6.0     22.164     24.185
REMARK  Name = PhIP.pdbqt.pdb
REMARK  2 active torsions:
REMARK  status: ('A' for Active; 'I' for Inactive)
REMARK    1  A    between atoms: N_4  and  C_9
REMARK    2  A    between atoms: C_7  and  C_10
REMARK                            x       y       z     vdW  Elec       q    Type
REMARK                         _______ _______ _______ _____ _____    ______ ____
ROOT
ATOM      1  N   UNL     1      45.969   9.632  19.494  0.00  0.00    +0.000 N 
ATOM      2  N   UNL     1      46.776   8.133  21.161  0.00  0.00    +0.000 NA
ATOM      3  N   UNL     1      44.699   6.924  21.498  0.00  0.00    +0.000 NA
ATOM      4  C   UNL     1      44.937   8.799  19.807  0.00  0.00    +0.000 C 
ATOM      5  C   UNL     1      45.525   7.874  20.882  0.00  0.00    +0.000 C 
ATOM      6  C   UNL     1      42.740   7.880  20.314  0.00  0.00    +0.000 C 
ATOM      7  C   UNL     1      43.647   8.771  19.660  0.00  0.00    +0.000 C 
ATOM      8  C   UNL     1      47.008   9.218  20.331  0.00  0.00    +0.000 C 
ATOM      9  C   UNL     1      45.767  11.023  19.129  0.00  0.00    +0.000 C 
ATOM     10  C   UNL     1      43.579   7.082  21.165  0.00  0.00    +0.000 C 
ENDROOT
BRANCH   6  11
ATOM     11  C   UNL     1      41.310   7.754  20.108  0.00  0.00    +0.000 A 
ATOM     12  C   UNL     1      40.766   7.841  18.824  0.00  0.00    +0.000 A 
ATOM     13  C   UNL     1      40.451   7.542  21.188  0.00  0.00    +0.000 A 
ATOM     14  C   UNL     1      39.392   7.720  18.623  0.00  0.00    +0.000 A 
ATOM     15  C   UNL     1      39.076   7.421  20.993  0.00  0.00    +0.000 A 
ATOM     16  C   UNL     1      38.547   7.510  19.708  0.00  0.00    +0.000 A 
ENDBRANCH   6  11
BRANCH   8  17
ATOM     17  N   UNL     1      48.243   9.873  20.471  0.00  0.00    +0.000 NA
ATOM     18  H   UNL     1      48.325  10.403  21.332  0.00  0.00    +0.000 HD
ATOM     19  H   UNL     1      49.033   9.268  20.283  0.00  0.00    +0.000 HD
ENDBRANCH   8  17
TORSDOF 2
ENDMDL
MODEL 4
REMARK VINA RESULT:      -6.0      3.402      5.685
REMARK  Name = PhIP.pdbqt.pdb
REMARK  2 active torsions:
REMARK  status: ('A' for Active; 'I' for Inactive)
REMARK    1  A    between atoms: N_4  and  C_9
REMARK    2  A    between atoms: C_7  and  C_10
REMARK                            x       y       z     vdW  Elec       q    Type
REMARK                         _______ _______ _______ _____ _____    ______ ____
ROOT
ATOM      1  N   UNL     1      21.673  10.129  16.569  0.00  0.00    +0.000 N 
ATOM      2  N   UNL     1      20.480   9.427  18.509  0.00  0.00    +0.000 NA
ATOM      3  N   UNL     1      20.138  11.635  19.456  0.00  0.00    +0.000 NA
ATOM      4  C   UNL     1      21.330  11.258  17.249  0.00  0.00    +0.000 C 
ATOM      5  C   UNL     1      20.576  10.732  18.479  0.00  0.00    +0.000 C 
ATOM      6  C   UNL     1      21.334  13.464  18.281  0.00  0.00    +0.000 C 
ATOM      7  C   UNL     1      21.683  12.508  17.276  0.00  0.00    +0.000 C 
ATOM      8  C   UNL     1      21.178   9.089  17.361  0.00  0.00    +0.000 C 
ATOM      9  C   UNL     1      22.910  10.016  15.817  0.00  0.00    +0.000 C 
ATOM     10  C   UNL     1      20.557  12.714  19.229  0.00  0.00    +0.000 C 
ENDROOT
BRANCH   6  11
ATOM     11  C   UNL     1      21.628  14.884  18.300  0.00  0.00    +0.000 A 
ATOM     12  C   UNL     1      21.408  15.671  17.167  0.00  0.00    +0.000 A 
ATOM     13  C   UNL     1      22.135  15.490  19.451  0.00  0.00    +0.000 A 
ATOM     14  C   UNL     1      21.689  17.036  17.182  0.00  0.00    +0.000 A 
ATOM     15  C   UNL     1      22.418  16.855  19.471  0.00  0.00    +0.000 A 
ATOM     16  C   UNL     1      22.195  17.628  18.335  0.00  0.00    +0.000 A 
ENDBRANCH   6  11
BRANCH   8  17
ATOM     17  N   UNL     1      21.411   7.721  17.139  0.00  0.00    +0.000 NA
ATOM     18  H   UNL     1      22.197   7.539  16.524  0.00  0.00    +0.000 HD
ATOM     19  H   UNL     1      21.422   7.180  17.994  0.00  0.00    +0.000 HD
ENDBRANCH   8  17
TORSDOF 2
ENDMDL
MODEL 5
REMARK VINA RESULT:      -5.9      1.618      2.372
REMARK  Name = PhIP.pdbqt.pdb
REMARK  2 active torsions:
REMARK  status: ('A' for Active; 'I' for Inactive)
REMARK    1  A    between atoms: N_4  and  C_9
REMARK    2  A    between atoms: C_7  and  C_10
REMARK                            x       y       z     vdW  Elec       q    Type
REMARK                         _______ _______ _______ _____ _____    ______ ____
ROOT
ATOM      1  N   UNL     1      17.254   9.235  21.682  0.00  0.00    +0.000 N 
ATOM      2  N   UNL     1      17.301   6.866  21.436  0.00  0.00    +0.000 NA
ATOM      3  N   UNL     1      19.162   6.771  19.881  0.00  0.00    +0.000 NA
ATOM      4  C   UNL     1      18.295   8.947  20.853  0.00  0.00    +0.000 C 
ATOM      5  C   UNL     1      18.260   7.417  20.737  0.00  0.00    +0.000 C 
ATOM      6  C   UNL     1      19.932   8.978  19.050  0.00  0.00    +0.000 C 
ATOM      7  C   UNL     1      19.047   9.577  20.001  0.00  0.00    +0.000 C 
ATOM      8  C   UNL     1      16.691   7.989  21.971  0.00  0.00    +0.000 C 
ATOM      9  C   UNL     1      16.453  10.439  21.542  0.00  0.00    +0.000 C 
ATOM     10  C   UNL     1      19.759   7.565  19.245  0.00  0.00    +0.000 C 
ENDROOT
BRANCH   6  11
ATOM     11  C   UNL     1      20.853   9.643  18.149  0.00  0.00    +0.000 A 
ATOM     12  C   UNL     1      21.851   8.921  17.491  0.00  0.00    +0.000 A 
ATOM     13  C   UNL     1      20.759  11.018  17.923  0.00  0.00    +0.000 A 
ATOM     14  C   UNL     1      22.738   9.558  16.625  0.00  0.00    +0.000 A 
ATOM     15  C   UNL     1      21.644  11.660  17.058  0.00  0.00    +0.000 A 
ATOM     16  C   UNL     1      22.634  10.928  16.409  0.00  0.00    +0.000 A 
ENDBRANCH   6  11
BRANCH   8  17
ATOM     17  N   UNL     1      15.498   7.786  22.684  0.00  0.00    +0.000 NA
ATOM     18  H   UNL     1      14.822   8.532  22.564  0.00  0.00    +0.000 HD
ATOM     19  H   UNL     1      15.115   6.858  22.553  0.00  0.00    +0.000 HD
ENDBRANCH   8  17
TORSDOF 2
ENDMDL
MODEL 6
REMARK VINA RESULT:      -5.6     37.914     39.362
REMARK  Name = PhIP.pdbqt.pdb
REMARK  2 active torsions:
REMARK  status: ('A' for Active; 'I' for Inactive)
REMARK    1  A    between atoms: N_4  and  C_9
REMARK    2  A    between atoms: C_7  and  C_10
REMARK                            x       y       z     vdW  Elec       q    Type
REMARK                         _______ _______ _______ _____ _____    ______ ____
ROOT
ATOM      1  N   UNL     1      53.031 -14.027  17.558  0.00  0.00    +0.000 N 
ATOM      2  N   UNL     1      51.682 -12.104  17.156  0.00  0.00    +0.000 NA
ATOM      3  N   UNL     1      49.731 -13.285  16.325  0.00  0.00    +0.000 NA
ATOM      4  C   UNL     1      51.825 -14.479  17.113  0.00  0.00    +0.000 C 
ATOM      5  C   UNL     1      51.018 -13.195  16.871  0.00  0.00    +0.000 C 
ATOM      6  C   UNL     1      50.059 -15.719  15.985  0.00  0.00    +0.000 C 
ATOM      7  C   UNL     1      51.332 -15.575  16.621  0.00  0.00    +0.000 C 
ATOM      8  C   UNL     1      52.903 -12.636  17.538  0.00  0.00    +0.000 C 
ATOM      9  C   UNL     1      54.280 -14.701  17.250  0.00  0.00    +0.000 C 
ATOM     10  C   UNL     1      49.505 -14.394  15.996  0.00  0.00    +0.000 C 
ENDROOT
BRANCH   6  11
ATOM     11  C   UNL     1      49.435 -16.939  15.509  0.00  0.00    +0.000 A 
ATOM     12  C   UNL     1      48.658 -16.934  14.348  0.00  0.00    +0.000 A 
ATOM     13  C   UNL     1      49.602 -18.140  16.200  0.00  0.00    +0.000 A 
ATOM     14  C   UNL     1      48.057 -18.104  13.888  0.00  0.00    +0.000 A 
ATOM     15  C   UNL     1      49.003 -19.314  15.745  0.00  0.00    +0.000 A 
ATOM     16  C   UNL     1      48.230 -19.294  14.587  0.00  0.00    +0.000 A 
ENDBRANCH   6  11
BRANCH   8  17
ATOM     17  N   UNL     1      53.944 -11.724  17.783  0.00  0.00    +0.000 NA
ATOM     18  H   UNL     1      54.675 -11.745  17.080  0.00  0.00    +0.000 HD
ATOM     19  H   UNL     1      53.609 -10.794  18.002  0.00  0.00    +0.000 HD
ENDBRANCH   8  17
TORSDOF 2
ENDMDL
MODEL 7
REMARK VINA RESULT:      -5.6     20.196     21.552
REMARK  Name = PhIP.pdbqt.pdb
REMARK  2 active torsions:
REMARK  status: ('A' for Active; 'I' for Inactive)
REMARK    1  A    between atoms: N_4  and  C_9
REMARK    2  A    between atoms: C_7  and  C_10
REMARK                            x       y       z     vdW  Elec       q    Type
REMARK                         _______ _______ _______ _____ _____    ______ ____
ROOT
ATOM      1  N   UNL     1      30.008  25.228  26.417  0.00  0.00    +0.000 N 
ATOM      2  N   UNL     1      32.266  25.019  27.149  0.00  0.00    +0.000 NA
ATOM      3  N   UNL     1      31.819  23.612  29.076  0.00  0.00    +0.000 NA
ATOM      4  C   UNL     1      29.994  24.409  27.505  0.00  0.00    +0.000 C 
ATOM      5  C   UNL     1      31.469  24.325  27.922  0.00  0.00    +0.000 C 
ATOM      6  C   UNL     1      29.413  23.292  29.590  0.00  0.00    +0.000 C 
ATOM      7  C   UNL     1      29.124  23.961  28.359  0.00  0.00    +0.000 C 
ATOM      8  C   UNL     1      31.353  25.577  26.269  0.00  0.00    +0.000 C 
ATOM      9  C   UNL     1      28.925  26.149  26.119  0.00  0.00    +0.000 C 
ATOM     10  C   UNL     1      30.848  23.274  29.655  0.00  0.00    +0.000 C 
ENDROOT
BRANCH   6  11
ATOM     11  C   UNL     1      28.475  22.697  30.521  0.00  0.00    +0.000 A 
ATOM     12  C   UNL     1      27.104  22.705  30.254  0.00  0.00    +0.000 A 
ATOM     13  C   UNL     1      28.925  22.102  31.702  0.00  0.00    +0.000 A 
ATOM     14  C   UNL     1      26.200  22.133  31.148  0.00  0.00    +0.000 A 
ATOM     15  C   UNL     1      28.025  21.529  32.600  0.00  0.00    +0.000 A 
ATOM     16  C   UNL     1      26.662  21.545  32.321  0.00  0.00    +0.000 A 
ENDBRANCH   6  11
BRANCH   8  17
ATOM     17  N   UNL     1      31.848  26.526  25.359  0.00  0.00    +0.000 NA
ATOM     18  H   UNL     1      31.206  26.733  24.601  0.00  0.00    +0.000 HD
ATOM     19  H   UNL     1      32.227  27.347  25.813  0.00  0.00    +0.000 HD
ENDBRANCH   8  17
TORSDOF 2
ENDMDL
MODEL 8
REMARK VINA RESULT:      -5.5     19.100     20.752
REMARK  Name = PhIP.pdbqt.pdb
REMARK  2 active torsions:
REMARK  status: ('A' for Active; 'I' for Inactive)
REMARK    1  A    between atoms: N_4  and  C_9
REMARK    2  A    between atoms: C_7  and  C_10
REMARK                            x       y       z     vdW  Elec       q    Type
REMARK                         _______ _______ _______ _____ _____    ______ ____
ROOT
ATOM      1  N   UNL     1      30.092  24.296  27.171  0.00  0.00    +0.000 N 
ATOM      2  N   UNL     1      31.706  23.658  28.803  0.00  0.00    +0.000 NA
ATOM      3  N   UNL     1      30.160  22.601  30.346  0.00  0.00    +0.000 NA
ATOM      4  C   UNL     1      29.420  23.620  28.145  0.00  0.00    +0.000 C 
ATOM      5  C   UNL     1      30.515  23.248  29.156  0.00  0.00    +0.000 C 
ATOM      6  C   UNL     1      27.764  22.891  29.774  0.00  0.00    +0.000 C 
ATOM      7  C   UNL     1      28.192  23.474  28.540  0.00  0.00    +0.000 C 
ATOM      8  C   UNL     1      31.415  24.313  27.617  0.00  0.00    +0.000 C 
ATOM      9  C   UNL     1      29.500  25.402  26.438  0.00  0.00    +0.000 C 
ATOM     10  C   UNL     1      28.986  22.555  30.450  0.00  0.00    +0.000 C 
ENDROOT
BRANCH   6  11
ATOM     11  C   UNL     1      26.407  22.625  30.210  0.00  0.00    +0.000 A 
ATOM     12  C   UNL     1      25.353  22.621  29.294  0.00  0.00    +0.000 A 
ATOM     13  C   UNL     1      26.129  22.366  31.554  0.00  0.00    +0.000 A 
ATOM     14  C   UNL     1      24.047  22.366  29.710  0.00  0.00    +0.000 A 
ATOM     15  C   UNL     1      24.825  22.111  31.976  0.00  0.00    +0.000 A 
ATOM     16  C   UNL     1      23.784  22.111  31.052  0.00  0.00    +0.000 A 
ENDBRANCH   6  11
BRANCH   8  17
ATOM     17  N   UNL     1      32.465  25.024  27.010  0.00  0.00    +0.000 NA
ATOM     18  H   UNL     1      32.209  25.445  26.124  0.00  0.00    +0.000 HD
ATOM     19  H   UNL     1      32.932  25.656  27.648  0.00  0.00    +0.000 HD
ENDBRANCH   8  17
TORSDOF 2
ENDMDL
MODEL 9
REMARK VINA RESULT:      -5.4     39.063     40.361
REMARK  Name = PhIP.pdbqt.pdb
REMARK  2 active torsions:
REMARK  status: ('A' for Active; 'I' for Inactive)
REMARK    1  A    between atoms: N_4  and  C_9
REMARK    2  A    between atoms: C_7  and  C_10
REMARK                            x       y       z     vdW  Elec       q    Type
REMARK                         _______ _______ _______ _____ _____    ______ ____
ROOT
ATOM      1  N   UNL     1      46.079 -23.021  14.006  0.00  0.00    +0.000 N 
ATOM      2  N   UNL     1      46.720 -23.102  11.713  0.00  0.00    +0.000 NA
ATOM      3  N   UNL     1      48.143 -21.136  11.737  0.00  0.00    +0.000 NA
ATOM      4  C   UNL     1      46.949 -21.992  13.804  0.00  0.00    +0.000 C 
ATOM      5  C   UNL     1      47.312 -22.103  12.316  0.00  0.00    +0.000 C 
ATOM      6  C   UNL     1      48.075 -19.833  13.846  0.00  0.00    +0.000 C 
ATOM      7  C   UNL     1      47.292 -20.892  14.404  0.00  0.00    +0.000 C 
ATOM      8  C   UNL     1      45.959 -23.618  12.749  0.00  0.00    +0.000 C 
ATOM      9  C   UNL     1      44.969 -22.933  14.938  0.00  0.00    +0.000 C 
ATOM     10  C   UNL     1      48.344 -20.261  12.502  0.00  0.00    +0.000 C 
ENDROOT
BRANCH   6  11
ATOM     11  C   UNL     1      48.556 -18.637  14.510  0.00  0.00    +0.000 A 
ATOM     12  C   UNL     1      48.344 -17.376  13.947  0.00  0.00    +0.000 A 
ATOM     13  C   UNL     1      49.238 -18.723  15.726  0.00  0.00    +0.000 A 
ATOM     14  C   UNL     1      48.805 -16.225  14.582  0.00  0.00    +0.000 A 
ATOM     15  C   UNL     1      49.701 -17.574  16.366  0.00  0.00    +0.000 A 
ATOM     16  C   UNL     1      49.484 -16.325  15.792  0.00  0.00    +0.000 A 
ENDBRANCH   6  11
BRANCH   8  17
ATOM     17  N   UNL     1      45.055 -24.644  12.423  0.00  0.00    +0.000 NA
ATOM     18  H   UNL     1      45.507 -25.502  12.125  0.00  0.00    +0.000 HD
ATOM     19  H   UNL     1      44.341 -24.777  13.128  0.00  0.00    +0.000 HD
ENDBRANCH   8  17
TORSDOF 2
ENDMDL
