MODEL 1
REMARK VINA RESULT:      -8.0      0.000      0.000
REMARK  Name = Piroxicam.pdbqt.pdb
REMARK  3 active torsions:
REMARK  status: ('A' for Active; 'I' for Inactive)
REMARK    1  A    between atoms: C_7  and  C_14
REMARK    2  A    between atoms: C_8  and  O_24
REMARK    3  A    between atoms: N_16  and  C_18
REMARK                            x       y       z     vdW  Elec       q    Type
REMARK                         _______ _______ _______ _____ _____    ______ ____
ROOT
ATOM      1  S   UNL     1      36.247   2.206  14.897  0.00  0.00    +0.000 S 
ATOM      2  O   UNL     1      37.425   2.608  15.643  0.00  0.00    +0.000 OA
ATOM      3  O   UNL     1      35.119   3.105  14.755  0.00  0.00    +0.000 OA
ATOM      4  N   UNL     1      36.747   1.620  13.357  0.00  0.00    +0.000 N 
ATOM      5  C   UNL     1      35.671   0.730  15.643  0.00  0.00    +0.000 A 
ATOM      6  C   UNL     1      36.313  -0.458  15.297  0.00  0.00    +0.000 A 
ATOM      7  C   UNL     1      37.648   0.505  13.433  0.00  0.00    +0.000 C 
ATOM      8  C   UNL     1      37.445  -0.469  14.350  0.00  0.00    +0.000 C 
ATOM      9  C   UNL     1      34.592   0.774  16.518  0.00  0.00    +0.000 A 
ATOM     10  C   UNL     1      35.730   1.442  12.306  0.00  0.00    +0.000 C 
ATOM     11  C   UNL     1      35.861  -1.634  15.899  0.00  0.00    +0.000 A 
ATOM     12  C   UNL     1      34.152  -0.411  17.094  0.00  0.00    +0.000 A 
ATOM     13  C   UNL     1      34.788  -1.613  16.791  0.00  0.00    +0.000 A 
ENDROOT
BRANCH   7  14
ATOM     14  C   UNL     1      38.815   0.460  12.492  0.00  0.00    +0.000 C 
ATOM     15  O   UNL     1      39.459   1.486  12.281  0.00  0.00    +0.000 OA
ATOM     16  N   UNL     1      39.060  -0.767  11.930  0.00  0.00    +0.000 N 
ATOM     17  H   UNL     1      38.521  -1.578  12.210  0.00  0.00    +0.000 HD
BRANCH  16  18
ATOM     18  C   UNL     1      40.061  -1.072  11.007  0.00  0.00    +0.000 A 
ATOM     19  N   UNL     1      41.245  -1.403  11.562  0.00  0.00    +0.000 NA
ATOM     20  C   UNL     1      42.251  -1.713  10.712  0.00  0.00    +0.000 A 
ATOM     21  C   UNL     1      42.136  -1.711   9.333  0.00  0.00    +0.000 A 
ATOM     22  C   UNL     1      40.904  -1.369   8.795  0.00  0.00    +0.000 A 
ATOM     23  C   UNL     1      39.847  -1.044   9.637  0.00  0.00    +0.000 A 
ENDBRANCH  16  18
ENDBRANCH   7  14
BRANCH   8  24
ATOM     24  O   UNL     1      38.263  -1.578  14.488  0.00  0.00    +0.000 OA
ATOM     25  H   UNL     1      39.074  -1.330  14.987  0.00  0.00    +0.000 HD
ENDBRANCH   8  24
TORSDOF 3
ENDMDL
MODEL 2
REMARK VINA RESULT:      -7.4     14.325     17.110
REMARK  Name = Piroxicam.pdbqt.pdb
REMARK  3 active torsions:
REMARK  status: ('A' for Active; 'I' for Inactive)
REMARK    1  A    between atoms: C_7  and  C_14
REMARK    2  A    between atoms: C_8  and  O_24
REMARK    3  A    between atoms: N_16  and  C_18
REMARK                            x       y       z     vdW  Elec       q    Type
REMARK                         _______ _______ _______ _____ _____    ______ ____
ROOT
ATOM      1  S   UNL     1      23.737  -0.843   3.847  0.00  0.00    +0.000 S 
ATOM      2  O   UNL     1      23.767  -2.293   3.823  0.00  0.00    +0.000 OA
ATOM      3  O   UNL     1      23.275  -0.092   2.696  0.00  0.00    +0.000 OA
ATOM      4  N   UNL     1      22.904  -0.336   5.268  0.00  0.00    +0.000 N 
ATOM      5  C   UNL     1      25.367  -0.322   4.215  0.00  0.00    +0.000 A 
ATOM      6  C   UNL     1      25.767  -0.350   5.550  0.00  0.00    +0.000 A 
ATOM      7  C   UNL     1      23.506  -0.806   6.483  0.00  0.00    +0.000 C 
ATOM      8  C   UNL     1      24.854  -0.816   6.611  0.00  0.00    +0.000 C 
ATOM      9  C   UNL     1      26.195   0.127   3.192  0.00  0.00    +0.000 A 
ATOM     10  C   UNL     1      22.472   1.069   5.368  0.00  0.00    +0.000 C 
ATOM     11  C   UNL     1      27.070   0.057   5.842  0.00  0.00    +0.000 A 
ATOM     12  C   UNL     1      27.484   0.539   3.509  0.00  0.00    +0.000 A 
ATOM     13  C   UNL     1      27.924   0.498   4.830  0.00  0.00    +0.000 A 
ENDROOT
BRANCH   7  14
ATOM     14  C   UNL     1      22.614  -1.294   7.584  0.00  0.00    +0.000 C 
ATOM     15  O   UNL     1      22.011  -2.357   7.445  0.00  0.00    +0.000 OA
ATOM     16  N   UNL     1      22.547  -0.476   8.683  0.00  0.00    +0.000 N 
ATOM     17  H   UNL     1      23.129   0.351   8.745  0.00  0.00    +0.000 HD
BRANCH  16  18
ATOM     18  C   UNL     1      21.774  -0.684   9.826  0.00  0.00    +0.000 A 
ATOM     19  N   UNL     1      22.488  -0.953  10.938  0.00  0.00    +0.000 NA
ATOM     20  C   UNL     1      21.788  -1.159  12.077  0.00  0.00    +0.000 A 
ATOM     21  C   UNL     1      20.409  -1.107  12.166  0.00  0.00    +0.000 A 
ATOM     22  C   UNL     1      19.704  -0.825  11.004  0.00  0.00    +0.000 A 
ATOM     23  C   UNL     1      20.388  -0.608   9.814  0.00  0.00    +0.000 A 
ENDBRANCH  16  18
ENDBRANCH   7  14
BRANCH   8  24
ATOM     24  O   UNL     1      25.514  -1.249   7.749  0.00  0.00    +0.000 OA
ATOM     25  H   UNL     1      25.143  -2.114   8.038  0.00  0.00    +0.000 HD
ENDBRANCH   8  24
TORSDOF 3
ENDMDL
MODEL 3
REMARK VINA RESULT:      -6.9      2.194      2.934
REMARK  Name = Piroxicam.pdbqt.pdb
REMARK  3 active torsions:
REMARK  status: ('A' for Active; 'I' for Inactive)
REMARK    1  A    between atoms: C_7  and  C_14
REMARK    2  A    between atoms: C_8  and  O_24
REMARK    3  A    between atoms: N_16  and  C_18
REMARK                            x       y       z     vdW  Elec       q    Type
REMARK                         _______ _______ _______ _____ _____    ______ ____
ROOT
ATOM      1  S   UNL     1      38.893   2.790  12.503  0.00  0.00    +0.000 S 
ATOM      2  O   UNL     1      40.152   2.761  13.225  0.00  0.00    +0.000 OA
ATOM      3  O   UNL     1      38.428   4.011  11.875  0.00  0.00    +0.000 OA
ATOM      4  N   UNL     1      38.881   1.491  11.372  0.00  0.00    +0.000 N 
ATOM      5  C   UNL     1      37.665   2.259  13.632  0.00  0.00    +0.000 A 
ATOM      6  C   UNL     1      37.531   0.887  13.839  0.00  0.00    +0.000 A 
ATOM      7  C   UNL     1      39.035   0.200  11.980  0.00  0.00    +0.000 C 
ATOM      8  C   UNL     1      38.403  -0.080  13.144  0.00  0.00    +0.000 C 
ATOM      9  C   UNL     1      36.851   3.196  14.256  0.00  0.00    +0.000 A 
ATOM     10  C   UNL     1      37.857   1.488  10.313  0.00  0.00    +0.000 C 
ATOM     11  C   UNL     1      36.558   0.464  14.746  0.00  0.00    +0.000 A 
ATOM     12  C   UNL     1      35.880   2.750  15.146  0.00  0.00    +0.000 A 
ATOM     13  C   UNL     1      35.737   1.387  15.396  0.00  0.00    +0.000 A 
ENDROOT
BRANCH   7  14
ATOM     14  C   UNL     1      39.918  -0.810  11.309  0.00  0.00    +0.000 C 
ATOM     15  O   UNL     1      39.411  -1.670  10.591  0.00  0.00    +0.000 OA
ATOM     16  N   UNL     1      41.257  -0.678  11.575  0.00  0.00    +0.000 N 
ATOM     17  H   UNL     1      41.598   0.101  12.126  0.00  0.00    +0.000 HD
BRANCH  16  18
ATOM     18  C   UNL     1      42.281  -1.499  11.102  0.00  0.00    +0.000 A 
ATOM     19  N   UNL     1      43.042  -2.051  12.069  0.00  0.00    +0.000 NA
ATOM     20  C   UNL     1      44.048  -2.860  11.666  0.00  0.00    +0.000 A 
ATOM     21  C   UNL     1      44.334  -3.150  10.344  0.00  0.00    +0.000 A 
ATOM     22  C   UNL     1      43.531  -2.568   9.374  0.00  0.00    +0.000 A 
ATOM     23  C   UNL     1      42.488  -1.731   9.749  0.00  0.00    +0.000 A 
ENDBRANCH  16  18
ENDBRANCH   7  14
BRANCH   8  24
ATOM     24  O   UNL     1      38.495  -1.299  13.794  0.00  0.00    +0.000 OA
ATOM     25  H   UNL     1      38.027  -1.249  14.659  0.00  0.00    +0.000 HD
ENDBRANCH   8  24
TORSDOF 3
ENDMDL
MODEL 4
REMARK VINA RESULT:      -6.5     16.269     18.478
REMARK  Name = Piroxicam.pdbqt.pdb
REMARK  3 active torsions:
REMARK  status: ('A' for Active; 'I' for Inactive)
REMARK    1  A    between atoms: C_7  and  C_14
REMARK    2  A    between atoms: C_8  and  O_24
REMARK    3  A    between atoms: N_16  and  C_18
REMARK                            x       y       z     vdW  Elec       q    Type
REMARK                         _______ _______ _______ _____ _____    ______ ____
ROOT
ATOM      1  S   UNL     1      23.208  -2.505   5.628  0.00  0.00    +0.000 S 
ATOM      2  O   UNL     1      23.999  -3.167   6.649  0.00  0.00    +0.000 OA
ATOM      3  O   UNL     1      23.126  -3.050   4.287  0.00  0.00    +0.000 OA
ATOM      4  N   UNL     1      21.630  -2.219   6.258  0.00  0.00    +0.000 N 
ATOM      5  C   UNL     1      23.822  -0.870   5.512  0.00  0.00    +0.000 A 
ATOM      6  C   UNL     1      23.387   0.050   6.465  0.00  0.00    +0.000 A 
ATOM      7  C   UNL     1      21.625  -1.409   7.443  0.00  0.00    +0.000 C 
ATOM      8  C   UNL     1      22.456  -0.345   7.540  0.00  0.00    +0.000 C 
ATOM      9  C   UNL     1      24.684  -0.529   4.476  0.00  0.00    +0.000 A 
ATOM     10  C   UNL     1      20.556  -1.843   5.323  0.00  0.00    +0.000 C 
ATOM     11  C   UNL     1      23.883   1.352   6.378  0.00  0.00    +0.000 A 
ATOM     12  C   UNL     1      25.155   0.777   4.403  0.00  0.00    +0.000 A 
ATOM     13  C   UNL     1      24.761   1.715   5.355  0.00  0.00    +0.000 A 
ENDROOT
BRANCH   7  14
ATOM     14  C   UNL     1      20.699  -1.780   8.562  0.00  0.00    +0.000 C 
ATOM     15  O   UNL     1      20.068  -0.896   9.139  0.00  0.00    +0.000 OA
ATOM     16  N   UNL     1      20.644  -3.119   8.851  0.00  0.00    +0.000 N 
ATOM     17  H   UNL     1      21.148  -3.789   8.281  0.00  0.00    +0.000 HD
BRANCH  16  18
ATOM     18  C   UNL     1      19.888  -3.721   9.858  0.00  0.00    +0.000 A 
ATOM     19  N   UNL     1      18.647  -4.086   9.476  0.00  0.00    +0.000 NA
ATOM     20  C   UNL     1      17.871  -4.679  10.412  0.00  0.00    +0.000 A 
ATOM     21  C   UNL     1      18.271  -4.929  11.713  0.00  0.00    +0.000 A 
ATOM     22  C   UNL     1      19.554  -4.543  12.072  0.00  0.00    +0.000 A 
ATOM     23  C   UNL     1      20.381  -3.931  11.138  0.00  0.00    +0.000 A 
ENDBRANCH  16  18
ENDBRANCH   7  14
BRANCH   8  24
ATOM     24  O   UNL     1      22.512   0.488   8.644  0.00  0.00    +0.000 OA
ATOM     25  H   UNL     1      21.930   0.135   9.356  0.00  0.00    +0.000 HD
ENDBRANCH   8  24
TORSDOF 3
ENDMDL
MODEL 5
REMARK VINA RESULT:      -6.4     15.197     16.781
REMARK  Name = Piroxicam.pdbqt.pdb
REMARK  3 active torsions:
REMARK  status: ('A' for Active; 'I' for Inactive)
REMARK    1  A    between atoms: C_7  and  C_14
REMARK    2  A    between atoms: C_8  and  O_24
REMARK    3  A    between atoms: N_16  and  C_18
REMARK                            x       y       z     vdW  Elec       q    Type
REMARK                         _______ _______ _______ _____ _____    ______ ____
ROOT
ATOM      1  S   UNL     1      19.615  -1.278   6.440  0.00  0.00    +0.000 S 
ATOM      2  O   UNL     1      19.393   0.124   6.738  0.00  0.00    +0.000 OA
ATOM      3  O   UNL     1      18.646  -2.035   5.672  0.00  0.00    +0.000 OA
ATOM      4  N   UNL     1      21.188  -1.450   5.758  0.00  0.00    +0.000 N 
ATOM      5  C   UNL     1      19.831  -2.082   7.980  0.00  0.00    +0.000 A 
ATOM      6  C   UNL     1      21.086  -1.996   8.581  0.00  0.00    +0.000 A 
ATOM      7  C   UNL     1      22.239  -0.989   6.620  0.00  0.00    +0.000 C 
ATOM      8  C   UNL     1      22.186  -1.242   7.949  0.00  0.00    +0.000 C 
ATOM      9  C   UNL     1      18.778  -2.796   8.539  0.00  0.00    +0.000 A 
ATOM     10  C   UNL     1      21.532  -2.718   5.091  0.00  0.00    +0.000 C 
ATOM     11  C   UNL     1      21.256  -2.628   9.814  0.00  0.00    +0.000 A 
ATOM     12  C   UNL     1      18.975  -3.429   9.761  0.00  0.00    +0.000 A 
ATOM     13  C   UNL     1      20.209  -3.340  10.401  0.00  0.00    +0.000 A 
ENDROOT
BRANCH   7  14
ATOM     14  C   UNL     1      23.373  -0.214   6.018  0.00  0.00    +0.000 C 
ATOM     15  O   UNL     1      23.134   0.827   5.408  0.00  0.00    +0.000 OA
ATOM     16  N   UNL     1      24.616  -0.763   6.206  0.00  0.00    +0.000 N 
ATOM     17  H   UNL     1      24.731  -1.591   6.779  0.00  0.00    +0.000 HD
BRANCH  16  18
ATOM     18  C   UNL     1      25.826  -0.259   5.728  0.00  0.00    +0.000 A 
ATOM     19  N   UNL     1      26.078   1.015   6.088  0.00  0.00    +0.000 NA
ATOM     20  C   UNL     1      27.242   1.553   5.654  0.00  0.00    +0.000 A 
ATOM     21  C   UNL     1      28.170   0.881   4.879  0.00  0.00    +0.000 A 
ATOM     22  C   UNL     1      27.882  -0.430   4.528  0.00  0.00    +0.000 A 
ATOM     23  C   UNL     1      26.696  -1.016   4.955  0.00  0.00    +0.000 A 
ENDBRANCH  16  18
ENDBRANCH   7  14
BRANCH   8  24
ATOM     24  O   UNL     1      23.158  -0.837   8.847  0.00  0.00    +0.000 OA
ATOM     25  H   UNL     1      22.979   0.088   9.134  0.00  0.00    +0.000 HD
ENDBRANCH   8  24
TORSDOF 3
ENDMDL
MODEL 6
REMARK VINA RESULT:      -5.8     11.897     13.834
REMARK  Name = Piroxicam.pdbqt.pdb
REMARK  3 active torsions:
REMARK  status: ('A' for Active; 'I' for Inactive)
REMARK    1  A    between atoms: C_7  and  C_14
REMARK    2  A    between atoms: C_8  and  O_24
REMARK    3  A    between atoms: N_16  and  C_18
REMARK                            x       y       z     vdW  Elec       q    Type
REMARK                         _______ _______ _______ _____ _____    ______ ____
ROOT
ATOM      1  S   UNL     1      47.257   8.505  18.691  0.00  0.00    +0.000 S 
ATOM      2  O   UNL     1      46.868   7.887  17.436  0.00  0.00    +0.000 OA
ATOM      3  O   UNL     1      48.207   9.599  18.714  0.00  0.00    +0.000 OA
ATOM      4  N   UNL     1      45.830   8.929  19.557  0.00  0.00    +0.000 N 
ATOM      5  C   UNL     1      47.888   7.219  19.698  0.00  0.00    +0.000 A 
ATOM      6  C   UNL     1      46.967   6.412  20.364  0.00  0.00    +0.000 A 
ATOM      7  C   UNL     1      44.977   7.810  19.839  0.00  0.00    +0.000 C 
ATOM      8  C   UNL     1      45.514   6.625  20.213  0.00  0.00    +0.000 C 
ATOM      9  C   UNL     1      49.262   7.058  19.830  0.00  0.00    +0.000 A 
ATOM     10  C   UNL     1      45.950   9.840  20.709  0.00  0.00    +0.000 C 
ATOM     11  C   UNL     1      47.469   5.381  21.159  0.00  0.00    +0.000 A 
ATOM     12  C   UNL     1      49.739   6.032  20.638  0.00  0.00    +0.000 A 
ATOM     13  C   UNL     1      48.845   5.191  21.297  0.00  0.00    +0.000 A 
ENDROOT
BRANCH   7  14
ATOM     14  C   UNL     1      43.494   7.982  19.691  0.00  0.00    +0.000 C 
ATOM     15  O   UNL     1      43.053   8.593  18.720  0.00  0.00    +0.000 OA
ATOM     16  N   UNL     1      42.743   7.426  20.695  0.00  0.00    +0.000 N 
ATOM     17  H   UNL     1      43.184   6.880  21.426  0.00  0.00    +0.000 HD
BRANCH  16  18
ATOM     18  C   UNL     1      41.353   7.468  20.811  0.00  0.00    +0.000 A 
ATOM     19  N   UNL     1      40.699   7.527  19.633  0.00  0.00    +0.000 NA
ATOM     20  C   UNL     1      39.348   7.566  19.687  0.00  0.00    +0.000 A 
ATOM     21  C   UNL     1      38.613   7.546  20.859  0.00  0.00    +0.000 A 
ATOM     22  C   UNL     1      39.316   7.481  22.053  0.00  0.00    +0.000 A 
ATOM     23  C   UNL     1      40.705   7.441  22.038  0.00  0.00    +0.000 A 
ENDBRANCH  16  18
ENDBRANCH   7  14
BRANCH   8  24
ATOM     24  O   UNL     1      44.764   5.499  20.505  0.00  0.00    +0.000 OA
ATOM     25  H   UNL     1      43.921   5.766  20.939  0.00  0.00    +0.000 HD
ENDBRANCH   8  24
TORSDOF 3
ENDMDL
MODEL 7
REMARK VINA RESULT:      -5.8      4.183      5.553
REMARK  Name = Piroxicam.pdbqt.pdb
REMARK  3 active torsions:
REMARK  status: ('A' for Active; 'I' for Inactive)
REMARK    1  A    between atoms: C_7  and  C_14
REMARK    2  A    between atoms: C_8  and  O_24
REMARK    3  A    between atoms: N_16  and  C_18
REMARK                            x       y       z     vdW  Elec       q    Type
REMARK                         _______ _______ _______ _____ _____    ______ ____
ROOT
ATOM      1  S   UNL     1      40.847   2.206  11.189  0.00  0.00    +0.000 S 
ATOM      2  O   UNL     1      41.342   1.937  12.527  0.00  0.00    +0.000 OA
ATOM      3  O   UNL     1      40.794   3.562  10.679  0.00  0.00    +0.000 OA
ATOM      4  N   UNL     1      41.675   1.179  10.082  0.00  0.00    +0.000 N 
ATOM      5  C   UNL     1      39.230   1.537  11.118  0.00  0.00    +0.000 A 
ATOM      6  C   UNL     1      39.111   0.166  10.902  0.00  0.00    +0.000 A 
ATOM      7  C   UNL     1      41.509  -0.219  10.364  0.00  0.00    +0.000 C 
ATOM      8  C   UNL     1      40.302  -0.692  10.754  0.00  0.00    +0.000 C 
ATOM      9  C   UNL     1      38.130   2.377  11.245  0.00  0.00    +0.000 A 
ATOM     10  C   UNL     1      41.578   1.471   8.642  0.00  0.00    +0.000 C 
ATOM     11  C   UNL     1      37.822  -0.370  10.855  0.00  0.00    +0.000 A 
ATOM     12  C   UNL     1      36.857   1.823  11.181  0.00  0.00    +0.000 A 
ATOM     13  C   UNL     1      36.702   0.451  10.993  0.00  0.00    +0.000 A 
ENDROOT
BRANCH   7  14
ATOM     14  C   UNL     1      42.697  -1.124  10.232  0.00  0.00    +0.000 C 
ATOM     15  O   UNL     1      43.105  -1.422   9.111  0.00  0.00    +0.000 OA
ATOM     16  N   UNL     1      43.233  -1.556  11.418  0.00  0.00    +0.000 N 
ATOM     17  H   UNL     1      42.875  -1.208  12.301  0.00  0.00    +0.000 HD
BRANCH  16  18
ATOM     18  C   UNL     1      44.316  -2.421  11.573  0.00  0.00    +0.000 A 
ATOM     19  N   UNL     1      45.496  -1.802  11.778  0.00  0.00    +0.000 NA
ATOM     20  C   UNL     1      46.581  -2.594  11.939  0.00  0.00    +0.000 A 
ATOM     21  C   UNL     1      46.548  -3.977  11.909  0.00  0.00    +0.000 A 
ATOM     22  C   UNL     1      45.318  -4.583  11.699  0.00  0.00    +0.000 A 
ATOM     23  C   UNL     1      44.181  -3.801  11.529  0.00  0.00    +0.000 A 
ENDBRANCH  16  18
ENDBRANCH   7  14
BRANCH   8  24
ATOM     24  O   UNL     1      40.056  -2.024  11.041  0.00  0.00    +0.000 OA
ATOM     25  H   UNL     1      39.481  -2.090  11.838  0.00  0.00    +0.000 HD
ENDBRANCH   8  24
TORSDOF 3
ENDMDL
MODEL 8
REMARK VINA RESULT:      -5.7      4.811      7.365
REMARK  Name = Piroxicam.pdbqt.pdb
REMARK  3 active torsions:
REMARK  status: ('A' for Active; 'I' for Inactive)
REMARK    1  A    between atoms: C_7  and  C_14
REMARK    2  A    between atoms: C_8  and  O_24
REMARK    3  A    between atoms: N_16  and  C_18
REMARK                            x       y       z     vdW  Elec       q    Type
REMARK                         _______ _______ _______ _____ _____    ______ ____
ROOT
ATOM      1  S   UNL     1      40.379  -0.852  10.471  0.00  0.00    +0.000 S 
ATOM      2  O   UNL     1      40.477  -2.293  10.339  0.00  0.00    +0.000 OA
ATOM      3  O   UNL     1      40.293  -0.232  11.779  0.00  0.00    +0.000 OA
ATOM      4  N   UNL     1      41.640  -0.130   9.545  0.00  0.00    +0.000 N 
ATOM      5  C   UNL     1      38.971  -0.367   9.549  0.00  0.00    +0.000 A 
ATOM      6  C   UNL     1      39.117  -0.246   8.168  0.00  0.00    +0.000 A 
ATOM      7  C   UNL     1      41.594  -0.471   8.152  0.00  0.00    +0.000 C 
ATOM      8  C   UNL     1      40.406  -0.530   7.507  0.00  0.00    +0.000 C 
ATOM      9  C   UNL     1      37.778  -0.092  10.206  0.00  0.00    +0.000 A 
ATOM     10  C   UNL     1      41.945   1.295   9.759  0.00  0.00    +0.000 C 
ATOM     11  C   UNL     1      37.993   0.131   7.432  0.00  0.00    +0.000 A 
ATOM     12  C   UNL     1      36.676   0.294   9.453  0.00  0.00    +0.000 A 
ATOM     13  C   UNL     1      36.780   0.400   8.068  0.00  0.00    +0.000 A 
ENDROOT
BRANCH   7  14
ATOM     14  C   UNL     1      42.882  -0.773   7.444  0.00  0.00    +0.000 C 
ATOM     15  O   UNL     1      43.844  -1.180   8.092  0.00  0.00    +0.000 OA
ATOM     16  N   UNL     1      42.865  -0.552   6.091  0.00  0.00    +0.000 N 
ATOM     17  H   UNL     1      42.008  -0.279   5.624  0.00  0.00    +0.000 HD
BRANCH  16  18
ATOM     18  C   UNL     1      43.933  -0.727   5.209  0.00  0.00    +0.000 A 
ATOM     19  N   UNL     1      43.920  -1.902   4.547  0.00  0.00    +0.000 NA
ATOM     20  C   UNL     1      44.931  -2.121   3.675  0.00  0.00    +0.000 A 
ATOM     21  C   UNL     1      45.955  -1.225   3.426  0.00  0.00    +0.000 A 
ATOM     22  C   UNL     1      45.937  -0.024   4.121  0.00  0.00    +0.000 A 
ATOM     23  C   UNL     1      44.915   0.237   5.026  0.00  0.00    +0.000 A 
ENDBRANCH  16  18
ENDBRANCH   7  14
BRANCH   8  24
ATOM     24  O   UNL     1      40.274  -0.847   6.166  0.00  0.00    +0.000 OA
ATOM     25  H   UNL     1      39.409  -0.516   5.831  0.00  0.00    +0.000 HD
ENDBRANCH   8  24
TORSDOF 3
ENDMDL
MODEL 9
REMARK VINA RESULT:      -5.7     29.886     32.213
REMARK  Name = Piroxicam.pdbqt.pdb
REMARK  3 active torsions:
REMARK  status: ('A' for Active; 'I' for Inactive)
REMARK    1  A    between atoms: C_7  and  C_14
REMARK    2  A    between atoms: C_8  and  O_24
REMARK    3  A    between atoms: N_16  and  C_18
REMARK                            x       y       z     vdW  Elec       q    Type
REMARK                         _______ _______ _______ _____ _____    ______ ____
ROOT
ATOM      1  S   UNL     1      24.921  23.208  29.155  0.00  0.00    +0.000 S 
ATOM      2  O   UNL     1      24.348  21.924  28.798  0.00  0.00    +0.000 OA
ATOM      3  O   UNL     1      24.656  24.387  28.353  0.00  0.00    +0.000 OA
ATOM      4  N   UNL     1      24.574  23.520  30.813  0.00  0.00    +0.000 N 
ATOM      5  C   UNL     1      26.655  22.974  29.217  0.00  0.00    +0.000 A 
ATOM      6  C   UNL     1      27.186  22.400  30.370  0.00  0.00    +0.000 A 
ATOM      7  C   UNL     1      25.090  22.520  31.704  0.00  0.00    +0.000 C 
ATOM      8  C   UNL     1      26.318  21.990  31.490  0.00  0.00    +0.000 C 
ATOM      9  C   UNL     1      27.445  23.387  28.150  0.00  0.00    +0.000 A 
ATOM     10  C   UNL     1      24.777  24.884  31.332  0.00  0.00    +0.000 C 
ATOM     11  C   UNL     1      28.568  22.205  30.415  0.00  0.00    +0.000 A 
ATOM     12  C   UNL     1      28.819  23.194  28.224  0.00  0.00    +0.000 A 
ATOM     13  C   UNL     1      29.380  22.598  29.351  0.00  0.00    +0.000 A 
ENDROOT
BRANCH   7  14
ATOM     14  C   UNL     1      24.236  22.071  32.852  0.00  0.00    +0.000 C 
ATOM     15  O   UNL     1      24.703  22.080  33.990  0.00  0.00    +0.000 OA
ATOM     16  N   UNL     1      22.969  21.672  32.512  0.00  0.00    +0.000 N 
ATOM     17  H   UNL     1      22.641  21.759  31.557  0.00  0.00    +0.000 HD
BRANCH  16  18
ATOM     18  C   UNL     1      21.991  21.187  33.381  0.00  0.00    +0.000 A 
ATOM     19  N   UNL     1      22.289  19.999  33.945  0.00  0.00    +0.000 NA
ATOM     20  C   UNL     1      21.376  19.484  34.800  0.00  0.00    +0.000 A 
ATOM     21  C   UNL     1      20.178  20.095  35.124  0.00  0.00    +0.000 A 
ATOM     22  C   UNL     1      19.902  21.317  34.527  0.00  0.00    +0.000 A 
ATOM     23  C   UNL     1      20.816  21.878  33.643  0.00  0.00    +0.000 A 
ENDBRANCH  16  18
ENDBRANCH   7  14
BRANCH   8  24
ATOM     24  O   UNL     1      26.890  21.026  32.302  0.00  0.00    +0.000 OA
ATOM     25  H   UNL     1      27.826  20.879  32.032  0.00  0.00    +0.000 HD
ENDBRANCH   8  24
TORSDOF 3
ENDMDL
