MODEL 1
REMARK VINA RESULT:      -7.3      0.000      0.000
REMARK  Name = PKR_Inhibitor.pdbqt.pdb
REMARK  0 active torsions:
REMARK  status: ('A' for Active; 'I' for Inactive)
REMARK                            x       y       z     vdW  Elec       q    Type
REMARK                         _______ _______ _______ _____ _____    ______ ____
ROOT
ATOM      1  S   UNL     1      36.303   2.999  15.953  0.00  0.00    +0.000 S 
ATOM      2  O   UNL     1      38.988  -0.386  12.112  0.00  0.00    +0.000 OA
ATOM      3  N   UNL     1      37.616  -1.224  13.820  0.00  0.00    +0.000 N 
ATOM      4  N   UNL     1      34.897   1.618  17.652  0.00  0.00    +0.000 NA
ATOM      5  C   UNL     1      36.968   0.703  14.857  0.00  0.00    +0.000 A 
ATOM      6  C   UNL     1      36.858  -0.711  14.861  0.00  0.00    +0.000 A 
ATOM      7  C   UNL     1      37.865   1.058  13.721  0.00  0.00    +0.000 C 
ATOM      8  C   UNL     1      36.271   1.337  15.830  0.00  0.00    +0.000 A 
ATOM      9  C   UNL     1      38.262  -0.237  13.075  0.00  0.00    +0.000 C 
ATOM     10  C   UNL     1      35.493   0.718  16.785  0.00  0.00    +0.000 A 
ATOM     11  C   UNL     1      36.105  -1.448  15.771  0.00  0.00    +0.000 A 
ATOM     12  C   UNL     1      38.270   2.215  13.306  0.00  0.00    +0.000 C 
ATOM     13  C   UNL     1      35.414  -0.694  16.747  0.00  0.00    +0.000 A 
ATOM     14  C   UNL     1      35.257   2.836  17.302  0.00  0.00    +0.000 A 
ATOM     15  H   UNL     1      37.708  -2.207  13.602  0.00  0.00    +0.000 HD
ATOM     16  C   UNL     1      38.758   3.440  12.792  0.00  0.00    +0.000 C 
ATOM     17  N   UNL     1      39.590   3.563  11.715  0.00  0.00    +0.000 N 
ATOM     18  C   UNL     1      39.834   4.895  11.530  0.00  0.00    +0.000 C 
ATOM     19  H   UNL     1      39.963   2.810  11.152  0.00  0.00    +0.000 HD
ATOM     20  N   UNL     1      39.206   5.626  12.424  0.00  0.00    +0.000 NA
ATOM     21  C   UNL     1      38.532   4.729  13.217  0.00  0.00    +0.000 C 
ENDROOT
TORSDOF 0
ENDMDL
MODEL 2
REMARK VINA RESULT:      -6.9     18.357     20.030
REMARK  Name = PKR_Inhibitor.pdbqt.pdb
REMARK  0 active torsions:
REMARK  status: ('A' for Active; 'I' for Inactive)
REMARK                            x       y       z     vdW  Elec       q    Type
REMARK                         _______ _______ _______ _____ _____    ______ ____
ROOT
ATOM      1  S   UNL     1      17.989   8.895  21.168  0.00  0.00    +0.000 S 
ATOM      2  O   UNL     1      21.821   8.943  16.838  0.00  0.00    +0.000 OA
ATOM      3  N   UNL     1      20.818   6.980  17.641  0.00  0.00    +0.000 N 
ATOM      4  N   UNL     1      17.156   6.489  21.702  0.00  0.00    +0.000 NA
ATOM      5  C   UNL     1      19.480   7.806  19.294  0.00  0.00    +0.000 A 
ATOM      6  C   UNL     1      19.900   6.632  18.620  0.00  0.00    +0.000 A 
ATOM      7  C   UNL     1      20.208   8.944  18.665  0.00  0.00    +0.000 C 
ATOM      8  C   UNL     1      18.577   7.609  20.284  0.00  0.00    +0.000 A 
ATOM      9  C   UNL     1      21.069   8.351  17.589  0.00  0.00    +0.000 C 
ATOM     10  C   UNL     1      18.061   6.388  20.660  0.00  0.00    +0.000 A 
ATOM     11  C   UNL     1      19.453   5.346  18.907  0.00  0.00    +0.000 A 
ATOM     12  C   UNL     1      20.166  10.211  18.927  0.00  0.00    +0.000 C 
ATOM     13  C   UNL     1      18.511   5.245  19.957  0.00  0.00    +0.000 A 
ATOM     14  C   UNL     1      17.048   7.758  22.040  0.00  0.00    +0.000 A 
ATOM     15  H   UNL     1      21.271   6.327  17.016  0.00  0.00    +0.000 HD
ATOM     16  C   UNL     1      20.178  11.608  19.152  0.00  0.00    +0.000 C 
ATOM     17  N   UNL     1      20.930  12.509  18.451  0.00  0.00    +0.000 N 
ATOM     18  C   UNL     1      20.668  13.751  18.959  0.00  0.00    +0.000 C 
ATOM     19  H   UNL     1      21.567  12.303  17.693  0.00  0.00    +0.000 HD
ATOM     20  N   UNL     1      19.795  13.693  19.940  0.00  0.00    +0.000 NA
ATOM     21  C   UNL     1      19.482  12.361  20.069  0.00  0.00    +0.000 C 
ENDROOT
TORSDOF 0
ENDMDL
MODEL 3
REMARK VINA RESULT:      -6.3     13.107     14.249
REMARK  Name = PKR_Inhibitor.pdbqt.pdb
REMARK  0 active torsions:
REMARK  status: ('A' for Active; 'I' for Inactive)
REMARK                            x       y       z     vdW  Elec       q    Type
REMARK                         _______ _______ _______ _____ _____    ______ ____
ROOT
ATOM      1  S   UNL     1      28.845   2.869   3.974  0.00  0.00    +0.000 S 
ATOM      2  O   UNL     1      29.260  -2.853   4.692  0.00  0.00    +0.000 OA
ATOM      3  N   UNL     1      30.995  -1.543   3.811  0.00  0.00    +0.000 N 
ATOM      4  N   UNL     1      31.019   3.883   2.966  0.00  0.00    +0.000 NA
ATOM      5  C   UNL     1      30.054   0.536   3.860  0.00  0.00    +0.000 A 
ATOM      6  C   UNL     1      31.213  -0.205   3.519  0.00  0.00    +0.000 A 
ATOM      7  C   UNL     1      29.066  -0.442   4.397  0.00  0.00    +0.000 C 
ATOM      8  C   UNL     1      30.131   1.867   3.624  0.00  0.00    +0.000 A 
ATOM      9  C   UNL     1      29.729  -1.787   4.344  0.00  0.00    +0.000 C 
ATOM     10  C   UNL     1      31.224   2.520   3.096  0.00  0.00    +0.000 A 
ATOM     11  C   UNL     1      32.376   0.340   2.980  0.00  0.00    +0.000 A 
ATOM     12  C   UNL     1      27.863  -0.258   4.840  0.00  0.00    +0.000 C 
ATOM     13  C   UNL     1      32.358   1.738   2.773  0.00  0.00    +0.000 A 
ATOM     14  C   UNL     1      29.807   4.166   3.397  0.00  0.00    +0.000 A 
ATOM     15  H   UNL     1      31.667  -2.283   3.662  0.00  0.00    +0.000 HD
ATOM     16  C   UNL     1      26.544  -0.141   5.338  0.00  0.00    +0.000 C 
ATOM     17  N   UNL     1      25.783  -1.180   5.798  0.00  0.00    +0.000 N 
ATOM     18  C   UNL     1      24.578  -0.668   6.190  0.00  0.00    +0.000 C 
ATOM     19  H   UNL     1      26.056  -2.152   5.841  0.00  0.00    +0.000 HD
ATOM     20  N   UNL     1      24.527   0.633   6.008  0.00  0.00    +0.000 NA
ATOM     21  C   UNL     1      25.748   0.973   5.476  0.00  0.00    +0.000 C 
ENDROOT
TORSDOF 0
ENDMDL
MODEL 4
REMARK VINA RESULT:      -5.9      3.291      5.503
REMARK  Name = PKR_Inhibitor.pdbqt.pdb
REMARK  0 active torsions:
REMARK  status: ('A' for Active; 'I' for Inactive)
REMARK                            x       y       z     vdW  Elec       q    Type
REMARK                         _______ _______ _______ _____ _____    ______ ____
ROOT
ATOM      1  S   UNL     1      40.015   4.405  11.250  0.00  0.00    +0.000 S 
ATOM      2  O   UNL     1      35.800   0.932  13.148  0.00  0.00    +0.000 OA
ATOM      3  N   UNL     1      36.937   2.445  14.535  0.00  0.00    +0.000 N 
ATOM      4  N   UNL     1      40.972   5.901  13.151  0.00  0.00    +0.000 NA
ATOM      5  C   UNL     1      38.393   3.396  13.058  0.00  0.00    +0.000 A 
ATOM      6  C   UNL     1      37.952   3.380  14.405  0.00  0.00    +0.000 A 
ATOM      7  C   UNL     1      37.574   2.387  12.329  0.00  0.00    +0.000 C 
ATOM      8  C   UNL     1      39.390   4.272  12.790  0.00  0.00    +0.000 A 
ATOM      9  C   UNL     1      36.637   1.793  13.338  0.00  0.00    +0.000 C 
ATOM     10  C   UNL     1      39.978   5.116  13.708  0.00  0.00    +0.000 A 
ATOM     11  C   UNL     1      38.465   4.182  15.421  0.00  0.00    +0.000 A 
ATOM     12  C   UNL     1      37.598   2.033  11.083  0.00  0.00    +0.000 C 
ATOM     13  C   UNL     1      39.502   5.063  15.040  0.00  0.00    +0.000 A 
ATOM     14  C   UNL     1      41.069   5.606  11.871  0.00  0.00    +0.000 A 
ATOM     15  H   UNL     1      36.449   2.237  15.396  0.00  0.00    +0.000 HD
ATOM     16  C   UNL     1      37.562   1.591   9.740  0.00  0.00    +0.000 C 
ATOM     17  N   UNL     1      36.717   0.633   9.252  0.00  0.00    +0.000 N 
ATOM     18  C   UNL     1      36.985   0.485   7.919  0.00  0.00    +0.000 C 
ATOM     19  H   UNL     1      36.019   0.123   9.775  0.00  0.00    +0.000 HD
ATOM     20  N   UNL     1      37.949   1.292   7.532  0.00  0.00    +0.000 NA
ATOM     21  C   UNL     1      38.317   1.986   8.660  0.00  0.00    +0.000 C 
ENDROOT
TORSDOF 0
ENDMDL
MODEL 5
REMARK VINA RESULT:      -5.9     21.694     23.714
REMARK  Name = PKR_Inhibitor.pdbqt.pdb
REMARK  0 active torsions:
REMARK  status: ('A' for Active; 'I' for Inactive)
REMARK                            x       y       z     vdW  Elec       q    Type
REMARK                         _______ _______ _______ _____ _____    ______ ____
ROOT
ATOM      1  S   UNL     1      20.490 -14.524  23.608  0.00  0.00    +0.000 S 
ATOM      2  O   UNL     1      23.785  -9.998  25.051  0.00  0.00    +0.000 OA
ATOM      3  N   UNL     1      21.445  -9.984  25.216  0.00  0.00    +0.000 N 
ATOM      4  N   UNL     1      17.958 -14.036  23.961  0.00  0.00    +0.000 NA
ATOM      5  C   UNL     1      20.933 -12.082  24.478  0.00  0.00    +0.000 A 
ATOM      6  C   UNL     1      20.401 -10.861  24.964  0.00  0.00    +0.000 A 
ATOM      7  C   UNL     1      22.414 -11.916  24.438  0.00  0.00    +0.000 C 
ATOM      8  C   UNL     1      20.015 -13.035  24.189  0.00  0.00    +0.000 A 
ATOM      9  C   UNL     1      22.698 -10.528  24.930  0.00  0.00    +0.000 C 
ATOM     10  C   UNL     1      18.652 -12.897  24.334  0.00  0.00    +0.000 A 
ATOM     11  C   UNL     1      19.046 -10.602  25.152  0.00  0.00    +0.000 A 
ATOM     12  C   UNL     1      23.338 -12.745  24.070  0.00  0.00    +0.000 C 
ATOM     13  C   UNL     1      18.169 -11.660  24.823  0.00  0.00    +0.000 A 
ATOM     14  C   UNL     1      18.828 -14.944  23.568  0.00  0.00    +0.000 A 
ATOM     15  H   UNL     1      21.336  -9.043  25.570  0.00  0.00    +0.000 HD
ATOM     16  C   UNL     1      24.406 -13.590  23.685  0.00  0.00    +0.000 C 
ATOM     17  N   UNL     1      25.729 -13.249  23.722  0.00  0.00    +0.000 N 
ATOM     18  C   UNL     1      26.446 -14.324  23.276  0.00  0.00    +0.000 C 
ATOM     19  H   UNL     1      26.114 -12.364  24.022  0.00  0.00    +0.000 HD
ATOM     20  N   UNL     1      25.658 -15.327  22.959  0.00  0.00    +0.000 NA
ATOM     21  C   UNL     1      24.383 -14.881  23.209  0.00  0.00    +0.000 C 
ENDROOT
TORSDOF 0
ENDMDL
MODEL 6
REMARK VINA RESULT:      -5.9     22.526     24.040
REMARK  Name = PKR_Inhibitor.pdbqt.pdb
REMARK  0 active torsions:
REMARK  status: ('A' for Active; 'I' for Inactive)
REMARK                            x       y       z     vdW  Elec       q    Type
REMARK                         _______ _______ _______ _____ _____    ______ ____
ROOT
ATOM      1  S   UNL     1      42.142 -13.351  -2.822  0.00  0.00    +0.000 S 
ATOM      2  O   UNL     1      38.260 -17.249  -1.044  0.00  0.00    +0.000 OA
ATOM      3  N   UNL     1      40.570 -17.661  -1.070  0.00  0.00    +0.000 N 
ATOM      4  N   UNL     1      44.575 -14.262  -2.669  0.00  0.00    +0.000 NA
ATOM      5  C   UNL     1      41.366 -15.681  -1.880  0.00  0.00    +0.000 A 
ATOM      6  C   UNL     1      41.722 -16.974  -1.420  0.00  0.00    +0.000 A 
ATOM      7  C   UNL     1      39.880 -15.593  -1.797  0.00  0.00    +0.000 C 
ATOM      8  C   UNL     1      42.404 -14.898  -2.258  0.00  0.00    +0.000 A 
ATOM      9  C   UNL     1      39.408 -16.912  -1.262  0.00  0.00    +0.000 C 
ATOM     10  C   UNL     1      43.732 -15.266  -2.223  0.00  0.00    +0.000 A 
ATOM     11  C   UNL     1      43.025 -17.459  -1.339  0.00  0.00    +0.000 A 
ATOM     12  C   UNL     1      39.082 -14.620  -2.102  0.00  0.00    +0.000 C 
ATOM     13  C   UNL     1      44.038 -16.566  -1.756  0.00  0.00    +0.000 A 
ATOM     14  C   UNL     1      43.842 -13.220  -3.005  0.00  0.00    +0.000 A 
ATOM     15  H   UNL     1      40.547 -18.605  -0.711  0.00  0.00    +0.000 HD
ATOM     16  C   UNL     1      38.145 -13.607  -2.412  0.00  0.00    +0.000 C 
ATOM     17  N   UNL     1      36.791 -13.718  -2.261  0.00  0.00    +0.000 N 
ATOM     18  C   UNL     1      36.231 -12.538  -2.664  0.00  0.00    +0.000 C 
ATOM     19  H   UNL     1      36.287 -14.524  -1.916  0.00  0.00    +0.000 HD
ATOM     20  N   UNL     1      37.148 -11.683  -3.061  0.00  0.00    +0.000 NA
ATOM     21  C   UNL     1      38.346 -12.340  -2.908  0.00  0.00    +0.000 C 
ENDROOT
TORSDOF 0
ENDMDL
MODEL 7
REMARK VINA RESULT:      -5.9      4.053      5.463
REMARK  Name = PKR_Inhibitor.pdbqt.pdb
REMARK  0 active torsions:
REMARK  status: ('A' for Active; 'I' for Inactive)
REMARK                            x       y       z     vdW  Elec       q    Type
REMARK                         _______ _______ _______ _____ _____    ______ ____
ROOT
ATOM      1  S   UNL     1      40.281   2.586  12.807  0.00  0.00    +0.000 S 
ATOM      2  O   UNL     1      40.820  -2.477  10.069  0.00  0.00    +0.000 OA
ATOM      3  N   UNL     1      38.792  -1.306  10.210  0.00  0.00    +0.000 N 
ATOM      4  N   UNL     1      37.847   3.498  12.695  0.00  0.00    +0.000 NA
ATOM      5  C   UNL     1      39.420   0.528  11.414  0.00  0.00    +0.000 A 
ATOM      6  C   UNL     1      38.338  -0.120  10.767  0.00  0.00    +0.000 A 
ATOM      7  C   UNL     1      40.614  -0.344  11.228  0.00  0.00    +0.000 C 
ATOM      8  C   UNL     1      39.113   1.707  12.006  0.00  0.00    +0.000 A 
ATOM      9  C   UNL     1      40.151  -1.530  10.434  0.00  0.00    +0.000 C 
ATOM     10  C   UNL     1      37.865   2.292  12.015  0.00  0.00    +0.000 A 
ATOM     11  C   UNL     1      37.036   0.369  10.708  0.00  0.00    +0.000 A 
ATOM     12  C   UNL     1      41.834  -0.189  11.631  0.00  0.00    +0.000 C 
ATOM     13  C   UNL     1      36.818   1.607  11.355  0.00  0.00    +0.000 A 
ATOM     14  C   UNL     1      39.060   3.741  13.147  0.00  0.00    +0.000 A 
ATOM     15  H   UNL     1      38.219  -1.958   9.692  0.00  0.00    +0.000 HD
ATOM     16  C   UNL     1      43.187  -0.093  12.036  0.00  0.00    +0.000 C 
ATOM     17  N   UNL     1      44.155  -1.017  11.759  0.00  0.00    +0.000 N 
ATOM     18  C   UNL     1      45.323  -0.572  12.315  0.00  0.00    +0.000 C 
ATOM     19  H   UNL     1      44.037  -1.876  11.240  0.00  0.00    +0.000 HD
ATOM     20  N   UNL     1      45.153   0.579  12.927  0.00  0.00    +0.000 NA
ATOM     21  C   UNL     1      43.825   0.887  12.760  0.00  0.00    +0.000 C 
ENDROOT
TORSDOF 0
ENDMDL
MODEL 8
REMARK VINA RESULT:      -5.8     12.492     13.102
REMARK  Name = PKR_Inhibitor.pdbqt.pdb
REMARK  0 active torsions:
REMARK  status: ('A' for Active; 'I' for Inactive)
REMARK                            x       y       z     vdW  Elec       q    Type
REMARK                         _______ _______ _______ _____ _____    ______ ____
ROOT
ATOM      1  S   UNL     1      28.365   2.117   3.647  0.00  0.00    +0.000 S 
ATOM      2  O   UNL     1      34.106   2.416   3.034  0.00  0.00    +0.000 OA
ATOM      3  N   UNL     1      32.979   0.438   3.599  0.00  0.00    +0.000 N 
ATOM      4  N   UNL     1      27.578  -0.281   4.278  0.00  0.00    +0.000 NA
ATOM      5  C   UNL     1      30.813   1.155   3.638  0.00  0.00    +0.000 A 
ATOM      6  C   UNL     1      31.669   0.039   3.816  0.00  0.00    +0.000 A 
ATOM      7  C   UNL     1      31.686   2.311   3.288  0.00  0.00    +0.000 C 
ATOM      8  C   UNL     1      29.495   0.904   3.822  0.00  0.00    +0.000 A 
ATOM      9  C   UNL     1      33.093   1.791   3.275  0.00  0.00    +0.000 C 
ATOM     10  C   UNL     1      28.957  -0.320   4.156  0.00  0.00    +0.000 A 
ATOM     11  C   UNL     1      31.246  -1.244   4.153  0.00  0.00    +0.000 A 
ATOM     12  C   UNL     1      31.379   3.543   3.031  0.00  0.00    +0.000 C 
ATOM     13  C   UNL     1      29.852  -1.403   4.322  0.00  0.00    +0.000 A 
ATOM     14  C   UNL     1      27.172   0.948   4.031  0.00  0.00    +0.000 A 
ATOM     15  H   UNL     1      33.786  -0.168   3.663  0.00  0.00    +0.000 HD
ATOM     16  C   UNL     1      31.127   4.904   2.740  0.00  0.00    +0.000 C 
ATOM     17  N   UNL     1      32.083   5.831   2.432  0.00  0.00    +0.000 N 
ATOM     18  C   UNL     1      31.450   7.023   2.217  0.00  0.00    +0.000 C 
ATOM     19  H   UNL     1      33.080   5.671   2.374  0.00  0.00    +0.000 HD
ATOM     20  N   UNL     1      30.149   6.909   2.368  0.00  0.00    +0.000 NA
ATOM     21  C   UNL     1      29.936   5.592   2.695  0.00  0.00    +0.000 C 
ENDROOT
TORSDOF 0
ENDMDL
MODEL 9
REMARK VINA RESULT:      -5.8     27.163     29.224
REMARK  Name = PKR_Inhibitor.pdbqt.pdb
REMARK  0 active torsions:
REMARK  status: ('A' for Active; 'I' for Inactive)
REMARK                            x       y       z     vdW  Elec       q    Type
REMARK                         _______ _______ _______ _____ _____    ______ ____
ROOT
ATOM      1  S   UNL     1      26.834  22.350  32.675  0.00  0.00    +0.000 S 
ATOM      2  O   UNL     1      24.640  22.774  27.343  0.00  0.00    +0.000 OA
ATOM      3  N   UNL     1      26.942  22.643  27.775  0.00  0.00    +0.000 N 
ATOM      4  N   UNL     1      29.433  22.233  32.651  0.00  0.00    +0.000 NA
ATOM      5  C   UNL     1      26.961  22.503  30.052  0.00  0.00    +0.000 A 
ATOM      6  C   UNL     1      27.765  22.538  28.886  0.00  0.00    +0.000 A 
ATOM      7  C   UNL     1      25.545  22.596  29.598  0.00  0.00    +0.000 C 
ATOM      8  C   UNL     1      27.643  22.402  31.218  0.00  0.00    +0.000 A 
ATOM      9  C   UNL     1      25.586  22.685  28.101  0.00  0.00    +0.000 C 
ATOM     10  C   UNL     1      29.015  22.331  31.335  0.00  0.00    +0.000 A 
ATOM     11  C   UNL     1      29.156  22.474  28.874  0.00  0.00    +0.000 A 
ATOM     12  C   UNL     1      24.446  22.605  30.282  0.00  0.00    +0.000 C 
ATOM     13  C   UNL     1      29.774  22.369  30.141  0.00  0.00    +0.000 A 
ATOM     14  C   UNL     1      28.370  22.234  33.428  0.00  0.00    +0.000 A 
ATOM     15  H   UNL     1      27.266  22.686  26.818  0.00  0.00    +0.000 HD
ATOM     16  C   UNL     1      23.202  22.622  30.957  0.00  0.00    +0.000 C 
ATOM     17  N   UNL     1      21.981  22.713  30.349  0.00  0.00    +0.000 N 
ATOM     18  C   UNL     1      21.029  22.698  31.330  0.00  0.00    +0.000 C 
ATOM     19  H   UNL     1      21.807  22.780  29.356  0.00  0.00    +0.000 HD
ATOM     20  N   UNL     1      21.572  22.602  32.524  0.00  0.00    +0.000 NA
ATOM     21  C   UNL     1      22.927  22.554  32.303  0.00  0.00    +0.000 C 
ENDROOT
TORSDOF 0
ENDMDL
