MODEL 1
REMARK VINA RESULT:      -8.8      0.000      0.000
REMARK  Name = 
REMARK  14 active torsions:
REMARK  status: ('A' for Active; 'I' for Inactive)
REMARK    1  A    between atoms: O_1  and  C_14
REMARK    2  A    between atoms: O_1  and  C_15
REMARK    3  A    between atoms: O_4  and  C_16
REMARK    4  A    between atoms: O_5  and  C_18
REMARK    5  A    between atoms: O_6  and  C_26
REMARK    6  A    between atoms: O_7  and  C_29
REMARK    7  A    between atoms: O_8  and  C_35
REMARK    8  A    between atoms: O_9  and  C_36
REMARK    9  A    between atoms: O_10  and  C_39
REMARK   10  A    between atoms: O_11  and  C_40
REMARK   11  A    between atoms: O_12  and  C_41
REMARK   12  A    between atoms: O_13  and  C_43
REMARK   13  A    between atoms: C_14  and  C_20
REMARK   14  A    between atoms: C_17  and  C_24
REMARK                            x       y       z     vdW  Elec       q    Type
REMARK                         _______ _______ _______ _____ _____    ______ ____
ROOT
ATOM      1  O   UNL     1      40.666   1.168  10.421  0.00  0.00    +0.000 OA
ATOM      2  C   UNL     1      39.637   0.220  10.737  0.00  0.00    +0.000 C 
ATOM      3  C   UNL     1      40.223  -1.217  10.885  0.00  0.00    +0.000 C 
ATOM      4  C   UNL     1      40.988  -1.614   9.626  0.00  0.00    +0.000 C 
ATOM      5  C   UNL     1      41.928  -0.528   9.194  0.00  0.00    +0.000 A 
ATOM      6  C   UNL     1      41.698   0.786   9.609  0.00  0.00    +0.000 A 
ATOM      7  C   UNL     1      43.018  -0.775   8.346  0.00  0.00    +0.000 A 
ATOM      8  C   UNL     1      42.546   1.818   9.201  0.00  0.00    +0.000 A 
ATOM      9  C   UNL     1      43.856   0.250   7.917  0.00  0.00    +0.000 A 
ATOM     10  C   UNL     1      43.614   1.544   8.355  0.00  0.00    +0.000 A 
ENDROOT
BRANCH   2  11
ATOM     11  C   UNL     1      38.472   0.240   9.728  0.00  0.00    +0.000 A 
ATOM     12  C   UNL     1      37.442  -0.724   9.799  0.00  0.00    +0.000 A 
ATOM     13  C   UNL     1      38.391   1.223   8.719  0.00  0.00    +0.000 A 
ATOM     14  C   UNL     1      36.392  -0.699   8.886  0.00  0.00    +0.000 A 
ATOM     15  C   UNL     1      37.340   1.232   7.798  0.00  0.00    +0.000 A 
ATOM     16  C   UNL     1      36.354   0.266   7.887  0.00  0.00    +0.000 A 
BRANCH  14  17
ATOM     17  O   UNL     1      35.363  -1.597   8.928  0.00  0.00    +0.000 OA
ATOM     18  H   UNL     1      35.474  -2.185   9.702  0.00  0.00    +0.000 HD
ENDBRANCH  14  17
BRANCH  16  19
ATOM     19  O   UNL     1      35.324   0.276   6.990  0.00  0.00    +0.000 OA
ATOM     20  H   UNL     1      34.616   0.781   7.439  0.00  0.00    +0.000 HD
ENDBRANCH  16  19
ENDBRANCH   2  11
BRANCH   3  21
ATOM     21  O   UNL     1      41.125  -1.324  12.023  0.00  0.00    +0.000 OA
ATOM     22  H   UNL     1      42.008  -1.101  11.666  0.00  0.00    +0.000 HD
ENDBRANCH   3  21
BRANCH   4  23
ATOM     23  O   UNL     1      41.734  -2.818   9.879  0.00  0.00    +0.000 OA
ATOM     24  H   UNL     1      42.575  -2.499  10.278  0.00  0.00    +0.000 HD
ENDBRANCH   4  23
BRANCH   7  25
ATOM     25  O   UNL     1      43.320  -2.039   7.914  0.00  0.00    +0.000 OA
ATOM     26  H   UNL     1      42.599  -2.630   8.226  0.00  0.00    +0.000 HD
ENDBRANCH   7  25
BRANCH  10  27
ATOM     27  O   UNL     1      44.410   2.584   7.972  0.00  0.00    +0.000 OA
ATOM     28  H   UNL     1      44.912   2.313   7.186  0.00  0.00    +0.000 HD
ENDBRANCH  10  27
BRANCH   2  29
ATOM     29  O   UNL     1      39.144   0.514  12.074  0.00  0.00    +0.000 OA
BRANCH  29  31
ATOM     30  O   UNL     1      38.519   3.330  14.400  0.00  0.00    +0.000 OA
ATOM     31  C   UNL     1      39.164   1.893  12.492  0.00  0.00    +0.000 C 
ATOM     32  C   UNL     1      38.605   1.976  13.935  0.00  0.00    +0.000 C 
ATOM     33  C   UNL     1      40.588   2.457  12.518  0.00  0.00    +0.000 C 
ATOM     34  C   UNL     1      40.706   3.680  13.386  0.00  0.00    +0.000 A 
ATOM     35  C   UNL     1      39.679   4.043  14.262  0.00  0.00    +0.000 A 
ATOM     36  C   UNL     1      41.855   4.479  13.339  0.00  0.00    +0.000 A 
ATOM     37  C   UNL     1      39.775   5.200  15.038  0.00  0.00    +0.000 A 
ATOM     38  C   UNL     1      41.970   5.627  14.119  0.00  0.00    +0.000 A 
ATOM     39  C   UNL     1      40.923   5.980  14.960  0.00  0.00    +0.000 A 
BRANCH  32  40
ATOM     40  C   UNL     1      37.208   1.374  14.018  0.00  0.00    +0.000 A 
ATOM     41  C   UNL     1      36.987   0.150  14.668  0.00  0.00    +0.000 A 
ATOM     42  C   UNL     1      36.106   2.086  13.511  0.00  0.00    +0.000 A 
ATOM     43  C   UNL     1      35.687  -0.318  14.846  0.00  0.00    +0.000 A 
ATOM     44  C   UNL     1      34.806   1.602  13.676  0.00  0.00    +0.000 A 
ATOM     45  C   UNL     1      34.601   0.407  14.358  0.00  0.00    +0.000 A 
BRANCH  43  46
ATOM     46  O   UNL     1      35.458  -1.459  15.561  0.00  0.00    +0.000 OA
ATOM     47  H   UNL     1      34.574  -1.799  15.343  0.00  0.00    +0.000 HD
ENDBRANCH  43  46
BRANCH  45  48
ATOM     48  O   UNL     1      33.336  -0.052  14.585  0.00  0.00    +0.000 OA
ATOM     49  H   UNL     1      33.323  -1.017  14.470  0.00  0.00    +0.000 HD
ENDBRANCH  45  48
ENDBRANCH  32  40
BRANCH  36  50
ATOM     50  O   UNL     1      42.871   4.113  12.501  0.00  0.00    +0.000 OA
ATOM     51  H   UNL     1      43.361   3.376  12.904  0.00  0.00    +0.000 HD
ENDBRANCH  36  50
BRANCH  39  52
ATOM     52  O   UNL     1      41.063   7.114  15.706  0.00  0.00    +0.000 OA
ATOM     53  H   UNL     1      40.321   7.711  15.509  0.00  0.00    +0.000 HD
ENDBRANCH  39  52
ENDBRANCH  29  31
ENDBRANCH   2  29
TORSDOF 14
ENDMDL
MODEL 2
REMARK VINA RESULT:      -8.7      2.606      6.705
REMARK  Name = 
REMARK  14 active torsions:
REMARK  status: ('A' for Active; 'I' for Inactive)
REMARK    1  A    between atoms: O_1  and  C_14
REMARK    2  A    between atoms: O_1  and  C_15
REMARK    3  A    between atoms: O_4  and  C_16
REMARK    4  A    between atoms: O_5  and  C_18
REMARK    5  A    between atoms: O_6  and  C_26
REMARK    6  A    between atoms: O_7  and  C_29
REMARK    7  A    between atoms: O_8  and  C_35
REMARK    8  A    between atoms: O_9  and  C_36
REMARK    9  A    between atoms: O_10  and  C_39
REMARK   10  A    between atoms: O_11  and  C_40
REMARK   11  A    between atoms: O_12  and  C_41
REMARK   12  A    between atoms: O_13  and  C_43
REMARK   13  A    between atoms: C_14  and  C_20
REMARK   14  A    between atoms: C_17  and  C_24
REMARK                            x       y       z     vdW  Elec       q    Type
REMARK                         _______ _______ _______ _____ _____    ______ ____
ROOT
ATOM      1  O   UNL     1      38.920   1.757  11.431  0.00  0.00    +0.000 OA
ATOM      2  C   UNL     1      39.642   2.995  11.394  0.00  0.00    +0.000 C 
ATOM      3  C   UNL     1      39.420   3.734  10.039  0.00  0.00    +0.000 C 
ATOM      4  C   UNL     1      39.794   2.828   8.869  0.00  0.00    +0.000 C 
ATOM      5  C   UNL     1      39.185   1.466   9.019  0.00  0.00    +0.000 A 
ATOM      6  C   UNL     1      38.801   1.019  10.287  0.00  0.00    +0.000 A 
ATOM      7  C   UNL     1      39.021   0.595   7.932  0.00  0.00    +0.000 A 
ATOM      8  C   UNL     1      38.254  -0.255  10.454  0.00  0.00    +0.000 A 
ATOM      9  C   UNL     1      38.495  -0.683   8.092  0.00  0.00    +0.000 A 
ATOM     10  C   UNL     1      38.110  -1.097   9.358  0.00  0.00    +0.000 A 
ENDROOT
BRANCH   2  11
ATOM     11  C   UNL     1      41.145   2.824  11.689  0.00  0.00    +0.000 A 
ATOM     12  C   UNL     1      41.664   1.568  12.074  0.00  0.00    +0.000 A 
ATOM     13  C   UNL     1      42.044   3.905  11.572  0.00  0.00    +0.000 A 
ATOM     14  C   UNL     1      43.022   1.420  12.337  0.00  0.00    +0.000 A 
ATOM     15  C   UNL     1      43.405   3.750  11.852  0.00  0.00    +0.000 A 
ATOM     16  C   UNL     1      43.879   2.510  12.239  0.00  0.00    +0.000 A 
BRANCH  14  17
ATOM     17  O   UNL     1      43.574   0.221  12.691  0.00  0.00    +0.000 OA
ATOM     18  H   UNL     1      44.155  -0.097  11.971  0.00  0.00    +0.000 HD
ENDBRANCH  14  17
BRANCH  16  19
ATOM     19  O   UNL     1      45.209   2.356  12.509  0.00  0.00    +0.000 OA
ATOM     20  H   UNL     1      45.486   3.224  12.866  0.00  0.00    +0.000 HD
ENDBRANCH  16  19
ENDBRANCH   2  11
BRANCH   3  21
ATOM     21  O   UNL     1      38.038   4.158   9.867  0.00  0.00    +0.000 OA
ATOM     22  H   UNL     1      37.812   4.620  10.700  0.00  0.00    +0.000 HD
ENDBRANCH   3  21
BRANCH   4  23
ATOM     23  O   UNL     1      39.339   3.421   7.640  0.00  0.00    +0.000 OA
ATOM     24  H   UNL     1      39.783   2.891   6.941  0.00  0.00    +0.000 HD
ENDBRANCH   4  23
BRANCH   7  25
ATOM     25  O   UNL     1      39.354   0.969   6.657  0.00  0.00    +0.000 OA
ATOM     26  H   UNL     1      39.960   1.739   6.730  0.00  0.00    +0.000 HD
ENDBRANCH   7  25
BRANCH  10  27
ATOM     27  O   UNL     1      37.581  -2.337   9.571  0.00  0.00    +0.000 OA
ATOM     28  H   UNL     1      37.055  -2.310  10.388  0.00  0.00    +0.000 HD
ENDBRANCH  10  27
BRANCH   2  29
ATOM     29  O   UNL     1      39.042   3.900  12.364  0.00  0.00    +0.000 OA
BRANCH  29  31
ATOM     30  O   UNL     1      38.479   3.867  16.026  0.00  0.00    +0.000 OA
ATOM     31  C   UNL     1      38.611   3.329  13.614  0.00  0.00    +0.000 C 
ATOM     32  C   UNL     1      38.814   4.384  14.730  0.00  0.00    +0.000 C 
ATOM     33  C   UNL     1      37.123   2.965  13.589  0.00  0.00    +0.000 C 
ATOM     34  C   UNL     1      36.540   2.837  14.969  0.00  0.00    +0.000 A 
ATOM     35  C   UNL     1      37.242   3.286  16.092  0.00  0.00    +0.000 A 
ATOM     36  C   UNL     1      35.274   2.269  15.158  0.00  0.00    +0.000 A 
ATOM     37  C   UNL     1      36.714   3.130  17.376  0.00  0.00    +0.000 A 
ATOM     38  C   UNL     1      34.729   2.123  16.431  0.00  0.00    +0.000 A 
ATOM     39  C   UNL     1      35.460   2.551  17.532  0.00  0.00    +0.000 A 
BRANCH  32  40
ATOM     40  C   UNL     1      40.261   4.855  14.786  0.00  0.00    +0.000 A 
ATOM     41  C   UNL     1      40.598   6.189  14.507  0.00  0.00    +0.000 A 
ATOM     42  C   UNL     1      41.271   3.969  15.201  0.00  0.00    +0.000 A 
ATOM     43  C   UNL     1      41.907   6.628  14.690  0.00  0.00    +0.000 A 
ATOM     44  C   UNL     1      42.587   4.411  15.364  0.00  0.00    +0.000 A 
ATOM     45  C   UNL     1      42.895   5.746  15.122  0.00  0.00    +0.000 A 
BRANCH  43  46
ATOM     46  O   UNL     1      42.221   7.945  14.513  0.00  0.00    +0.000 OA
ATOM     47  H   UNL     1      41.425   8.484  14.656  0.00  0.00    +0.000 HD
ENDBRANCH  43  46
BRANCH  45  48
ATOM     48  O   UNL     1      44.161   6.214  15.335  0.00  0.00    +0.000 OA
ATOM     49  H   UNL     1      44.275   6.400  16.281  0.00  0.00    +0.000 HD
ENDBRANCH  45  48
ENDBRANCH  32  40
BRANCH  36  50
ATOM     50  O   UNL     1      34.575   1.853  14.060  0.00  0.00    +0.000 OA
ATOM     51  H   UNL     1      33.998   1.113  14.316  0.00  0.00    +0.000 HD
ENDBRANCH  36  50
BRANCH  39  52
ATOM     52  O   UNL     1      34.902   2.386  18.767  0.00  0.00    +0.000 OA
ATOM     53  H   UNL     1      35.017   3.209  19.273  0.00  0.00    +0.000 HD
ENDBRANCH  39  52
ENDBRANCH  29  31
ENDBRANCH   2  29
TORSDOF 14
ENDMDL
MODEL 3
REMARK VINA RESULT:      -8.6     11.166     14.632
REMARK  Name = 
REMARK  14 active torsions:
REMARK  status: ('A' for Active; 'I' for Inactive)
REMARK    1  A    between atoms: O_1  and  C_14
REMARK    2  A    between atoms: O_1  and  C_15
REMARK    3  A    between atoms: O_4  and  C_16
REMARK    4  A    between atoms: O_5  and  C_18
REMARK    5  A    between atoms: O_6  and  C_26
REMARK    6  A    between atoms: O_7  and  C_29
REMARK    7  A    between atoms: O_8  and  C_35
REMARK    8  A    between atoms: O_9  and  C_36
REMARK    9  A    between atoms: O_10  and  C_39
REMARK   10  A    between atoms: O_11  and  C_40
REMARK   11  A    between atoms: O_12  and  C_41
REMARK   12  A    between atoms: O_13  and  C_43
REMARK   13  A    between atoms: C_14  and  C_20
REMARK   14  A    between atoms: C_17  and  C_24
REMARK                            x       y       z     vdW  Elec       q    Type
REMARK                         _______ _______ _______ _____ _____    ______ ____
ROOT
ATOM      1  O   UNL     1      29.624   2.899   1.593  0.00  0.00    +0.000 OA
ATOM      2  C   UNL     1      30.883   2.570   2.197  0.00  0.00    +0.000 C 
ATOM      3  C   UNL     1      31.670   3.857   2.591  0.00  0.00    +0.000 C 
ATOM      4  C   UNL     1      31.847   4.766   1.379  0.00  0.00    +0.000 C 
ATOM      5  C   UNL     1      30.555   4.948   0.641  0.00  0.00    +0.000 A 
ATOM      6  C   UNL     1      29.538   4.000   0.788  0.00  0.00    +0.000 A 
ATOM      7  C   UNL     1      30.337   6.023  -0.234  0.00  0.00    +0.000 A 
ATOM      8  C   UNL     1      28.334   4.136   0.093  0.00  0.00    +0.000 A 
ATOM      9  C   UNL     1      29.149   6.156  -0.947  0.00  0.00    +0.000 A 
ATOM     10  C   UNL     1      28.151   5.209  -0.772  0.00  0.00    +0.000 A 
ENDROOT
BRANCH   2  11
ATOM     11  C   UNL     1      31.745   1.641   1.321  0.00  0.00    +0.000 A 
ATOM     12  C   UNL     1      31.146   0.803   0.354  0.00  0.00    +0.000 A 
ATOM     13  C   UNL     1      33.151   1.611   1.445  0.00  0.00    +0.000 A 
ATOM     14  C   UNL     1      31.931  -0.031  -0.435  0.00  0.00    +0.000 A 
ATOM     15  C   UNL     1      33.930   0.759   0.656  0.00  0.00    +0.000 A 
ATOM     16  C   UNL     1      33.311  -0.059  -0.271  0.00  0.00    +0.000 A 
BRANCH  14  17
ATOM     17  O   UNL     1      31.400  -0.844  -1.397  0.00  0.00    +0.000 OA
ATOM     18  H   UNL     1      31.904  -0.739  -2.229  0.00  0.00    +0.000 HD
ENDBRANCH  14  17
BRANCH  16  19
ATOM     19  O   UNL     1      34.072  -0.888  -1.045  0.00  0.00    +0.000 OA
ATOM     20  H   UNL     1      34.990  -0.721  -0.750  0.00  0.00    +0.000 HD
ENDBRANCH  16  19
ENDBRANCH   2  11
BRANCH   3  21
ATOM     21  O   UNL     1      30.995   4.612   3.637  0.00  0.00    +0.000 OA
ATOM     22  H   UNL     1      30.959   4.003   4.402  0.00  0.00    +0.000 HD
ENDBRANCH   3  21
BRANCH   4  23
ATOM     23  O   UNL     1      32.335   6.049   1.810  0.00  0.00    +0.000 OA
ATOM     24  H   UNL     1      31.556   6.470   2.236  0.00  0.00    +0.000 HD
ENDBRANCH   4  23
BRANCH   7  25
ATOM     25  O   UNL     1      31.276   7.003  -0.415  0.00  0.00    +0.000 OA
ATOM     26  H   UNL     1      32.021   6.601  -0.914  0.00  0.00    +0.000 HD
ENDBRANCH   7  25
BRANCH  10  27
ATOM     27  O   UNL     1      26.964   5.295  -1.439  0.00  0.00    +0.000 OA
ATOM     28  H   UNL     1      26.690   4.398  -1.696  0.00  0.00    +0.000 HD
ENDBRANCH  10  27
BRANCH   2  29
ATOM     29  O   UNL     1      30.619   1.940   3.483  0.00  0.00    +0.000 OA
BRANCH  29  31
ATOM     30  O   UNL     1      28.637  -0.996   4.570  0.00  0.00    +0.000 OA
ATOM     31  C   UNL     1      29.431   1.129   3.584  0.00  0.00    +0.000 C 
ATOM     32  C   UNL     1      29.749  -0.094   4.480  0.00  0.00    +0.000 C 
ATOM     33  C   UNL     1      28.277   1.893   4.241  0.00  0.00    +0.000 C 
ATOM     34  C   UNL     1      27.224   0.975   4.797  0.00  0.00    +0.000 A 
ATOM     35  C   UNL     1      27.459  -0.397   4.925  0.00  0.00    +0.000 A 
ATOM     36  C   UNL     1      25.983   1.480   5.206  0.00  0.00    +0.000 A 
ATOM     37  C   UNL     1      26.465  -1.252   5.406  0.00  0.00    +0.000 A 
ATOM     38  C   UNL     1      24.989   0.640   5.702  0.00  0.00    +0.000 A 
ATOM     39  C   UNL     1      25.238  -0.723   5.792  0.00  0.00    +0.000 A 
BRANCH  32  40
ATOM     40  C   UNL     1      30.933  -0.882   3.935  0.00  0.00    +0.000 A 
ATOM     41  C   UNL     1      30.762  -1.831   2.916  0.00  0.00    +0.000 A 
ATOM     42  C   UNL     1      32.233  -0.602   4.395  0.00  0.00    +0.000 A 
ATOM     43  C   UNL     1      31.874  -2.445   2.343  0.00  0.00    +0.000 A 
ATOM     44  C   UNL     1      33.342  -1.236   3.830  0.00  0.00    +0.000 A 
ATOM     45  C   UNL     1      33.158  -2.145   2.793  0.00  0.00    +0.000 A 
BRANCH  43  46
ATOM     46  O   UNL     1      31.720  -3.298   1.287  0.00  0.00    +0.000 OA
ATOM     47  H   UNL     1      32.402  -3.106   0.622  0.00  0.00    +0.000 HD
ENDBRANCH  43  46
BRANCH  45  48
ATOM     48  O   UNL     1      34.232  -2.728   2.184  0.00  0.00    +0.000 OA
ATOM     49  H   UNL     1      34.165  -2.591   1.225  0.00  0.00    +0.000 HD
ENDBRANCH  45  48
ENDBRANCH  32  40
BRANCH  36  50
ATOM     50  O   UNL     1      25.760   2.824   5.105  0.00  0.00    +0.000 OA
ATOM     51  H   UNL     1      26.392   3.293   5.676  0.00  0.00    +0.000 HD
ENDBRANCH  36  50
BRANCH  39  52
ATOM     52  O   UNL     1      24.242  -1.520   6.275  0.00  0.00    +0.000 OA
ATOM     53  H   UNL     1      23.509  -0.956   6.576  0.00  0.00    +0.000 HD
ENDBRANCH  39  52
ENDBRANCH  29  31
ENDBRANCH   2  29
TORSDOF 14
ENDMDL
MODEL 4
REMARK VINA RESULT:      -8.6      2.340      6.356
REMARK  Name = 
REMARK  14 active torsions:
REMARK  status: ('A' for Active; 'I' for Inactive)
REMARK    1  A    between atoms: O_1  and  C_14
REMARK    2  A    between atoms: O_1  and  C_15
REMARK    3  A    between atoms: O_4  and  C_16
REMARK    4  A    between atoms: O_5  and  C_18
REMARK    5  A    between atoms: O_6  and  C_26
REMARK    6  A    between atoms: O_7  and  C_29
REMARK    7  A    between atoms: O_8  and  C_35
REMARK    8  A    between atoms: O_9  and  C_36
REMARK    9  A    between atoms: O_10  and  C_39
REMARK   10  A    between atoms: O_11  and  C_40
REMARK   11  A    between atoms: O_12  and  C_41
REMARK   12  A    between atoms: O_13  and  C_43
REMARK   13  A    between atoms: C_14  and  C_20
REMARK   14  A    between atoms: C_17  and  C_24
REMARK                            x       y       z     vdW  Elec       q    Type
REMARK                         _______ _______ _______ _____ _____    ______ ____
ROOT
ATOM      1  O   UNL     1      40.270   3.723  11.089  0.00  0.00    +0.000 OA
ATOM      2  C   UNL     1      41.159   2.731  11.620  0.00  0.00    +0.000 C 
ATOM      3  C   UNL     1      42.186   3.366  12.605  0.00  0.00    +0.000 C 
ATOM      4  C   UNL     1      42.948   4.500  11.926  0.00  0.00    +0.000 C 
ATOM      5  C   UNL     1      42.015   5.429  11.209  0.00  0.00    +0.000 A 
ATOM      6  C   UNL     1      40.748   4.977  10.830  0.00  0.00    +0.000 A 
ATOM      7  C   UNL     1      42.382   6.738  10.862  0.00  0.00    +0.000 A 
ATOM      8  C   UNL     1      39.871   5.818  10.141  0.00  0.00    +0.000 A 
ATOM      9  C   UNL     1      41.523   7.576  10.158  0.00  0.00    +0.000 A 
ATOM     10  C   UNL     1      40.266   7.107   9.806  0.00  0.00    +0.000 A 
ENDROOT
BRANCH   2  11
ATOM     11  C   UNL     1      41.875   1.919  10.523  0.00  0.00    +0.000 A 
ATOM     12  C   UNL     1      41.692   2.235   9.158  0.00  0.00    +0.000 A 
ATOM     13  C   UNL     1      42.741   0.853  10.847  0.00  0.00    +0.000 A 
ATOM     14  C   UNL     1      42.345   1.499   8.174  0.00  0.00    +0.000 A 
ATOM     15  C   UNL     1      43.381   0.110   9.849  0.00  0.00    +0.000 A 
ATOM     16  C   UNL     1      43.171   0.437   8.522  0.00  0.00    +0.000 A 
BRANCH  14  17
ATOM     17  O   UNL     1      42.216   1.780   6.843  0.00  0.00    +0.000 OA
ATOM     18  H   UNL     1      43.035   1.522   6.374  0.00  0.00    +0.000 HD
ENDBRANCH  14  17
BRANCH  16  19
ATOM     19  O   UNL     1      43.798  -0.285   7.548  0.00  0.00    +0.000 OA
ATOM     20  H   UNL     1      43.082  -0.528   6.926  0.00  0.00    +0.000 HD
ENDBRANCH  16  19
ENDBRANCH   2  11
BRANCH   3  21
ATOM     21  O   UNL     1      41.542   3.896  13.799  0.00  0.00    +0.000 OA
ATOM     22  H   UNL     1      40.650   3.492  13.803  0.00  0.00    +0.000 HD
ENDBRANCH   3  21
BRANCH   4  23
ATOM     23  O   UNL     1      43.690   5.237  12.913  0.00  0.00    +0.000 OA
ATOM     24  H   UNL     1      43.889   6.093  12.472  0.00  0.00    +0.000 HD
ENDBRANCH   4  23
BRANCH   7  25
ATOM     25  O   UNL     1      43.598   7.260  11.217  0.00  0.00    +0.000 OA
ATOM     26  H   UNL     1      43.747   7.031  12.161  0.00  0.00    +0.000 HD
ENDBRANCH   7  25
BRANCH  10  27
ATOM     27  O   UNL     1      39.381   7.889   9.123  0.00  0.00    +0.000 OA
ATOM     28  H   UNL     1      38.521   7.845   9.574  0.00  0.00    +0.000 HD
ENDBRANCH  10  27
BRANCH   2  29
ATOM     29  O   UNL     1      40.388   1.841  12.476  0.00  0.00    +0.000 OA
BRANCH  29  31
ATOM     30  O   UNL     1      36.796   0.951  12.280  0.00  0.00    +0.000 OA
ATOM     31  C   UNL     1      38.972   2.091  12.576  0.00  0.00    +0.000 C 
ATOM     32  C   UNL     1      38.219   0.771  12.276  0.00  0.00    +0.000 C 
ATOM     33  C   UNL     1      38.573   2.539  13.985  0.00  0.00    +0.000 C 
ATOM     34  C   UNL     1      37.108   2.337  14.258  0.00  0.00    +0.000 A 
ATOM     35  C   UNL     1      36.314   1.569  13.401  0.00  0.00    +0.000 A 
ATOM     36  C   UNL     1      36.508   2.912  15.386  0.00  0.00    +0.000 A 
ATOM     37  C   UNL     1      34.946   1.416  13.637  0.00  0.00    +0.000 A 
ATOM     38  C   UNL     1      35.148   2.754  15.641  0.00  0.00    +0.000 A 
ATOM     39  C   UNL     1      34.376   2.010  14.758  0.00  0.00    +0.000 A 
BRANCH  32  40
ATOM     40  C   UNL     1      38.606   0.214  10.913  0.00  0.00    +0.000 A 
ATOM     41  C   UNL     1      38.193   0.848   9.730  0.00  0.00    +0.000 A 
ATOM     42  C   UNL     1      39.458  -0.902  10.826  0.00  0.00    +0.000 A 
ATOM     43  C   UNL     1      38.665   0.398   8.499  0.00  0.00    +0.000 A 
ATOM     44  C   UNL     1      39.912  -1.360   9.587  0.00  0.00    +0.000 A 
ATOM     45  C   UNL     1      39.525  -0.696   8.428  0.00  0.00    +0.000 A 
BRANCH  43  46
ATOM     46  O   UNL     1      38.343   1.069   7.353  0.00  0.00    +0.000 OA
ATOM     47  H   UNL     1      38.235   0.428   6.630  0.00  0.00    +0.000 HD
ENDBRANCH  43  46
BRANCH  45  48
ATOM     48  O   UNL     1      40.007  -1.087   7.211  0.00  0.00    +0.000 OA
ATOM     49  H   UNL     1      40.820  -0.592   7.018  0.00  0.00    +0.000 HD
ENDBRANCH  45  48
ENDBRANCH  32  40
BRANCH  36  50
ATOM     50  O   UNL     1      37.286   3.643  16.239  0.00  0.00    +0.000 OA
ATOM     51  H   UNL     1      37.006   3.464  17.152  0.00  0.00    +0.000 HD
ENDBRANCH  36  50
BRANCH  39  52
ATOM     52  O   UNL     1      33.046   1.880  15.032  0.00  0.00    +0.000 OA
ATOM     53  H   UNL     1      32.604   2.724  14.839  0.00  0.00    +0.000 HD
ENDBRANCH  39  52
ENDBRANCH  29  31
ENDBRANCH   2  29
TORSDOF 14
ENDMDL
MODEL 5
REMARK VINA RESULT:      -8.5      2.511      5.421
REMARK  Name = 
REMARK  14 active torsions:
REMARK  status: ('A' for Active; 'I' for Inactive)
REMARK    1  A    between atoms: O_1  and  C_14
REMARK    2  A    between atoms: O_1  and  C_15
REMARK    3  A    between atoms: O_4  and  C_16
REMARK    4  A    between atoms: O_5  and  C_18
REMARK    5  A    between atoms: O_6  and  C_26
REMARK    6  A    between atoms: O_7  and  C_29
REMARK    7  A    between atoms: O_8  and  C_35
REMARK    8  A    between atoms: O_9  and  C_36
REMARK    9  A    between atoms: O_10  and  C_39
REMARK   10  A    between atoms: O_11  and  C_40
REMARK   11  A    between atoms: O_12  and  C_41
REMARK   12  A    between atoms: O_13  and  C_43
REMARK   13  A    between atoms: C_14  and  C_20
REMARK   14  A    between atoms: C_17  and  C_24
REMARK                            x       y       z     vdW  Elec       q    Type
REMARK                         _______ _______ _______ _____ _____    ______ ____
ROOT
ATOM      1  O   UNL     1      41.241   0.559  11.220  0.00  0.00    +0.000 OA
ATOM      2  C   UNL     1      40.330   0.321  10.138  0.00  0.00    +0.000 C 
ATOM      3  C   UNL     1      40.273  -1.193   9.774  0.00  0.00    +0.000 C 
ATOM      4  C   UNL     1      41.670  -1.720   9.461  0.00  0.00    +0.000 C 
ATOM      5  C   UNL     1      42.658  -1.300  10.508  0.00  0.00    +0.000 A 
ATOM      6  C   UNL     1      42.383  -0.186  11.306  0.00  0.00    +0.000 A 
ATOM      7  C   UNL     1      43.881  -1.962  10.693  0.00  0.00    +0.000 A 
ATOM      8  C   UNL     1      43.299   0.239  12.272  0.00  0.00    +0.000 A 
ATOM      9  C   UNL     1      44.808  -1.534  11.638  0.00  0.00    +0.000 A 
ATOM     10  C   UNL     1      44.505  -0.435  12.427  0.00  0.00    +0.000 A 
ENDROOT
BRANCH   2  11
ATOM     11  C   UNL     1      40.639   1.177   8.894  0.00  0.00    +0.000 A 
ATOM     12  C   UNL     1      41.847   1.904   8.803  0.00  0.00    +0.000 A 
ATOM     13  C   UNL     1      39.738   1.249   7.810  0.00  0.00    +0.000 A 
ATOM     14  C   UNL     1      42.120   2.672   7.676  0.00  0.00    +0.000 A 
ATOM     15  C   UNL     1      40.016   2.035   6.688  0.00  0.00    +0.000 A 
ATOM     16  C   UNL     1      41.202   2.745   6.635  0.00  0.00    +0.000 A 
BRANCH  14  17
ATOM     17  O   UNL     1      43.283   3.375   7.532  0.00  0.00    +0.000 OA
ATOM     18  H   UNL     1      43.784   3.027   6.767  0.00  0.00    +0.000 HD
ENDBRANCH  14  17
BRANCH  16  19
ATOM     19  O   UNL     1      41.475   3.510   5.538  0.00  0.00    +0.000 OA
ATOM     20  H   UNL     1      41.013   3.056   4.804  0.00  0.00    +0.000 HD
ENDBRANCH  16  19
ENDBRANCH   2  11
BRANCH   3  21
ATOM     21  O   UNL     1      39.712  -1.994  10.853  0.00  0.00    +0.000 OA
ATOM     22  H   UNL     1      40.333  -1.878  11.600  0.00  0.00    +0.000 HD
ENDBRANCH   3  21
BRANCH   4  23
ATOM     23  O   UNL     1      41.636  -3.156   9.387  0.00  0.00    +0.000 OA
ATOM     24  H   UNL     1      42.406  -3.442   9.927  0.00  0.00    +0.000 HD
ENDBRANCH   4  23
BRANCH   7  25
ATOM     25  O   UNL     1      44.213  -3.073   9.964  0.00  0.00    +0.000 OA
ATOM     26  H   UNL     1      44.262  -3.827  10.592  0.00  0.00    +0.000 HD
ENDBRANCH   7  25
BRANCH  10  27
ATOM     27  O   UNL     1      45.374   0.022  13.375  0.00  0.00    +0.000 OA
ATOM     28  H   UNL     1      44.862   0.283  14.159  0.00  0.00    +0.000 HD
ENDBRANCH  10  27
BRANCH   2  29
ATOM     29  O   UNL     1      38.981   0.597  10.611  0.00  0.00    +0.000 OA
BRANCH  29  31
ATOM     30  O   UNL     1      38.196   2.995  13.324  0.00  0.00    +0.000 OA
ATOM     31  C   UNL     1      38.840   1.019  11.982  0.00  0.00    +0.000 C 
ATOM     32  C   UNL     1      38.294   2.469  11.993  0.00  0.00    +0.000 C 
ATOM     33  C   UNL     1      37.840   0.145  12.745  0.00  0.00    +0.000 C 
ATOM     34  C   UNL     1      37.309   0.823  13.978  0.00  0.00    +0.000 A 
ATOM     35  C   UNL     1      37.516   2.188  14.195  0.00  0.00    +0.000 A 
ATOM     36  C   UNL     1      36.586   0.098  14.933  0.00  0.00    +0.000 A 
ATOM     37  C   UNL     1      37.055   2.806  15.360  0.00  0.00    +0.000 A 
ATOM     38  C   UNL     1      36.106   0.706  16.091  0.00  0.00    +0.000 A 
ATOM     39  C   UNL     1      36.352   2.058  16.297  0.00  0.00    +0.000 A 
BRANCH  32  40
ATOM     40  C   UNL     1      39.197   3.403  11.198  0.00  0.00    +0.000 A 
ATOM     41  C   UNL     1      38.754   3.990  10.002  0.00  0.00    +0.000 A 
ATOM     42  C   UNL     1      40.463   3.752  11.701  0.00  0.00    +0.000 A 
ATOM     43  C   UNL     1      39.545   4.940   9.360  0.00  0.00    +0.000 A 
ATOM     44  C   UNL     1      41.260   4.691  11.042  0.00  0.00    +0.000 A 
ATOM     45  C   UNL     1      40.789   5.294   9.880  0.00  0.00    +0.000 A 
BRANCH  43  46
ATOM     46  O   UNL     1      39.079   5.585   8.249  0.00  0.00    +0.000 OA
ATOM     47  H   UNL     1      38.676   6.428   8.517  0.00  0.00    +0.000 HD
ENDBRANCH  43  46
BRANCH  45  48
ATOM     48  O   UNL     1      41.523   6.260   9.253  0.00  0.00    +0.000 OA
ATOM     49  H   UNL     1      42.459   5.999   9.257  0.00  0.00    +0.000 HD
ENDBRANCH  45  48
ENDBRANCH  32  40
BRANCH  36  50
ATOM     50  O   UNL     1      36.359  -1.231  14.711  0.00  0.00    +0.000 OA
ATOM     51  H   UNL     1      36.593  -1.729  15.513  0.00  0.00    +0.000 HD
ENDBRANCH  36  50
BRANCH  39  52
ATOM     52  O   UNL     1      35.876   2.622  17.444  0.00  0.00    +0.000 OA
ATOM     53  H   UNL     1      35.493   1.922  18.001  0.00  0.00    +0.000 HD
ENDBRANCH  39  52
ENDBRANCH  29  31
ENDBRANCH   2  29
TORSDOF 14
ENDMDL
MODEL 6
REMARK VINA RESULT:      -8.4     20.948     24.010
REMARK  Name = 
REMARK  14 active torsions:
REMARK  status: ('A' for Active; 'I' for Inactive)
REMARK    1  A    between atoms: O_1  and  C_14
REMARK    2  A    between atoms: O_1  and  C_15
REMARK    3  A    between atoms: O_4  and  C_16
REMARK    4  A    between atoms: O_5  and  C_18
REMARK    5  A    between atoms: O_6  and  C_26
REMARK    6  A    between atoms: O_7  and  C_29
REMARK    7  A    between atoms: O_8  and  C_35
REMARK    8  A    between atoms: O_9  and  C_36
REMARK    9  A    between atoms: O_10  and  C_39
REMARK   10  A    between atoms: O_11  and  C_40
REMARK   11  A    between atoms: O_12  and  C_41
REMARK   12  A    between atoms: O_13  and  C_43
REMARK   13  A    between atoms: C_14  and  C_20
REMARK   14  A    between atoms: C_17  and  C_24
REMARK                            x       y       z     vdW  Elec       q    Type
REMARK                         _______ _______ _______ _____ _____    ______ ____
ROOT
ATOM      1  O   UNL     1      19.825  12.902  16.934  0.00  0.00    +0.000 OA
ATOM      2  C   UNL     1      20.535  11.991  17.783  0.00  0.00    +0.000 C 
ATOM      3  C   UNL     1      21.740  11.346  17.032  0.00  0.00    +0.000 C 
ATOM      4  C   UNL     1      21.269  10.669  15.748  0.00  0.00    +0.000 C 
ATOM      5  C   UNL     1      20.366  11.569  14.958  0.00  0.00    +0.000 A 
ATOM      6  C   UNL     1      19.698  12.614  15.603  0.00  0.00    +0.000 A 
ATOM      7  C   UNL     1      20.129  11.377  13.589  0.00  0.00    +0.000 A 
ATOM      8  C   UNL     1      18.834  13.451  14.893  0.00  0.00    +0.000 A 
ATOM      9  C   UNL     1      19.254  12.192  12.877  0.00  0.00    +0.000 A 
ATOM     10  C   UNL     1      18.615  13.230  13.538  0.00  0.00    +0.000 A 
ENDROOT
BRANCH   2  11
ATOM     11  C   UNL     1      19.626  10.910  18.398  0.00  0.00    +0.000 A 
ATOM     12  C   UNL     1      20.181   9.801  19.075  0.00  0.00    +0.000 A 
ATOM     13  C   UNL     1      18.220  11.001  18.318  0.00  0.00    +0.000 A 
ATOM     14  C   UNL     1      19.354   8.830  19.630  0.00  0.00    +0.000 A 
ATOM     15  C   UNL     1      17.397  10.013  18.867  0.00  0.00    +0.000 A 
ATOM     16  C   UNL     1      17.973   8.934  19.512  0.00  0.00    +0.000 A 
BRANCH  14  17
ATOM     17  O   UNL     1      19.844   7.752  20.312  0.00  0.00    +0.000 OA
ATOM     18  H   UNL     1      20.795   7.644  20.111  0.00  0.00    +0.000 HD
ENDBRANCH  14  17
BRANCH  16  19
ATOM     19  O   UNL     1      17.170   7.970  20.052  0.00  0.00    +0.000 OA
ATOM     20  H   UNL     1      17.085   8.224  20.993  0.00  0.00    +0.000 HD
ENDBRANCH  16  19
ENDBRANCH   2  11
BRANCH   3  21
ATOM     21  O   UNL     1      22.757  12.328  16.686  0.00  0.00    +0.000 OA
ATOM     22  H   UNL     1      23.575  11.806  16.554  0.00  0.00    +0.000 HD
ENDBRANCH   3  21
BRANCH   4  23
ATOM     23  O   UNL     1      22.409  10.315  14.947  0.00  0.00    +0.000 OA
ATOM     24  H   UNL     1      22.507   9.346  15.085  0.00  0.00    +0.000 HD
ENDBRANCH   4  23
BRANCH   7  25
ATOM     25  O   UNL     1      20.761  10.388  12.883  0.00  0.00    +0.000 OA
ATOM     26  H   UNL     1      20.845   9.614  13.482  0.00  0.00    +0.000 HD
ENDBRANCH   7  25
BRANCH  10  27
ATOM     27  O   UNL     1      17.754  14.066  12.888  0.00  0.00    +0.000 OA
ATOM     28  H   UNL     1      17.863  14.961  13.249  0.00  0.00    +0.000 HD
ENDBRANCH  10  27
BRANCH   2  29
ATOM     29  O   UNL     1      21.180  12.761  18.837  0.00  0.00    +0.000 OA
BRANCH  29  31
ATOM     30  O   UNL     1      20.093  15.686  20.836  0.00  0.00    +0.000 OA
ATOM     31  C   UNL     1      20.725  14.114  19.032  0.00  0.00    +0.000 C 
ATOM     32  C   UNL     1      20.615  14.379  20.555  0.00  0.00    +0.000 C 
ATOM     33  C   UNL     1      21.715  15.133  18.458  0.00  0.00    +0.000 C 
ATOM     34  C   UNL     1      21.537  16.503  19.052  0.00  0.00    +0.000 A 
ATOM     35  C   UNL     1      20.746  16.699  20.188  0.00  0.00    +0.000 A 
ATOM     36  C   UNL     1      22.169  17.614  18.481  0.00  0.00    +0.000 A 
ATOM     37  C   UNL     1      20.552  17.979  20.714  0.00  0.00    +0.000 A 
ATOM     38  C   UNL     1      21.997  18.893  19.005  0.00  0.00    +0.000 A 
ATOM     39  C   UNL     1      21.183  19.064  20.117  0.00  0.00    +0.000 A 
BRANCH  32  40
ATOM     40  C   UNL     1      19.695  13.366  21.224  0.00  0.00    +0.000 A 
ATOM     41  C   UNL     1      18.300  13.468  21.105  0.00  0.00    +0.000 A 
ATOM     42  C   UNL     1      20.243  12.263  21.903  0.00  0.00    +0.000 A 
ATOM     43  C   UNL     1      17.484  12.460  21.615  0.00  0.00    +0.000 A 
ATOM     44  C   UNL     1      19.418  11.266  22.429  0.00  0.00    +0.000 A 
ATOM     45  C   UNL     1      18.040  11.362  22.267  0.00  0.00    +0.000 A 
BRANCH  43  46
ATOM     46  O   UNL     1      16.133  12.506  21.419  0.00  0.00    +0.000 OA
ATOM     47  H   UNL     1      15.900  11.925  20.675  0.00  0.00    +0.000 HD
ENDBRANCH  43  46
BRANCH  45  48
ATOM     48  O   UNL     1      17.219  10.368  22.718  0.00  0.00    +0.000 OA
ATOM     49  H   UNL     1      17.065  10.489  23.669  0.00  0.00    +0.000 HD
ENDBRANCH  45  48
ENDBRANCH  32  40
BRANCH  36  50
ATOM     50  O   UNL     1      22.964  17.423  17.385  0.00  0.00    +0.000 OA
ATOM     51  H   UNL     1      22.972  16.476  17.164  0.00  0.00    +0.000 HD
ENDBRANCH  36  50
BRANCH  39  52
ATOM     52  O   UNL     1      21.028  20.330  20.602  0.00  0.00    +0.000 OA
ATOM     53  H   UNL     1      20.929  20.942  19.852  0.00  0.00    +0.000 HD
ENDBRANCH  39  52
ENDBRANCH  29  31
ENDBRANCH   2  29
TORSDOF 14
ENDMDL
MODEL 7
REMARK VINA RESULT:      -8.3      3.800      7.188
REMARK  Name = 
REMARK  14 active torsions:
REMARK  status: ('A' for Active; 'I' for Inactive)
REMARK    1  A    between atoms: O_1  and  C_14
REMARK    2  A    between atoms: O_1  and  C_15
REMARK    3  A    between atoms: O_4  and  C_16
REMARK    4  A    between atoms: O_5  and  C_18
REMARK    5  A    between atoms: O_6  and  C_26
REMARK    6  A    between atoms: O_7  and  C_29
REMARK    7  A    between atoms: O_8  and  C_35
REMARK    8  A    between atoms: O_9  and  C_36
REMARK    9  A    between atoms: O_10  and  C_39
REMARK   10  A    between atoms: O_11  and  C_40
REMARK   11  A    between atoms: O_12  and  C_41
REMARK   12  A    between atoms: O_13  and  C_43
REMARK   13  A    between atoms: C_14  and  C_20
REMARK   14  A    between atoms: C_17  and  C_24
REMARK                            x       y       z     vdW  Elec       q    Type
REMARK                         _______ _______ _______ _____ _____    ______ ____
ROOT
ATOM      1  O   UNL     1      39.296   2.627   9.338  0.00  0.00    +0.000 OA
ATOM      2  C   UNL     1      40.454   2.849  10.155  0.00  0.00    +0.000 C 
ATOM      3  C   UNL     1      41.399   1.609  10.138  0.00  0.00    +0.000 C 
ATOM      4  C   UNL     1      40.642   0.354  10.562  0.00  0.00    +0.000 C 
ATOM      5  C   UNL     1      39.336   0.235   9.836  0.00  0.00    +0.000 A 
ATOM      6  C   UNL     1      38.747   1.376   9.285  0.00  0.00    +0.000 A 
ATOM      7  C   UNL     1      38.651  -0.985   9.722  0.00  0.00    +0.000 A 
ATOM      8  C   UNL     1      37.519   1.293   8.625  0.00  0.00    +0.000 A 
ATOM      9  C   UNL     1      37.418  -1.074   9.084  0.00  0.00    +0.000 A 
ATOM     10  C   UNL     1      36.862   0.072   8.534  0.00  0.00    +0.000 A 
ENDROOT
BRANCH   2  11
ATOM     11  C   UNL     1      40.102   3.255  11.599  0.00  0.00    +0.000 A 
ATOM     12  C   UNL     1      40.942   2.889  12.675  0.00  0.00    +0.000 A 
ATOM     13  C   UNL     1      38.946   4.012  11.888  0.00  0.00    +0.000 A 
ATOM     14  C   UNL     1      40.619   3.261  13.976  0.00  0.00    +0.000 A 
ATOM     15  C   UNL     1      38.623   4.368  13.201  0.00  0.00    +0.000 A 
ATOM     16  C   UNL     1      39.459   3.983  14.232  0.00  0.00    +0.000 A 
BRANCH  14  17
ATOM     17  O   UNL     1      41.410   2.949  15.045  0.00  0.00    +0.000 OA
ATOM     18  H   UNL     1      42.279   3.387  14.948  0.00  0.00    +0.000 HD
ENDBRANCH  14  17
BRANCH  16  19
ATOM     19  O   UNL     1      39.146   4.335  15.514  0.00  0.00    +0.000 OA
ATOM     20  H   UNL     1      39.902   4.012  16.046  0.00  0.00    +0.000 HD
ENDBRANCH  16  19
ENDBRANCH   2  11
BRANCH   3  21
ATOM     21  O   UNL     1      41.971   1.376   8.819  0.00  0.00    +0.000 OA
ATOM     22  H   UNL     1      41.427   0.659   8.434  0.00  0.00    +0.000 HD
ENDBRANCH   3  21
BRANCH   4  23
ATOM     23  O   UNL     1      41.447  -0.806  10.290  0.00  0.00    +0.000 OA
ATOM     24  H   UNL     1      42.338  -0.439  10.096  0.00  0.00    +0.000 HD
ENDBRANCH   4  23
BRANCH   7  25
ATOM     25  O   UNL     1      39.173  -2.150  10.218  0.00  0.00    +0.000 OA
ATOM     26  H   UNL     1      39.880  -2.436   9.598  0.00  0.00    +0.000 HD
ENDBRANCH   7  25
BRANCH  10  27
ATOM     27  O   UNL     1      35.660   0.040   7.889  0.00  0.00    +0.000 OA
ATOM     28  H   UNL     1      35.462  -0.882   7.653  0.00  0.00    +0.000 HD
ENDBRANCH  10  27
BRANCH   2  29
ATOM     29  O   UNL     1      41.260   3.886   9.527  0.00  0.00    +0.000 OA
BRANCH  29  31
ATOM     30  O   UNL     1      41.162   7.589   9.456  0.00  0.00    +0.000 OA
ATOM     31  C   UNL     1      40.641   5.173   9.338  0.00  0.00    +0.000 C 
ATOM     32  C   UNL     1      41.716   6.269   9.551  0.00  0.00    +0.000 C 
ATOM     33  C   UNL     1      40.094   5.336   7.917  0.00  0.00    +0.000 C 
ATOM     34  C   UNL     1      39.895   6.778   7.540  0.00  0.00    +0.000 A 
ATOM     35  C   UNL     1      40.431   7.807   8.321  0.00  0.00    +0.000 A 
ATOM     36  C   UNL     1      39.173   7.121   6.390  0.00  0.00    +0.000 A 
ATOM     37  C   UNL     1      40.211   9.146   7.988  0.00  0.00    +0.000 A 
ATOM     38  C   UNL     1      38.962   8.452   6.039  0.00  0.00    +0.000 A 
ATOM     39  C   UNL     1      39.480   9.455   6.847  0.00  0.00    +0.000 A 
BRANCH  32  40
ATOM     40  C   UNL     1      42.364   6.143  10.923  0.00  0.00    +0.000 A 
ATOM     41  C   UNL     1      41.720   6.624  12.074  0.00  0.00    +0.000 A 
ATOM     42  C   UNL     1      43.588   5.464  11.061  0.00  0.00    +0.000 A 
ATOM     43  C   UNL     1      42.271   6.384  13.331  0.00  0.00    +0.000 A 
ATOM     44  C   UNL     1      44.145   5.243  12.323  0.00  0.00    +0.000 A 
ATOM     45  C   UNL     1      43.473   5.691  13.456  0.00  0.00    +0.000 A 
BRANCH  43  46
ATOM     46  O   UNL     1      41.601   6.765  14.459  0.00  0.00    +0.000 OA
ATOM     47  H   UNL     1      40.926   7.423  14.221  0.00  0.00    +0.000 HD
ENDBRANCH  43  46
BRANCH  45  48
ATOM     48  O   UNL     1      43.967   5.431  14.702  0.00  0.00    +0.000 OA
ATOM     49  H   UNL     1      43.771   4.508  14.935  0.00  0.00    +0.000 HD
ENDBRANCH  45  48
ENDBRANCH  32  40
BRANCH  36  50
ATOM     50  O   UNL     1      38.670   6.117   5.611  0.00  0.00    +0.000 OA
ATOM     51  H   UNL     1      37.732   5.987   5.831  0.00  0.00    +0.000 HD
ENDBRANCH  36  50
BRANCH  39  52
ATOM     52  O   UNL     1      39.249  10.749   6.481  0.00  0.00    +0.000 OA
ATOM     53  H   UNL     1      39.698  11.337   7.112  0.00  0.00    +0.000 HD
ENDBRANCH  39  52
ENDBRANCH  29  31
ENDBRANCH   2  29
TORSDOF 14
ENDMDL
MODEL 8
REMARK VINA RESULT:      -8.2     15.932     20.791
REMARK  Name = 
REMARK  14 active torsions:
REMARK  status: ('A' for Active; 'I' for Inactive)
REMARK    1  A    between atoms: O_1  and  C_14
REMARK    2  A    between atoms: O_1  and  C_15
REMARK    3  A    between atoms: O_4  and  C_16
REMARK    4  A    between atoms: O_5  and  C_18
REMARK    5  A    between atoms: O_6  and  C_26
REMARK    6  A    between atoms: O_7  and  C_29
REMARK    7  A    between atoms: O_8  and  C_35
REMARK    8  A    between atoms: O_9  and  C_36
REMARK    9  A    between atoms: O_10  and  C_39
REMARK   10  A    between atoms: O_11  and  C_40
REMARK   11  A    between atoms: O_12  and  C_41
REMARK   12  A    between atoms: O_13  and  C_43
REMARK   13  A    between atoms: C_14  and  C_20
REMARK   14  A    between atoms: C_17  and  C_24
REMARK                            x       y       z     vdW  Elec       q    Type
REMARK                         _______ _______ _______ _____ _____    ______ ____
ROOT
ATOM      1  O   UNL     1      20.877   1.001   4.446  0.00  0.00    +0.000 OA
ATOM      2  C   UNL     1      20.235  -0.236   4.786  0.00  0.00    +0.000 C 
ATOM      3  C   UNL     1      18.685  -0.114   4.668  0.00  0.00    +0.000 C 
ATOM      4  C   UNL     1      18.172   1.041   5.522  0.00  0.00    +0.000 C 
ATOM      5  C   UNL     1      18.980   2.284   5.298  0.00  0.00    +0.000 A 
ATOM      6  C   UNL     1      20.277   2.181   4.788  0.00  0.00    +0.000 A 
ATOM      7  C   UNL     1      18.495   3.560   5.623  0.00  0.00    +0.000 A 
ATOM      8  C   UNL     1      21.057   3.323   4.593  0.00  0.00    +0.000 A 
ATOM      9  C   UNL     1      19.272   4.702   5.451  0.00  0.00    +0.000 A 
ATOM     10  C   UNL     1      20.551   4.573   4.930  0.00  0.00    +0.000 A 
ENDROOT
BRANCH   2  11
ATOM     11  C   UNL     1      20.643  -0.762   6.176  0.00  0.00    +0.000 A 
ATOM     12  C   UNL     1      21.424   0.031   7.045  0.00  0.00    +0.000 A 
ATOM     13  C   UNL     1      20.239  -2.038   6.625  0.00  0.00    +0.000 A 
ATOM     14  C   UNL     1      21.786  -0.450   8.299  0.00  0.00    +0.000 A 
ATOM     15  C   UNL     1      20.621  -2.518   7.881  0.00  0.00    +0.000 A 
ATOM     16  C   UNL     1      21.397  -1.721   8.704  0.00  0.00    +0.000 A 
BRANCH  14  17
ATOM     17  O   UNL     1      22.523   0.288   9.183  0.00  0.00    +0.000 OA
ATOM     18  H   UNL     1      22.085   0.283  10.058  0.00  0.00    +0.000 HD
ENDBRANCH  14  17
BRANCH  16  19
ATOM     19  O   UNL     1      21.766  -2.188   9.933  0.00  0.00    +0.000 OA
ATOM     20  H   UNL     1      20.919  -2.355  10.394  0.00  0.00    +0.000 HD
ENDBRANCH  16  19
ENDBRANCH   2  11
BRANCH   3  21
ATOM     21  O   UNL     1      18.258   0.107   3.293  0.00  0.00    +0.000 OA
ATOM     22  H   UNL     1      18.106   1.072   3.231  0.00  0.00    +0.000 HD
ENDBRANCH   3  21
BRANCH   4  23
ATOM     23  O   UNL     1      16.796   1.301   5.200  0.00  0.00    +0.000 OA
ATOM     24  H   UNL     1      16.584   2.122   5.699  0.00  0.00    +0.000 HD
ENDBRANCH   4  23
BRANCH   7  25
ATOM     25  O   UNL     1      17.228   3.744   6.107  0.00  0.00    +0.000 OA
ATOM     26  H   UNL     1      16.705   2.950   5.859  0.00  0.00    +0.000 HD
ENDBRANCH   7  25
BRANCH  10  27
ATOM     27  O   UNL     1      21.352   5.660   4.733  0.00  0.00    +0.000 OA
ATOM     28  H   UNL     1      21.449   6.127   5.580  0.00  0.00    +0.000 HD
ENDBRANCH  10  27
BRANCH   2  29
ATOM     29  O   UNL     1      20.567  -1.216   3.763  0.00  0.00    +0.000 OA
BRANCH  29  31
ATOM     30  O   UNL     1      23.685  -1.212   1.760  0.00  0.00    +0.000 OA
ATOM     31  C   UNL     1      21.435  -0.783   2.697  0.00  0.00    +0.000 C 
ATOM     32  C   UNL     1      22.730  -1.632   2.745  0.00  0.00    +0.000 C 
ATOM     33  C   UNL     1      20.795  -0.998   1.322  0.00  0.00    +0.000 C 
ATOM     34  C   UNL     1      21.811  -1.026   0.214  0.00  0.00    +0.000 A 
ATOM     35  C   UNL     1      23.178  -1.127   0.492  0.00  0.00    +0.000 A 
ATOM     36  C   UNL     1      21.407  -0.959  -1.125  0.00  0.00    +0.000 A 
ATOM     37  C   UNL     1      24.121  -1.114  -0.538  0.00  0.00    +0.000 A 
ATOM     38  C   UNL     1      22.337  -0.961  -2.162  0.00  0.00    +0.000 A 
ATOM     39  C   UNL     1      23.690  -1.033  -1.857  0.00  0.00    +0.000 A 
BRANCH  32  40
ATOM     40  C   UNL     1      23.404  -1.531   4.107  0.00  0.00    +0.000 A 
ATOM     41  C   UNL     1      23.402  -2.616   4.996  0.00  0.00    +0.000 A 
ATOM     42  C   UNL     1      24.111  -0.365   4.455  0.00  0.00    +0.000 A 
ATOM     43  C   UNL     1      24.134  -2.547   6.180  0.00  0.00    +0.000 A 
ATOM     44  C   UNL     1      24.827  -0.295   5.652  0.00  0.00    +0.000 A 
ATOM     45  C   UNL     1      24.848  -1.395   6.504  0.00  0.00    +0.000 A 
BRANCH  43  46
ATOM     46  O   UNL     1      24.214  -3.633   7.004  0.00  0.00    +0.000 OA
ATOM     47  H   UNL     1      23.344  -3.792   7.407  0.00  0.00    +0.000 HD
ENDBRANCH  43  46
BRANCH  45  48
ATOM     48  O   UNL     1      25.591  -1.370   7.649  0.00  0.00    +0.000 OA
ATOM     49  H   UNL     1      26.194  -2.132   7.652  0.00  0.00    +0.000 HD
ENDBRANCH  45  48
ENDBRANCH  32  40
BRANCH  36  50
ATOM     50  O   UNL     1      20.070  -0.886  -1.401  0.00  0.00    +0.000 OA
ATOM     51  H   UNL     1      19.599  -0.595  -0.602  0.00  0.00    +0.000 HD
ENDBRANCH  36  50
BRANCH  39  52
ATOM     52  O   UNL     1      24.576  -1.025  -2.895  0.00  0.00    +0.000 OA
ATOM     53  H   UNL     1      24.150  -1.428  -3.672  0.00  0.00    +0.000 HD
ENDBRANCH  39  52
ENDBRANCH  29  31
ENDBRANCH   2  29
TORSDOF 14
ENDMDL
MODEL 9
REMARK VINA RESULT:      -8.2      2.621      3.686
REMARK  Name = 
REMARK  14 active torsions:
REMARK  status: ('A' for Active; 'I' for Inactive)
REMARK    1  A    between atoms: O_1  and  C_14
REMARK    2  A    between atoms: O_1  and  C_15
REMARK    3  A    between atoms: O_4  and  C_16
REMARK    4  A    between atoms: O_5  and  C_18
REMARK    5  A    between atoms: O_6  and  C_26
REMARK    6  A    between atoms: O_7  and  C_29
REMARK    7  A    between atoms: O_8  and  C_35
REMARK    8  A    between atoms: O_9  and  C_36
REMARK    9  A    between atoms: O_10  and  C_39
REMARK   10  A    between atoms: O_11  and  C_40
REMARK   11  A    between atoms: O_12  and  C_41
REMARK   12  A    between atoms: O_13  and  C_43
REMARK   13  A    between atoms: C_14  and  C_20
REMARK   14  A    between atoms: C_17  and  C_24
REMARK                            x       y       z     vdW  Elec       q    Type
REMARK                         _______ _______ _______ _____ _____    ______ ____
ROOT
ATOM      1  O   UNL     1      39.797   4.355  10.685  0.00  0.00    +0.000 OA
ATOM      2  C   UNL     1      40.187   3.014  11.010  0.00  0.00    +0.000 C 
ATOM      3  C   UNL     1      41.550   2.649  10.347  0.00  0.00    +0.000 C 
ATOM      4  C   UNL     1      41.485   2.867   8.838  0.00  0.00    +0.000 C 
ATOM      5  C   UNL     1      40.893   4.204   8.506  0.00  0.00    +0.000 A 
ATOM      6  C   UNL     1      40.083   4.851   9.444  0.00  0.00    +0.000 A 
ATOM      7  C   UNL     1      41.089   4.821   7.262  0.00  0.00    +0.000 A 
ATOM      8  C   UNL     1      39.501   6.086   9.148  0.00  0.00    +0.000 A 
ATOM      9  C   UNL     1      40.497   6.042   6.950  0.00  0.00    +0.000 A 
ATOM     10  C   UNL     1      39.709   6.669   7.904  0.00  0.00    +0.000 A 
ENDROOT
BRANCH   2  11
ATOM     11  C   UNL     1      39.106   1.972  10.661  0.00  0.00    +0.000 A 
ATOM     12  C   UNL     1      39.428   0.598  10.587  0.00  0.00    +0.000 A 
ATOM     13  C   UNL     1      37.769   2.354  10.420  0.00  0.00    +0.000 A 
ATOM     14  C   UNL     1      38.447  -0.337  10.273  0.00  0.00    +0.000 A 
ATOM     15  C   UNL     1      36.794   1.408  10.091  0.00  0.00    +0.000 A 
ATOM     16  C   UNL     1      37.144   0.073  10.015  0.00  0.00    +0.000 A 
BRANCH  14  17
ATOM     17  O   UNL     1      38.705  -1.677  10.211  0.00  0.00    +0.000 OA
ATOM     18  H   UNL     1      38.279  -2.055   9.415  0.00  0.00    +0.000 HD
ENDBRANCH  14  17
BRANCH  16  19
ATOM     19  O   UNL     1      36.190  -0.852   9.698  0.00  0.00    +0.000 OA
ATOM     20  H   UNL     1      36.482  -1.216   8.837  0.00  0.00    +0.000 HD
ENDBRANCH  16  19
ENDBRANCH   2  11
BRANCH   3  21
ATOM     21  O   UNL     1      42.647   3.445  10.879  0.00  0.00    +0.000 OA
ATOM     22  H   UNL     1      42.302   4.360  10.908  0.00  0.00    +0.000 HD
ENDBRANCH   3  21
BRANCH   4  23
ATOM     23  O   UNL     1      42.809   2.781   8.284  0.00  0.00    +0.000 OA
ATOM     24  H   UNL     1      42.766   3.337   7.474  0.00  0.00    +0.000 HD
ENDBRANCH   4  23
BRANCH   7  25
ATOM     25  O   UNL     1      41.886   4.260   6.300  0.00  0.00    +0.000 OA
ATOM     26  H   UNL     1      41.983   4.925   5.582  0.00  0.00    +0.000 HD
ENDBRANCH   7  25
BRANCH  10  27
ATOM     27  O   UNL     1      39.112   7.871   7.655  0.00  0.00    +0.000 OA
ATOM     28  H   UNL     1      38.917   8.298   8.506  0.00  0.00    +0.000 HD
ENDBRANCH  10  27
BRANCH   2  29
ATOM     29  O   UNL     1      40.490   2.961  12.433  0.00  0.00    +0.000 OA
BRANCH  29  31
ATOM     30  O   UNL     1      38.896   4.654  15.318  0.00  0.00    +0.000 OA
ATOM     31  C   UNL     1      40.099   4.097  13.229  0.00  0.00    +0.000 C 
ATOM     32  C   UNL     1      39.387   3.579  14.504  0.00  0.00    +0.000 C 
ATOM     33  C   UNL     1      41.311   4.918  13.680  0.00  0.00    +0.000 C 
ATOM     34  C   UNL     1      41.007   5.784  14.871  0.00  0.00    +0.000 A 
ATOM     35  C   UNL     1      39.833   5.607  15.610  0.00  0.00    +0.000 A 
ATOM     36  C   UNL     1      41.901   6.785  15.271  0.00  0.00    +0.000 A 
ATOM     37  C   UNL     1      39.536   6.439  16.692  0.00  0.00    +0.000 A 
ATOM     38  C   UNL     1      41.624   7.610  16.358  0.00  0.00    +0.000 A 
ATOM     39  C   UNL     1      40.437   7.432  17.057  0.00  0.00    +0.000 A 
BRANCH  32  40
ATOM     40  C   UNL     1      38.199   2.694  14.150  0.00  0.00    +0.000 A 
ATOM     41  C   UNL     1      38.350   1.306  14.005  0.00  0.00    +0.000 A 
ATOM     42  C   UNL     1      36.913   3.255  14.045  0.00  0.00    +0.000 A 
ATOM     43  C   UNL     1      37.230   0.502  13.810  0.00  0.00    +0.000 A 
ATOM     44  C   UNL     1      35.796   2.444  13.830  0.00  0.00    +0.000 A 
ATOM     45  C   UNL     1      35.959   1.066  13.728  0.00  0.00    +0.000 A 
BRANCH  43  46
ATOM     46  O   UNL     1      37.360  -0.857  13.764  0.00  0.00    +0.000 OA
ATOM     47  H   UNL     1      37.795  -1.107  12.932  0.00  0.00    +0.000 HD
ENDBRANCH  43  46
BRANCH  45  48
ATOM     48  O   UNL     1      34.874   0.250  13.581  0.00  0.00    +0.000 OA
ATOM     49  H   UNL     1      34.097   0.680  13.973  0.00  0.00    +0.000 HD
ENDBRANCH  45  48
ENDBRANCH  32  40
BRANCH  36  50
ATOM     50  O   UNL     1      43.062   6.944  14.566  0.00  0.00    +0.000 OA
ATOM     51  H   UNL     1      43.803   6.615  15.102  0.00  0.00    +0.000 HD
ENDBRANCH  36  50
BRANCH  39  52
ATOM     52  O   UNL     1      40.191   8.262  18.112  0.00  0.00    +0.000 OA
ATOM     53  H   UNL     1      39.231   8.398  18.185  0.00  0.00    +0.000 HD
ENDBRANCH  39  52
ENDBRANCH  29  31
ENDBRANCH   2  29
TORSDOF 14
ENDMDL
