MODEL 1
REMARK VINA RESULT:      -7.8      0.000      0.000
REMARK  Name = Progesterone.pdbqt.pdb
REMARK  1 active torsions:
REMARK  status: ('A' for Active; 'I' for Inactive)
REMARK    1  A    between atoms: C_7  and  C_21
REMARK                            x       y       z     vdW  Elec       q    Type
REMARK                         _______ _______ _______ _____ _____    ______ ____
ROOT
ATOM      1  O   UNL     1      42.651   0.443  10.295  0.00  0.00    +0.000 OA
ATOM      2  C   UNL     1      36.099   0.983  14.220  0.00  0.00    +0.000 C 
ATOM      3  C   UNL     1      35.806   2.211  15.242  0.00  0.00    +0.000 C 
ATOM      4  C   UNL     1      37.012   1.112  13.067  0.00  0.00    +0.000 C 
ATOM      5  C   UNL     1      37.975   2.240  12.822  0.00  0.00    +0.000 C 
ATOM      6  C   UNL     1      38.822   2.389  11.539  0.00  0.00    +0.000 C 
ATOM      7  C   UNL     1      35.831   1.543  16.584  0.00  0.00    +0.000 C 
ATOM      8  C   UNL     1      36.902   3.149  14.992  0.00  0.00    +0.000 C 
ATOM      9  C   UNL     1      37.905   3.202  13.867  0.00  0.00    +0.000 C 
ATOM     10  C   UNL     1      36.080  -0.223  14.991  0.00  0.00    +0.000 C 
ATOM     11  C   UNL     1      37.154   0.066  12.127  0.00  0.00    +0.000 C 
ATOM     12  C   UNL     1      35.942   0.130  16.448  0.00  0.00    +0.000 C 
ATOM     13  C   UNL     1      39.043   0.991  10.678  0.00  0.00    +0.000 C 
ATOM     14  C   UNL     1      34.399   2.749  14.893  0.00  0.00    +0.000 C 
ATOM     15  C   UNL     1      38.109  -0.033  10.975  0.00  0.00    +0.000 C 
ATOM     16  C   UNL     1      40.227   2.789  11.886  0.00  0.00    +0.000 C 
ATOM     17  C   UNL     1      38.151   3.410  10.582  0.00  0.00    +0.000 C 
ATOM     18  C   UNL     1      41.607   2.215  11.496  0.00  0.00    +0.000 C 
ATOM     19  C   UNL     1      40.277   0.635  10.392  0.00  0.00    +0.000 C 
ATOM     20  C   UNL     1      41.652   1.031  10.660  0.00  0.00    +0.000 C 
ENDROOT
BRANCH   7  21
ATOM     21  C   UNL     1      35.708   2.247  17.837  0.00  0.00    +0.000 C 
ATOM     22  O   UNL     1      34.817   2.082  18.653  0.00  0.00    +0.000 OA
ATOM     23  C   UNL     1      36.721   3.217  18.351  0.00  0.00    +0.000 C 
ENDBRANCH   7  21
TORSDOF 1
ENDMDL
MODEL 2
REMARK VINA RESULT:      -6.6     21.552     23.743
REMARK  Name = Progesterone.pdbqt.pdb
REMARK  1 active torsions:
REMARK  status: ('A' for Active; 'I' for Inactive)
REMARK    1  A    between atoms: C_7  and  C_21
REMARK                            x       y       z     vdW  Elec       q    Type
REMARK                         _______ _______ _______ _____ _____    ______ ____
ROOT
ATOM      1  O   UNL     1      47.439 -21.597  20.204  0.00  0.00    +0.000 OA
ATOM      2  C   UNL     1      50.505 -16.193  15.732  0.00  0.00    +0.000 C 
ATOM      3  C   UNL     1      51.610 -15.140  16.288  0.00  0.00    +0.000 C 
ATOM      4  C   UNL     1      50.325 -17.535  16.319  0.00  0.00    +0.000 C 
ATOM      5  C   UNL     1      50.901 -18.016  17.622  0.00  0.00    +0.000 C 
ATOM      6  C   UNL     1      50.782 -19.469  18.134  0.00  0.00    +0.000 C 
ATOM      7  C   UNL     1      50.863 -13.839  16.285  0.00  0.00    +0.000 C 
ATOM      8  C   UNL     1      51.957 -15.656  17.612  0.00  0.00    +0.000 C 
ATOM      9  C   UNL     1      51.666 -16.993  18.247  0.00  0.00    +0.000 C 
ATOM     10  C   UNL     1      49.369 -15.432  15.312  0.00  0.00    +0.000 C 
ATOM     11  C   UNL     1      49.441 -18.475  15.739  0.00  0.00    +0.000 C 
ATOM     12  C   UNL     1      49.583 -13.988  15.681  0.00  0.00    +0.000 C 
ATOM     13  C   UNL     1      49.544 -20.347  17.471  0.00  0.00    +0.000 C 
ATOM     14  C   UNL     1      52.771 -15.138  15.267  0.00  0.00    +0.000 C 
ATOM     15  C   UNL     1      49.041 -19.824  16.254  0.00  0.00    +0.000 C 
ATOM     16  C   UNL     1      50.448 -19.479  19.597  0.00  0.00    +0.000 C 
ATOM     17  C   UNL     1      52.095 -20.240  17.837  0.00  0.00    +0.000 C 
ATOM     18  C   UNL     1      49.348 -20.191  20.417  0.00  0.00    +0.000 C 
ATOM     19  C   UNL     1      48.692 -20.924  18.293  0.00  0.00    +0.000 C 
ATOM     20  C   UNL     1      48.377 -21.003  19.711  0.00  0.00    +0.000 C 
ENDROOT
BRANCH   7  21
ATOM     21  C   UNL     1      51.402 -12.599  16.788  0.00  0.00    +0.000 C 
ATOM     22  O   UNL     1      51.970 -12.462  17.859  0.00  0.00    +0.000 OA
ATOM     23  C   UNL     1      51.420 -11.323  16.014  0.00  0.00    +0.000 C 
ENDBRANCH   7  21
TORSDOF 1
ENDMDL
MODEL 3
REMARK VINA RESULT:      -6.4      6.950     12.262
REMARK  Name = Progesterone.pdbqt.pdb
REMARK  1 active torsions:
REMARK  status: ('A' for Active; 'I' for Inactive)
REMARK    1  A    between atoms: C_7  and  C_21
REMARK                            x       y       z     vdW  Elec       q    Type
REMARK                         _______ _______ _______ _____ _____    ______ ____
ROOT
ATOM      1  O   UNL     1      40.135  -1.630  11.397  0.00  0.00    +0.000 OA
ATOM      2  C   UNL     1      46.876  -4.297   8.934  0.00  0.00    +0.000 C 
ATOM      3  C   UNL     1      47.244  -4.380   7.354  0.00  0.00    +0.000 C 
ATOM      4  C   UNL     1      45.913  -3.316   9.473  0.00  0.00    +0.000 C 
ATOM      5  C   UNL     1      44.964  -2.473   8.667  0.00  0.00    +0.000 C 
ATOM      6  C   UNL     1      44.060  -1.375   9.270  0.00  0.00    +0.000 C 
ATOM      7  C   UNL     1      47.269  -5.856   7.093  0.00  0.00    +0.000 C 
ATOM      8  C   UNL     1      46.158  -3.649   6.699  0.00  0.00    +0.000 C 
ATOM      9  C   UNL     1      45.104  -2.739   7.277  0.00  0.00    +0.000 C 
ATOM     10  C   UNL     1      46.906  -5.633   9.446  0.00  0.00    +0.000 C 
ATOM     11  C   UNL     1      45.703  -3.187  10.865  0.00  0.00    +0.000 C 
ATOM     12  C   UNL     1      47.120  -6.590   8.304  0.00  0.00    +0.000 C 
ATOM     13  C   UNL     1      43.768  -1.520  10.895  0.00  0.00    +0.000 C 
ATOM     14  C   UNL     1      48.644  -3.743   7.193  0.00  0.00    +0.000 C 
ATOM     15  C   UNL     1      44.693  -2.344  11.584  0.00  0.00    +0.000 C 
ATOM     16  C   UNL     1      42.683  -1.452   8.679  0.00  0.00    +0.000 C 
ATOM     17  C   UNL     1      44.706   0.018   9.048  0.00  0.00    +0.000 C 
ATOM     18  C   UNL     1      41.273  -1.514   9.309  0.00  0.00    +0.000 C 
ATOM     19  C   UNL     1      42.514  -1.533  11.294  0.00  0.00    +0.000 C 
ATOM     20  C   UNL     1      41.163  -1.548  10.754  0.00  0.00    +0.000 C 
ENDROOT
BRANCH   7  21
ATOM     21  C   UNL     1      47.466  -6.441   5.790  0.00  0.00    +0.000 C 
ATOM     22  O   UNL     1      48.347  -7.233   5.499  0.00  0.00    +0.000 OA
ATOM     23  C   UNL     1      46.548  -6.225   4.632  0.00  0.00    +0.000 C 
ENDBRANCH   7  21
TORSDOF 1
ENDMDL
MODEL 4
REMARK VINA RESULT:      -6.3     21.476     23.683
REMARK  Name = Progesterone.pdbqt.pdb
REMARK  1 active torsions:
REMARK  status: ('A' for Active; 'I' for Inactive)
REMARK    1  A    between atoms: C_7  and  C_21
REMARK                            x       y       z     vdW  Elec       q    Type
REMARK                         _______ _______ _______ _____ _____    ______ ____
ROOT
ATOM      1  O   UNL     1      45.818 -22.294  17.185  0.00  0.00    +0.000 OA
ATOM      2  C   UNL     1      49.993 -16.248  15.034  0.00  0.00    +0.000 C 
ATOM      3  C   UNL     1      51.401 -15.875  15.752  0.00  0.00    +0.000 C 
ATOM      4  C   UNL     1      49.468 -17.626  14.989  0.00  0.00    +0.000 C 
ATOM      5  C   UNL     1      49.975 -18.794  15.790  0.00  0.00    +0.000 C 
ATOM      6  C   UNL     1      49.469 -20.243  15.619  0.00  0.00    +0.000 C 
ATOM      7  C   UNL     1      51.079 -14.606  16.483  0.00  0.00    +0.000 C 
ATOM      8  C   UNL     1      51.683 -17.030  16.604  0.00  0.00    +0.000 C 
ATOM      9  C   UNL     1      51.057 -18.403  16.626  0.00  0.00    +0.000 C 
ATOM     10  C   UNL     1      49.106 -15.145  15.245  0.00  0.00    +0.000 C 
ATOM     11  C   UNL     1      48.301 -17.941  14.254  0.00  0.00    +0.000 C 
ATOM     12  C   UNL     1      49.769 -14.151  16.160  0.00  0.00    +0.000 C 
ATOM     13  C   UNL     1      47.977 -20.386  14.913  0.00  0.00    +0.000 C 
ATOM     14  C   UNL     1      52.426 -15.640  14.618  0.00  0.00    +0.000 C 
ATOM     15  C   UNL     1      47.559 -19.242  14.190  0.00  0.00    +0.000 C 
ATOM     16  C   UNL     1      49.263 -20.885  16.959  0.00  0.00    +0.000 C 
ATOM     17  C   UNL     1      50.465 -21.046  14.741  0.00  0.00    +0.000 C 
ATOM     18  C   UNL     1      48.070 -21.637  17.591  0.00  0.00    +0.000 C 
ATOM     19  C   UNL     1      47.060 -21.081  15.553  0.00  0.00    +0.000 C 
ATOM     20  C   UNL     1      46.849 -21.763  16.820  0.00  0.00    +0.000 C 
ENDROOT
BRANCH   7  21
ATOM     21  C   UNL     1      52.001 -13.922  17.357  0.00  0.00    +0.000 C 
ATOM     22  O   UNL     1      52.747 -14.464  18.155  0.00  0.00    +0.000 OA
ATOM     23  C   UNL     1      52.234 -12.448  17.333  0.00  0.00    +0.000 C 
ENDBRANCH   7  21
TORSDOF 1
ENDMDL
MODEL 5
REMARK VINA RESULT:      -6.2     19.650     23.446
REMARK  Name = Progesterone.pdbqt.pdb
REMARK  1 active torsions:
REMARK  status: ('A' for Active; 'I' for Inactive)
REMARK    1  A    between atoms: C_7  and  C_21
REMARK                            x       y       z     vdW  Elec       q    Type
REMARK                         _______ _______ _______ _____ _____    ______ ____
ROOT
ATOM      1  O   UNL     1      11.605   5.223  14.842  0.00  0.00    +0.000 OA
ATOM      2  C   UNL     1      17.644   5.619  19.531  0.00  0.00    +0.000 C 
ATOM      3  C   UNL     1      18.092   7.009  20.242  0.00  0.00    +0.000 C 
ATOM      4  C   UNL     1      16.251   5.351  19.123  0.00  0.00    +0.000 C 
ATOM      5  C   UNL     1      15.141   6.363  19.047  0.00  0.00    +0.000 C 
ATOM      6  C   UNL     1      13.671   6.010  18.728  0.00  0.00    +0.000 C 
ATOM      7  C   UNL     1      19.388   7.331  19.560  0.00  0.00    +0.000 C 
ATOM      8  C   UNL     1      16.990   7.927  19.953  0.00  0.00    +0.000 C 
ATOM      9  C   UNL     1      15.604   7.653  19.424  0.00  0.00    +0.000 C 
ATOM     10  C   UNL     1      18.731   5.199  18.701  0.00  0.00    +0.000 C 
ATOM     11  C   UNL     1      15.867   4.088  18.617  0.00  0.00    +0.000 C 
ATOM     12  C   UNL     1      19.789   6.270  18.700  0.00  0.00    +0.000 C 
ATOM     13  C   UNL     1      13.451   4.567  17.944  0.00  0.00    +0.000 C 
ATOM     14  C   UNL     1      18.296   6.691  21.742  0.00  0.00    +0.000 C 
ATOM     15  C   UNL     1      14.545   3.672  18.046  0.00  0.00    +0.000 C 
ATOM     16  C   UNL     1      13.094   7.002  17.762  0.00  0.00    +0.000 C 
ATOM     17  C   UNL     1      12.851   5.941  20.044  0.00  0.00    +0.000 C 
ATOM     18  C   UNL     1      12.344   6.846  16.420  0.00  0.00    +0.000 C 
ATOM     19  C   UNL     1      12.766   4.578  16.820  0.00  0.00    +0.000 C 
ATOM     20  C   UNL     1      12.144   5.510  15.892  0.00  0.00    +0.000 C 
ENDROOT
BRANCH   7  21
ATOM     21  C   UNL     1      20.141   8.540  19.789  0.00  0.00    +0.000 C 
ATOM     22  O   UNL     1      20.631   8.873  20.856  0.00  0.00    +0.000 OA
ATOM     23  C   UNL     1      20.505   9.512  18.716  0.00  0.00    +0.000 C 
ENDBRANCH   7  21
TORSDOF 1
ENDMDL
MODEL 6
REMARK VINA RESULT:      -6.0      5.354      9.619
REMARK  Name = Progesterone.pdbqt.pdb
REMARK  1 active torsions:
REMARK  status: ('A' for Active; 'I' for Inactive)
REMARK    1  A    between atoms: C_7  and  C_21
REMARK                            x       y       z     vdW  Elec       q    Type
REMARK                         _______ _______ _______ _____ _____    ______ ____
ROOT
ATOM      1  O   UNL     1      35.670  -1.235   9.138  0.00  0.00    +0.000 OA
ATOM      2  C   UNL     1      43.326  -1.266   9.044  0.00  0.00    +0.000 C 
ATOM      3  C   UNL     1      44.174  -0.667   7.795  0.00  0.00    +0.000 C 
ATOM      4  C   UNL     1      41.969  -0.791   9.380  0.00  0.00    +0.000 C 
ATOM      5  C   UNL     1      41.092   0.069   8.513  0.00  0.00    +0.000 C 
ATOM      6  C   UNL     1      39.727   0.637   8.961  0.00  0.00    +0.000 C 
ATOM      7  C   UNL     1      44.782  -1.894   7.185  0.00  0.00    +0.000 C 
ATOM      8  C   UNL     1      43.168   0.005   6.973  0.00  0.00    +0.000 C 
ATOM      9  C   UNL     1      41.742   0.382   7.288  0.00  0.00    +0.000 C 
ATOM     10  C   UNL     1      43.649  -2.656   9.147  0.00  0.00    +0.000 C 
ATOM     11  C   UNL     1      41.304  -1.243  10.543  0.00  0.00    +0.000 C 
ATOM     12  C   UNL     1      44.523  -3.043   7.984  0.00  0.00    +0.000 C 
ATOM     13  C   UNL     1      39.011  -0.168  10.219  0.00  0.00    +0.000 C 
ATOM     14  C   UNL     1      45.248   0.267   8.399  0.00  0.00    +0.000 C 
ATOM     15  C   UNL     1      39.896  -0.971  10.980  0.00  0.00    +0.000 C 
ATOM     16  C   UNL     1      38.717   0.495   7.860  0.00  0.00    +0.000 C 
ATOM     17  C   UNL     1      39.894   2.115   9.404  0.00  0.00    +0.000 C 
ATOM     18  C   UNL     1      37.292  -0.101   7.814  0.00  0.00    +0.000 C 
ATOM     19  C   UNL     1      37.778  -0.599  10.050  0.00  0.00    +0.000 C 
ATOM     20  C   UNL     1      36.755  -0.699   9.020  0.00  0.00    +0.000 C 
ENDROOT
BRANCH   7  21
ATOM     21  C   UNL     1      45.564  -1.889   5.973  0.00  0.00    +0.000 C 
ATOM     22  O   UNL     1      46.755  -1.632   5.904  0.00  0.00    +0.000 OA
ATOM     23  C   UNL     1      45.034  -2.294   4.637  0.00  0.00    +0.000 C 
ENDBRANCH   7  21
TORSDOF 1
ENDMDL
MODEL 7
REMARK VINA RESULT:      -5.9     21.885     24.949
REMARK  Name = Progesterone.pdbqt.pdb
REMARK  1 active torsions:
REMARK  status: ('A' for Active; 'I' for Inactive)
REMARK    1  A    between atoms: C_7  and  C_21
REMARK                            x       y       z     vdW  Elec       q    Type
REMARK                         _______ _______ _______ _____ _____    ______ ____
ROOT
ATOM      1  O   UNL     1      43.162 -21.261  -5.518  0.00  0.00    +0.000 OA
ATOM      2  C   UNL     1      40.810 -15.493  -1.067  0.00  0.00    +0.000 C 
ATOM      3  C   UNL     1      39.242 -15.263  -0.713  0.00  0.00    +0.000 C 
ATOM      4  C   UNL     1      41.360 -16.822  -1.397  0.00  0.00    +0.000 C 
ATOM      5  C   UNL     1      40.563 -18.056  -1.715  0.00  0.00    +0.000 C 
ATOM      6  C   UNL     1      41.185 -19.452  -1.938  0.00  0.00    +0.000 C 
ATOM      7  C   UNL     1      38.913 -14.001  -1.454  0.00  0.00    +0.000 C 
ATOM      8  C   UNL     1      38.584 -16.469  -1.215  0.00  0.00    +0.000 C 
ATOM      9  C   UNL     1      39.168 -17.786  -1.661  0.00  0.00    +0.000 C 
ATOM     10  C   UNL     1      41.260 -14.331  -1.772  0.00  0.00    +0.000 C 
ATOM     11  C   UNL     1      42.749 -17.013  -1.582  0.00  0.00    +0.000 C 
ATOM     12  C   UNL     1      40.082 -13.430  -2.032  0.00  0.00    +0.000 C 
ATOM     13  C   UNL     1      42.790 -19.448  -2.349  0.00  0.00    +0.000 C 
ATOM     14  C   UNL     1      39.158 -15.067   0.819  0.00  0.00    +0.000 C 
ATOM     15  C   UNL     1      43.471 -18.246  -2.035  0.00  0.00    +0.000 C 
ATOM     16  C   UNL     1      40.544 -20.127  -3.115  0.00  0.00    +0.000 C 
ATOM     17  C   UNL     1      41.051 -20.299  -0.645  0.00  0.00    +0.000 C 
ATOM     18  C   UNL     1      41.121 -20.804  -4.379  0.00  0.00    +0.000 C 
ATOM     19  C   UNL     1      43.145 -20.090  -3.442  0.00  0.00    +0.000 C 
ATOM     20  C   UNL     1      42.559 -20.802  -4.568  0.00  0.00    +0.000 C 
ENDROOT
BRANCH   7  21
ATOM     21  C   UNL     1      37.591 -13.428  -1.524  0.00  0.00    +0.000 C 
ATOM     22  O   UNL     1      37.025 -12.850  -0.612  0.00  0.00    +0.000 OA
ATOM     23  C   UNL     1      36.766 -13.384  -2.769  0.00  0.00    +0.000 C 
ENDBRANCH   7  21
TORSDOF 1
ENDMDL
MODEL 8
REMARK VINA RESULT:      -5.7     20.881     24.422
REMARK  Name = Progesterone.pdbqt.pdb
REMARK  1 active torsions:
REMARK  status: ('A' for Active; 'I' for Inactive)
REMARK    1  A    between atoms: C_7  and  C_21
REMARK                            x       y       z     vdW  Elec       q    Type
REMARK                         _______ _______ _______ _____ _____    ______ ____
ROOT
ATOM      1  O   UNL     1      53.556  -0.404  37.078  0.00  0.00    +0.000 OA
ATOM      2  C   UNL     1      50.304   5.144  32.923  0.00  0.00    +0.000 C 
ATOM      3  C   UNL     1      49.361   4.820  31.641  0.00  0.00    +0.000 C 
ATOM      4  C   UNL     1      50.466   4.200  34.046  0.00  0.00    +0.000 C 
ATOM      5  C   UNL     1      50.038   2.759  34.060  0.00  0.00    +0.000 C 
ATOM      6  C   UNL     1      50.123   1.844  35.302  0.00  0.00    +0.000 C 
ATOM      7  C   UNL     1      50.190   5.297  30.487  0.00  0.00    +0.000 C 
ATOM      8  C   UNL     1      49.159   3.372  31.707  0.00  0.00    +0.000 C 
ATOM      9  C   UNL     1      49.439   2.396  32.822  0.00  0.00    +0.000 C 
ATOM     10  C   UNL     1      51.425   5.895  32.445  0.00  0.00    +0.000 C 
ATOM     11  C   UNL     1      51.196   4.558  35.203  0.00  0.00    +0.000 C 
ATOM     12  C   UNL     1      51.364   5.961  30.943  0.00  0.00    +0.000 C 
ATOM     13  C   UNL     1      51.196   2.338  36.464  0.00  0.00    +0.000 C 
ATOM     14  C   UNL     1      48.076   5.662  31.814  0.00  0.00    +0.000 C 
ATOM     15  C   UNL     1      51.566   3.703  36.377  0.00  0.00    +0.000 C 
ATOM     16  C   UNL     1      50.649   0.492  34.919  0.00  0.00    +0.000 C 
ATOM     17  C   UNL     1      48.730   1.751  35.981  0.00  0.00    +0.000 C 
ATOM     18  C   UNL     1      51.796  -0.383  35.474  0.00  0.00    +0.000 C 
ATOM     19  C   UNL     1      52.107   1.476  36.863  0.00  0.00    +0.000 C 
ATOM     20  C   UNL     1      52.604   0.143  36.557  0.00  0.00    +0.000 C 
ENDROOT
BRANCH   7  21
ATOM     21  C   UNL     1      49.812   5.140  29.103  0.00  0.00    +0.000 C 
ATOM     22  O   UNL     1      48.720   4.766  28.710  0.00  0.00    +0.000 OA
ATOM     23  C   UNL     1      50.690   5.508  27.953  0.00  0.00    +0.000 C 
ENDBRANCH   7  21
TORSDOF 1
ENDMDL
MODEL 9
REMARK VINA RESULT:      -5.4      3.645      6.779
REMARK  Name = Progesterone.pdbqt.pdb
REMARK  1 active torsions:
REMARK  status: ('A' for Active; 'I' for Inactive)
REMARK    1  A    between atoms: C_7  and  C_21
REMARK                            x       y       z     vdW  Elec       q    Type
REMARK                         _______ _______ _______ _____ _____    ______ ____
ROOT
ATOM      1  O   UNL     1      37.191  -2.072   9.316  0.00  0.00    +0.000 OA
ATOM      2  C   UNL     1      41.636   3.872  11.193  0.00  0.00    +0.000 C 
ATOM      3  C   UNL     1      41.032   5.363  11.417  0.00  0.00    +0.000 C 
ATOM      4  C   UNL     1      40.833   2.652  11.402  0.00  0.00    +0.000 C 
ATOM      5  C   UNL     1      39.340   2.593  11.574  0.00  0.00    +0.000 C 
ATOM      6  C   UNL     1      38.560   1.303  11.910  0.00  0.00    +0.000 C 
ATOM      7  C   UNL     1      41.577   6.124  10.245  0.00  0.00    +0.000 C 
ATOM      8  C   UNL     1      39.582   5.162  11.410  0.00  0.00    +0.000 C 
ATOM      9  C   UNL     1      38.771   3.894  11.508  0.00  0.00    +0.000 C 
ATOM     10  C   UNL     1      42.558   3.949  10.101  0.00  0.00    +0.000 C 
ATOM     11  C   UNL     1      41.418   1.367  11.318  0.00  0.00    +0.000 C 
ATOM     12  C   UNL     1      42.496   5.329   9.504  0.00  0.00    +0.000 C 
ATOM     13  C   UNL     1      39.346  -0.108  11.543  0.00  0.00    +0.000 C 
ATOM     14  C   UNL     1      41.609   5.877  12.756  0.00  0.00    +0.000 C 
ATOM     15  C   UNL     1      40.747   0.028  11.379  0.00  0.00    +0.000 C 
ATOM     16  C   UNL     1      37.316   1.214  11.075  0.00  0.00    +0.000 C 
ATOM     17  C   UNL     1      38.240   1.263  13.428  0.00  0.00    +0.000 C 
ATOM     18  C   UNL     1      36.735   0.102  10.173  0.00  0.00    +0.000 C 
ATOM     19  C   UNL     1      38.719  -0.981  10.784  0.00  0.00    +0.000 C 
ATOM     20  C   UNL     1      37.493  -1.122  10.012  0.00  0.00    +0.000 C 
ENDROOT
BRANCH   7  21
ATOM     21  C   UNL     1      41.241   7.495   9.948  0.00  0.00    +0.000 C 
ATOM     22  O   UNL     1      40.239   7.863   9.359  0.00  0.00    +0.000 OA
ATOM     23  C   UNL     1      42.039   8.668  10.413  0.00  0.00    +0.000 C 
ENDBRANCH   7  21
TORSDOF 1
ENDMDL
