MODEL 1
REMARK VINA RESULT:      -7.6      0.000      0.000
REMARK  Name = Quercetin.pdbqt.pdb
REMARK  6 active torsions:
REMARK  status: ('A' for Active; 'I' for Inactive)
REMARK    1  A    between atoms: C_5  and  C_12
REMARK    2  A    between atoms: C_6  and  O_22
REMARK    3  A    between atoms: C_8  and  O_24
REMARK    4  A    between atoms: C_10  and  O_26
REMARK    5  A    between atoms: C_15  and  O_18
REMARK    6  A    between atoms: C_17  and  O_20
REMARK                            x       y       z     vdW  Elec       q    Type
REMARK                         _______ _______ _______ _____ _____    ______ ____
ROOT
ATOM      1  O   UNL     1      36.440   0.562  12.067  0.00  0.00    +0.000 OA
ATOM      2  O   UNL     1      38.309   4.163  11.823  0.00  0.00    +0.000 OA
ATOM      3  C   UNL     1      37.697   2.176  10.767  0.00  0.00    +0.000 A 
ATOM      4  C   UNL     1      37.048   0.955  10.907  0.00  0.00    +0.000 A 
ATOM      5  C   UNL     1      36.452   1.422  13.156  0.00  0.00    +0.000 A 
ATOM      6  C   UNL     1      37.054   2.631  13.168  0.00  0.00    +0.000 A 
ATOM      7  C   UNL     1      37.732   3.082  11.919  0.00  0.00    +0.000 A 
ATOM      8  C   UNL     1      38.300   2.513   9.548  0.00  0.00    +0.000 A 
ATOM      9  C   UNL     1      36.995   0.065   9.836  0.00  0.00    +0.000 A 
ATOM     10  C   UNL     1      37.596   0.409   8.629  0.00  0.00    +0.000 A 
ATOM     11  C   UNL     1      38.249   1.627   8.476  0.00  0.00    +0.000 A 
ENDROOT
BRANCH   5  12
ATOM     12  C   UNL     1      35.737   0.860  14.311  0.00  0.00    +0.000 A 
ATOM     13  C   UNL     1      36.429   0.217  15.342  0.00  0.00    +0.000 A 
ATOM     14  C   UNL     1      34.350   1.024  14.414  0.00  0.00    +0.000 A 
ATOM     15  C   UNL     1      35.733  -0.272  16.440  0.00  0.00    +0.000 A 
ATOM     16  C   UNL     1      33.656   0.547  15.525  0.00  0.00    +0.000 A 
ATOM     17  C   UNL     1      34.359  -0.085  16.541  0.00  0.00    +0.000 A 
BRANCH  15  18
ATOM     18  O   UNL     1      36.416  -0.968  17.393  0.00  0.00    +0.000 OA
ATOM     19  H   UNL     1      36.476  -0.393  18.179  0.00  0.00    +0.000 HD
ENDBRANCH  15  18
BRANCH  17  20
ATOM     20  O   UNL     1      33.686  -0.500  17.653  0.00  0.00    +0.000 OA
ATOM     21  H   UNL     1      33.947  -1.428  17.806  0.00  0.00    +0.000 HD
ENDBRANCH  17  20
ENDBRANCH   5  12
BRANCH   6  22
ATOM     22  O   UNL     1      37.112   3.484  14.253  0.00  0.00    +0.000 OA
ATOM     23  H   UNL     1      36.925   2.999  15.072  0.00  0.00    +0.000 HD
ENDBRANCH   6  22
BRANCH   8  24
ATOM     24  O   UNL     1      38.957   3.696   9.341  0.00  0.00    +0.000 OA
ATOM     25  H   UNL     1      39.762   3.706   9.910  0.00  0.00    +0.000 HD
ENDBRANCH   8  24
BRANCH  10  26
ATOM     26  O   UNL     1      37.530  -0.479   7.595  0.00  0.00    +0.000 OA
ATOM     27  H   UNL     1      36.591  -0.659   7.410  0.00  0.00    +0.000 HD
ENDBRANCH  10  26
TORSDOF 6
ENDMDL
MODEL 2
REMARK VINA RESULT:      -7.6      2.055      6.776
REMARK  Name = Quercetin.pdbqt.pdb
REMARK  6 active torsions:
REMARK  status: ('A' for Active; 'I' for Inactive)
REMARK    1  A    between atoms: C_5  and  C_12
REMARK    2  A    between atoms: C_6  and  O_22
REMARK    3  A    between atoms: C_8  and  O_24
REMARK    4  A    between atoms: C_10  and  O_26
REMARK    5  A    between atoms: C_15  and  O_18
REMARK    6  A    between atoms: C_17  and  O_20
REMARK                            x       y       z     vdW  Elec       q    Type
REMARK                         _______ _______ _______ _____ _____    ______ ____
ROOT
ATOM      1  O   UNL     1      37.283  -0.627  13.433  0.00  0.00    +0.000 OA
ATOM      2  O   UNL     1      34.867   2.617  13.828  0.00  0.00    +0.000 OA
ATOM      3  C   UNL     1      35.725   0.664  14.768  0.00  0.00    +0.000 A 
ATOM      4  C   UNL     1      36.563  -0.429  14.579  0.00  0.00    +0.000 A 
ATOM      5  C   UNL     1      37.193   0.309  12.413  0.00  0.00    +0.000 A 
ATOM      6  C   UNL     1      36.411   1.410  12.454  0.00  0.00    +0.000 A 
ATOM      7  C   UNL     1      35.609   1.648  13.687  0.00  0.00    +0.000 A 
ATOM      8  C   UNL     1      35.016   0.803  15.968  0.00  0.00    +0.000 A 
ATOM      9  C   UNL     1      36.699  -1.388  15.581  0.00  0.00    +0.000 A 
ATOM     10  C   UNL     1      35.991  -1.240  16.770  0.00  0.00    +0.000 A 
ATOM     11  C   UNL     1      35.149  -0.152  16.972  0.00  0.00    +0.000 A 
ENDROOT
BRANCH   5  12
ATOM     12  C   UNL     1      38.044  -0.040  11.267  0.00  0.00    +0.000 A 
ATOM     13  C   UNL     1      39.402   0.296  11.250  0.00  0.00    +0.000 A 
ATOM     14  C   UNL     1      37.505  -0.772  10.201  0.00  0.00    +0.000 A 
ATOM     15  C   UNL     1      40.191  -0.079  10.170  0.00  0.00    +0.000 A 
ATOM     16  C   UNL     1      38.304  -1.162   9.127  0.00  0.00    +0.000 A 
ATOM     17  C   UNL     1      39.651  -0.825   9.128  0.00  0.00    +0.000 A 
BRANCH  15  18
ATOM     18  O   UNL     1      41.492   0.329  10.136  0.00  0.00    +0.000 OA
ATOM     19  H   UNL     1      42.037  -0.466   9.986  0.00  0.00    +0.000 HD
ENDBRANCH  15  18
BRANCH  17  20
ATOM     20  O   UNL     1      40.443  -1.255   8.104  0.00  0.00    +0.000 OA
ATOM     21  H   UNL     1      39.952  -1.968   7.654  0.00  0.00    +0.000 HD
ENDBRANCH  17  20
ENDBRANCH   5  12
BRANCH   6  22
ATOM     22  O   UNL     1      36.277   2.333  11.434  0.00  0.00    +0.000 OA
ATOM     23  H   UNL     1      36.979   2.211  10.776  0.00  0.00    +0.000 HD
ENDBRANCH   6  22
BRANCH   8  24
ATOM     24  O   UNL     1      34.173   1.851  16.222  0.00  0.00    +0.000 OA
ATOM     25  H   UNL     1      33.256   1.572  15.994  0.00  0.00    +0.000 HD
ENDBRANCH   8  24
BRANCH  10  26
ATOM     26  O   UNL     1      36.141  -2.192  17.736  0.00  0.00    +0.000 OA
ATOM     27  H   UNL     1      35.255  -2.496  18.002  0.00  0.00    +0.000 HD
ENDBRANCH  10  26
TORSDOF 6
ENDMDL
MODEL 3
REMARK VINA RESULT:      -7.4      2.094      2.123
REMARK  Name = Quercetin.pdbqt.pdb
REMARK  6 active torsions:
REMARK  status: ('A' for Active; 'I' for Inactive)
REMARK    1  A    between atoms: C_5  and  C_12
REMARK    2  A    between atoms: C_6  and  O_22
REMARK    3  A    between atoms: C_8  and  O_24
REMARK    4  A    between atoms: C_10  and  O_26
REMARK    5  A    between atoms: C_15  and  O_18
REMARK    6  A    between atoms: C_17  and  O_20
REMARK                            x       y       z     vdW  Elec       q    Type
REMARK                         _______ _______ _______ _____ _____    ______ ____
ROOT
ATOM      1  O   UNL     1      37.515   0.103  13.055  0.00  0.00    +0.000 OA
ATOM      2  O   UNL     1      39.182   3.746  13.740  0.00  0.00    +0.000 OA
ATOM      3  C   UNL     1      39.206   1.757  12.524  0.00  0.00    +0.000 A 
ATOM      4  C   UNL     1      38.599   0.521  12.333  0.00  0.00    +0.000 A 
ATOM      5  C   UNL     1      36.978   0.952  14.011  0.00  0.00    +0.000 A 
ATOM      6  C   UNL     1      37.470   2.174  14.311  0.00  0.00    +0.000 A 
ATOM      7  C   UNL     1      38.657   2.652  13.547  0.00  0.00    +0.000 A 
ATOM      8  C   UNL     1      40.315   2.119  11.749  0.00  0.00    +0.000 A 
ATOM      9  C   UNL     1      39.093  -0.360  11.373  0.00  0.00    +0.000 A 
ATOM     10  C   UNL     1      40.195   0.009  10.607  0.00  0.00    +0.000 A 
ATOM     11  C   UNL     1      40.812   1.243  10.788  0.00  0.00    +0.000 A 
ENDROOT
BRANCH   5  12
ATOM     12  C   UNL     1      35.807   0.364  14.677  0.00  0.00    +0.000 A 
ATOM     13  C   UNL     1      35.955  -0.464  15.794  0.00  0.00    +0.000 A 
ATOM     14  C   UNL     1      34.520   0.683  14.225  0.00  0.00    +0.000 A 
ATOM     15  C   UNL     1      34.829  -0.976  16.427  0.00  0.00    +0.000 A 
ATOM     16  C   UNL     1      33.392   0.181  14.872  0.00  0.00    +0.000 A 
ATOM     17  C   UNL     1      33.556  -0.635  15.983  0.00  0.00    +0.000 A 
BRANCH  15  18
ATOM     18  O   UNL     1      34.997  -1.846  17.463  0.00  0.00    +0.000 OA
ATOM     19  H   UNL     1      34.758  -1.368  18.280  0.00  0.00    +0.000 HD
ENDBRANCH  15  18
BRANCH  17  20
ATOM     20  O   UNL     1      32.451  -1.079  16.648  0.00  0.00    +0.000 OA
ATOM     21  H   UNL     1      32.560  -2.042  16.756  0.00  0.00    +0.000 HD
ENDBRANCH  17  20
ENDBRANCH   5  12
BRANCH   6  22
ATOM     22  O   UNL     1      36.975   3.018  15.287  0.00  0.00    +0.000 OA
ATOM     23  H   UNL     1      36.426   2.520  15.914  0.00  0.00    +0.000 HD
ENDBRANCH   6  22
BRANCH   8  24
ATOM     24  O   UNL     1      40.963   3.317  11.883  0.00  0.00    +0.000 OA
ATOM     25  H   UNL     1      41.391   3.340  12.771  0.00  0.00    +0.000 HD
ENDBRANCH   8  24
BRANCH  10  26
ATOM     26  O   UNL     1      40.659  -0.870   9.673  0.00  0.00    +0.000 OA
ATOM     27  H   UNL     1      39.932  -1.069   9.056  0.00  0.00    +0.000 HD
ENDBRANCH  10  26
TORSDOF 6
ENDMDL
MODEL 4
REMARK VINA RESULT:      -6.6     20.800     23.801
REMARK  Name = Quercetin.pdbqt.pdb
REMARK  6 active torsions:
REMARK  status: ('A' for Active; 'I' for Inactive)
REMARK    1  A    between atoms: C_5  and  C_12
REMARK    2  A    between atoms: C_6  and  O_22
REMARK    3  A    between atoms: C_8  and  O_24
REMARK    4  A    between atoms: C_10  and  O_26
REMARK    5  A    between atoms: C_15  and  O_18
REMARK    6  A    between atoms: C_17  and  O_20
REMARK                            x       y       z     vdW  Elec       q    Type
REMARK                         _______ _______ _______ _____ _____    ______ ____
ROOT
ATOM      1  O   UNL     1      49.969  -1.831  32.296  0.00  0.00    +0.000 OA
ATOM      2  O   UNL     1      47.745  -2.523  28.964  0.00  0.00    +0.000 OA
ATOM      3  C   UNL     1      49.033  -1.030  30.207  0.00  0.00    +0.000 A 
ATOM      4  C   UNL     1      49.781  -0.846  31.365  0.00  0.00    +0.000 A 
ATOM      5  C   UNL     1      49.406  -3.079  32.074  0.00  0.00    +0.000 A 
ATOM      6  C   UNL     1      48.647  -3.396  31.003  0.00  0.00    +0.000 A 
ATOM      7  C   UNL     1      48.418  -2.340  29.976  0.00  0.00    +0.000 A 
ATOM      8  C   UNL     1      48.881   0.025  29.298  0.00  0.00    +0.000 A 
ATOM      9  C   UNL     1      50.379   0.386  31.623  0.00  0.00    +0.000 A 
ATOM     10  C   UNL     1      50.223   1.427  30.713  0.00  0.00    +0.000 A 
ATOM     11  C   UNL     1      49.477   1.257  29.551  0.00  0.00    +0.000 A 
ENDROOT
BRANCH   5  12
ATOM     12  C   UNL     1      49.722  -4.026  33.153  0.00  0.00    +0.000 A 
ATOM     13  C   UNL     1      48.707  -4.611  33.918  0.00  0.00    +0.000 A 
ATOM     14  C   UNL     1      51.053  -4.398  33.381  0.00  0.00    +0.000 A 
ATOM     15  C   UNL     1      49.032  -5.531  34.906  0.00  0.00    +0.000 A 
ATOM     16  C   UNL     1      51.374  -5.335  34.362  0.00  0.00    +0.000 A 
ATOM     17  C   UNL     1      50.355  -5.909  35.109  0.00  0.00    +0.000 A 
BRANCH  15  18
ATOM     18  O   UNL     1      48.035  -6.027  35.694  0.00  0.00    +0.000 OA
ATOM     19  H   UNL     1      48.259  -6.956  35.887  0.00  0.00    +0.000 HD
ENDBRANCH  15  18
BRANCH  17  20
ATOM     20  O   UNL     1      50.666  -6.866  36.030  0.00  0.00    +0.000 OA
ATOM     21  H   UNL     1      50.180  -6.637  36.844  0.00  0.00    +0.000 HD
ENDBRANCH  17  20
ENDBRANCH   5  12
BRANCH   6  22
ATOM     22  O   UNL     1      48.045  -4.621  30.783  0.00  0.00    +0.000 OA
ATOM     23  H   UNL     1      47.666  -4.961  31.609  0.00  0.00    +0.000 HD
ENDBRANCH   6  22
BRANCH   8  24
ATOM     24  O   UNL     1      48.159  -0.084  28.141  0.00  0.00    +0.000 OA
ATOM     25  H   UNL     1      47.228  -0.306  28.377  0.00  0.00    +0.000 HD
ENDBRANCH   8  24
BRANCH  10  26
ATOM     26  O   UNL     1      50.818   2.623  30.988  0.00  0.00    +0.000 OA
ATOM     27  H   UNL     1      51.218   2.959  30.166  0.00  0.00    +0.000 HD
ENDBRANCH  10  26
TORSDOF 6
ENDMDL
MODEL 5
REMARK VINA RESULT:      -6.6      2.338      3.132
REMARK  Name = Quercetin.pdbqt.pdb
REMARK  6 active torsions:
REMARK  status: ('A' for Active; 'I' for Inactive)
REMARK    1  A    between atoms: C_5  and  C_12
REMARK    2  A    between atoms: C_6  and  O_22
REMARK    3  A    between atoms: C_8  and  O_24
REMARK    4  A    between atoms: C_10  and  O_26
REMARK    5  A    between atoms: C_15  and  O_18
REMARK    6  A    between atoms: C_17  and  O_20
REMARK                            x       y       z     vdW  Elec       q    Type
REMARK                         _______ _______ _______ _____ _____    ______ ____
ROOT
ATOM      1  O   UNL     1      38.431   0.014  11.767  0.00  0.00    +0.000 OA
ATOM      2  O   UNL     1      38.739   2.826   8.848  0.00  0.00    +0.000 OA
ATOM      3  C   UNL     1      39.370   0.730   9.649  0.00  0.00    +0.000 A 
ATOM      4  C   UNL     1      39.232  -0.196  10.677  0.00  0.00    +0.000 A 
ATOM      5  C   UNL     1      37.708   1.195  11.850  0.00  0.00    +0.000 A 
ATOM      6  C   UNL     1      37.754   2.186  10.934  0.00  0.00    +0.000 A 
ATOM      7  C   UNL     1      38.625   1.989   9.740  0.00  0.00    +0.000 A 
ATOM      8  C   UNL     1      40.209   0.449   8.563  0.00  0.00    +0.000 A 
ATOM      9  C   UNL     1      39.926  -1.403  10.629  0.00  0.00    +0.000 A 
ATOM     10  C   UNL     1      40.756  -1.673   9.546  0.00  0.00    +0.000 A 
ATOM     11  C   UNL     1      40.904  -0.755   8.511  0.00  0.00    +0.000 A 
ENDROOT
BRANCH   5  12
ATOM     12  C   UNL     1      36.883   1.251  13.066  0.00  0.00    +0.000 A 
ATOM     13  C   UNL     1      35.780   2.106  13.147  0.00  0.00    +0.000 A 
ATOM     14  C   UNL     1      37.167   0.394  14.136  0.00  0.00    +0.000 A 
ATOM     15  C   UNL     1      34.995   2.113  14.294  0.00  0.00    +0.000 A 
ATOM     16  C   UNL     1      36.368   0.390  15.279  0.00  0.00    +0.000 A 
ATOM     17  C   UNL     1      35.274   1.242  15.342  0.00  0.00    +0.000 A 
BRANCH  15  18
ATOM     18  O   UNL     1      33.974   3.012  14.386  0.00  0.00    +0.000 OA
ATOM     19  H   UNL     1      33.684   3.021  15.317  0.00  0.00    +0.000 HD
ENDBRANCH  15  18
BRANCH  17  20
ATOM     20  O   UNL     1      34.461   1.196  16.436  0.00  0.00    +0.000 OA
ATOM     21  H   UNL     1      33.748   0.565  16.227  0.00  0.00    +0.000 HD
ENDBRANCH  17  20
ENDBRANCH   5  12
BRANCH   6  22
ATOM     22  O   UNL     1      37.072   3.385  11.019  0.00  0.00    +0.000 OA
ATOM     23  H   UNL     1      36.771   3.662  10.139  0.00  0.00    +0.000 HD
ENDBRANCH   6  22
BRANCH   8  24
ATOM     24  O   UNL     1      40.395   1.314   7.518  0.00  0.00    +0.000 OA
ATOM     25  H   UNL     1      40.617   0.786   6.716  0.00  0.00    +0.000 HD
ENDBRANCH   8  24
BRANCH  10  26
ATOM     26  O   UNL     1      41.425  -2.862   9.522  0.00  0.00    +0.000 OA
ATOM     27  H   UNL     1      41.098  -3.408  10.259  0.00  0.00    +0.000 HD
ENDBRANCH  10  26
TORSDOF 6
ENDMDL
MODEL 6
REMARK VINA RESULT:      -6.5      4.019      4.683
REMARK  Name = Quercetin.pdbqt.pdb
REMARK  6 active torsions:
REMARK  status: ('A' for Active; 'I' for Inactive)
REMARK    1  A    between atoms: C_5  and  C_12
REMARK    2  A    between atoms: C_6  and  O_22
REMARK    3  A    between atoms: C_8  and  O_24
REMARK    4  A    between atoms: C_10  and  O_26
REMARK    5  A    between atoms: C_15  and  O_18
REMARK    6  A    between atoms: C_17  and  O_20
REMARK                            x       y       z     vdW  Elec       q    Type
REMARK                         _______ _______ _______ _____ _____    ______ ____
ROOT
ATOM      1  O   UNL     1      38.992   1.837  12.137  0.00  0.00    +0.000 OA
ATOM      2  O   UNL     1      39.202   3.904   8.643  0.00  0.00    +0.000 OA
ATOM      3  C   UNL     1      38.723   1.897   9.728  0.00  0.00    +0.000 A 
ATOM      4  C   UNL     1      38.673   1.236  10.950  0.00  0.00    +0.000 A 
ATOM      5  C   UNL     1      39.369   3.172  12.133  0.00  0.00    +0.000 A 
ATOM      6  C   UNL     1      39.474   3.933  11.022  0.00  0.00    +0.000 A 
ATOM      7  C   UNL     1      39.141   3.302   9.713  0.00  0.00    +0.000 A 
ATOM      8  C   UNL     1      38.384   1.218   8.551  0.00  0.00    +0.000 A 
ATOM      9  C   UNL     1      38.284  -0.101  11.007  0.00  0.00    +0.000 A 
ATOM     10  C   UNL     1      37.947  -0.766   9.832  0.00  0.00    +0.000 A 
ATOM     11  C   UNL     1      37.995  -0.117   8.603  0.00  0.00    +0.000 A 
ENDROOT
BRANCH   5  12
ATOM     12  C   UNL     1      39.654   3.669  13.486  0.00  0.00    +0.000 A 
ATOM     13  C   UNL     1      40.881   3.409  14.105  0.00  0.00    +0.000 A 
ATOM     14  C   UNL     1      38.709   4.468  14.144  0.00  0.00    +0.000 A 
ATOM     15  C   UNL     1      41.138   3.923  15.370  0.00  0.00    +0.000 A 
ATOM     16  C   UNL     1      38.977   4.996  15.407  0.00  0.00    +0.000 A 
ATOM     17  C   UNL     1      40.202   4.732  16.005  0.00  0.00    +0.000 A 
BRANCH  15  18
ATOM     18  O   UNL     1      42.307   3.589  15.988  0.00  0.00    +0.000 OA
ATOM     19  H   UNL     1      42.778   2.973  15.397  0.00  0.00    +0.000 HD
ENDBRANCH  15  18
BRANCH  17  20
ATOM     20  O   UNL     1      40.484   5.296  17.214  0.00  0.00    +0.000 OA
ATOM     21  H   UNL     1      41.455   5.294  17.302  0.00  0.00    +0.000 HD
ENDBRANCH  17  20
ENDBRANCH   5  12
BRANCH   6  22
ATOM     22  O   UNL     1      39.886   5.252  10.992  0.00  0.00    +0.000 OA
ATOM     23  H   UNL     1      40.411   5.457  11.781  0.00  0.00    +0.000 HD
ENDBRANCH   6  22
BRANCH   8  24
ATOM     24  O   UNL     1      38.413   1.804   7.314  0.00  0.00    +0.000 OA
ATOM     25  H   UNL     1      37.595   1.545   6.830  0.00  0.00    +0.000 HD
ENDBRANCH   8  24
BRANCH  10  26
ATOM     26  O   UNL     1      37.570  -2.075   9.913  0.00  0.00    +0.000 OA
ATOM     27  H   UNL     1      36.712  -2.115  10.374  0.00  0.00    +0.000 HD
ENDBRANCH  10  26
TORSDOF 6
ENDMDL
MODEL 7
REMARK VINA RESULT:      -6.5      3.086      4.282
REMARK  Name = Quercetin.pdbqt.pdb
REMARK  6 active torsions:
REMARK  status: ('A' for Active; 'I' for Inactive)
REMARK    1  A    between atoms: C_5  and  C_12
REMARK    2  A    between atoms: C_6  and  O_22
REMARK    3  A    between atoms: C_8  and  O_24
REMARK    4  A    between atoms: C_10  and  O_26
REMARK    5  A    between atoms: C_15  and  O_18
REMARK    6  A    between atoms: C_17  and  O_20
REMARK                            x       y       z     vdW  Elec       q    Type
REMARK                         _______ _______ _______ _____ _____    ______ ____
ROOT
ATOM      1  O   UNL     1      39.314  -0.225  12.093  0.00  0.00    +0.000 OA
ATOM      2  O   UNL     1      38.138  -0.692   8.230  0.00  0.00    +0.000 OA
ATOM      3  C   UNL     1      39.872  -0.729   9.787  0.00  0.00    +0.000 A 
ATOM      4  C   UNL     1      40.220  -0.553  11.122  0.00  0.00    +0.000 A 
ATOM      5  C   UNL     1      37.980  -0.074  11.741  0.00  0.00    +0.000 A 
ATOM      6  C   UNL     1      37.502  -0.202  10.485  0.00  0.00    +0.000 A 
ATOM      7  C   UNL     1      38.468  -0.551   9.405  0.00  0.00    +0.000 A 
ATOM      8  C   UNL     1      40.854  -1.064   8.846  0.00  0.00    +0.000 A 
ATOM      9  C   UNL     1      41.545  -0.710  11.525  0.00  0.00    +0.000 A 
ATOM     10  C   UNL     1      42.513  -1.044  10.583  0.00  0.00    +0.000 A 
ATOM     11  C   UNL     1      42.178  -1.222   9.245  0.00  0.00    +0.000 A 
ENDROOT
BRANCH   5  12
ATOM     12  C   UNL     1      37.138   0.254  12.901  0.00  0.00    +0.000 A 
ATOM     13  C   UNL     1      36.184   1.273  12.831  0.00  0.00    +0.000 A 
ATOM     14  C   UNL     1      37.248  -0.504  14.074  0.00  0.00    +0.000 A 
ATOM     15  C   UNL     1      35.376   1.537  13.930  0.00  0.00    +0.000 A 
ATOM     16  C   UNL     1      36.424  -0.248  15.169  0.00  0.00    +0.000 A 
ATOM     17  C   UNL     1      35.479   0.764  15.081  0.00  0.00    +0.000 A 
BRANCH  15  18
ATOM     18  O   UNL     1      34.508   2.588  13.869  0.00  0.00    +0.000 OA
ATOM     19  H   UNL     1      34.720   3.177  14.618  0.00  0.00    +0.000 HD
ENDBRANCH  15  18
BRANCH  17  20
ATOM     20  O   UNL     1      34.636   0.976  16.133  0.00  0.00    +0.000 OA
ATOM     21  H   UNL     1      34.842   1.864  16.480  0.00  0.00    +0.000 HD
ENDBRANCH  17  20
ENDBRANCH   5  12
BRANCH   6  22
ATOM     22  O   UNL     1      36.185  -0.017  10.108  0.00  0.00    +0.000 OA
ATOM     23  H   UNL     1      36.061  -0.279   9.183  0.00  0.00    +0.000 HD
ENDBRANCH   6  22
BRANCH   8  24
ATOM     24  O   UNL     1      40.584  -1.249   7.517  0.00  0.00    +0.000 OA
ATOM     25  H   UNL     1      39.820  -1.867   7.441  0.00  0.00    +0.000 HD
ENDBRANCH   8  24
BRANCH  10  26
ATOM     26  O   UNL     1      43.802  -1.192  11.003  0.00  0.00    +0.000 OA
ATOM     27  H   UNL     1      44.317  -0.432  10.676  0.00  0.00    +0.000 HD
ENDBRANCH  10  26
TORSDOF 6
ENDMDL
MODEL 8
REMARK VINA RESULT:      -6.4      5.671      8.092
REMARK  Name = Quercetin.pdbqt.pdb
REMARK  6 active torsions:
REMARK  status: ('A' for Active; 'I' for Inactive)
REMARK    1  A    between atoms: C_5  and  C_12
REMARK    2  A    between atoms: C_6  and  O_22
REMARK    3  A    between atoms: C_8  and  O_24
REMARK    4  A    between atoms: C_10  and  O_26
REMARK    5  A    between atoms: C_15  and  O_18
REMARK    6  A    between atoms: C_17  and  O_20
REMARK                            x       y       z     vdW  Elec       q    Type
REMARK                         _______ _______ _______ _____ _____    ______ ____
ROOT
ATOM      1  O   UNL     1      41.955  -1.588   8.751  0.00  0.00    +0.000 OA
ATOM      2  O   UNL     1      42.927  -1.711  12.696  0.00  0.00    +0.000 OA
ATOM      3  C   UNL     1      43.560  -2.118  10.489  0.00  0.00    +0.000 A 
ATOM      4  C   UNL     1      43.175  -2.057   9.155  0.00  0.00    +0.000 A 
ATOM      5  C   UNL     1      41.061  -1.133   9.709  0.00  0.00    +0.000 A 
ATOM      6  C   UNL     1      41.294  -1.144  11.039  0.00  0.00    +0.000 A 
ATOM      7  C   UNL     1      42.613  -1.658  11.509  0.00  0.00    +0.000 A 
ATOM      8  C   UNL     1      44.825  -2.612  10.831  0.00  0.00    +0.000 A 
ATOM      9  C   UNL     1      44.046  -2.488   8.155  0.00  0.00    +0.000 A 
ATOM     10  C   UNL     1      45.301  -2.976   8.505  0.00  0.00    +0.000 A 
ATOM     11  C   UNL     1      45.699  -3.042   9.836  0.00  0.00    +0.000 A 
ENDROOT
BRANCH   5  12
ATOM     12  C   UNL     1      39.812  -0.642   9.108  0.00  0.00    +0.000 A 
ATOM     13  C   UNL     1      39.797   0.516   8.325  0.00  0.00    +0.000 A 
ATOM     14  C   UNL     1      38.630  -1.376   9.271  0.00  0.00    +0.000 A 
ATOM     15  C   UNL     1      38.610   0.936   7.739  0.00  0.00    +0.000 A 
ATOM     16  C   UNL     1      37.443  -0.961   8.668  0.00  0.00    +0.000 A 
ATOM     17  C   UNL     1      37.447   0.188   7.889  0.00  0.00    +0.000 A 
BRANCH  15  18
ATOM     18  O   UNL     1      38.599   2.111   7.047  0.00  0.00    +0.000 OA
ATOM     19  H   UNL     1      37.706   2.492   7.142  0.00  0.00    +0.000 HD
ENDBRANCH  15  18
BRANCH  17  20
ATOM     20  O   UNL     1      36.299   0.562   7.254  0.00  0.00    +0.000 OA
ATOM     21  H   UNL     1      35.632   0.711   7.950  0.00  0.00    +0.000 HD
ENDBRANCH  17  20
ENDBRANCH   5  12
BRANCH   6  22
ATOM     22  O   UNL     1      40.402  -0.733  12.011  0.00  0.00    +0.000 OA
ATOM     23  H   UNL     1      39.928  -1.496  12.376  0.00  0.00    +0.000 HD
ENDBRANCH   6  22
BRANCH   8  24
ATOM     24  O   UNL     1      45.270  -2.702  12.122  0.00  0.00    +0.000 OA
ATOM     25  H   UNL     1      46.241  -2.534  12.127  0.00  0.00    +0.000 HD
ENDBRANCH   8  24
BRANCH  10  26
ATOM     26  O   UNL     1      46.135  -3.391   7.509  0.00  0.00    +0.000 OA
ATOM     27  H   UNL     1      46.279  -2.643   6.902  0.00  0.00    +0.000 HD
ENDBRANCH  10  26
TORSDOF 6
ENDMDL
MODEL 9
REMARK VINA RESULT:      -6.4     11.077     13.142
REMARK  Name = Quercetin.pdbqt.pdb
REMARK  6 active torsions:
REMARK  status: ('A' for Active; 'I' for Inactive)
REMARK    1  A    between atoms: C_5  and  C_12
REMARK    2  A    between atoms: C_6  and  O_22
REMARK    3  A    between atoms: C_8  and  O_24
REMARK    4  A    between atoms: C_10  and  O_26
REMARK    5  A    between atoms: C_15  and  O_18
REMARK    6  A    between atoms: C_17  and  O_20
REMARK                            x       y       z     vdW  Elec       q    Type
REMARK                         _______ _______ _______ _____ _____    ______ ____
ROOT
ATOM      1  O   UNL     1      44.428   6.800  19.627  0.00  0.00    +0.000 OA
ATOM      2  O   UNL     1      45.866  10.258  21.209  0.00  0.00    +0.000 OA
ATOM      3  C   UNL     1      46.093   7.951  20.962  0.00  0.00    +0.000 A 
ATOM      4  C   UNL     1      45.557   6.798  20.401  0.00  0.00    +0.000 A 
ATOM      5  C   UNL     1      43.793   8.007  19.372  0.00  0.00    +0.000 A 
ATOM      6  C   UNL     1      44.193   9.200  19.861  0.00  0.00    +0.000 A 
ATOM      7  C   UNL     1      45.416   9.227  20.714  0.00  0.00    +0.000 A 
ATOM      8  C   UNL     1      47.252   7.874  21.746  0.00  0.00    +0.000 A 
ATOM      9  C   UNL     1      46.170   5.565  20.615  0.00  0.00    +0.000 A 
ATOM     10  C   UNL     1      47.321   5.499  21.394  0.00  0.00    +0.000 A 
ATOM     11  C   UNL     1      47.868   6.644  21.963  0.00  0.00    +0.000 A 
ENDROOT
BRANCH   5  12
ATOM     12  C   UNL     1      42.615   7.838  18.509  0.00  0.00    +0.000 A 
ATOM     13  C   UNL     1      42.752   7.693  17.125  0.00  0.00    +0.000 A 
ATOM     14  C   UNL     1      41.340   7.759  19.084  0.00  0.00    +0.000 A 
ATOM     15  C   UNL     1      41.625   7.497  16.337  0.00  0.00    +0.000 A 
ATOM     16  C   UNL     1      40.212   7.546  18.292  0.00  0.00    +0.000 A 
ATOM     17  C   UNL     1      40.366   7.399  16.921  0.00  0.00    +0.000 A 
BRANCH  15  18
ATOM     18  O   UNL     1      41.773   7.440  14.982  0.00  0.00    +0.000 OA
ATOM     19  H   UNL     1      41.974   6.513  14.755  0.00  0.00    +0.000 HD
ENDBRANCH  15  18
BRANCH  17  20
ATOM     20  O   UNL     1      39.269   7.134  16.155  0.00  0.00    +0.000 OA
ATOM     21  H   UNL     1      39.197   6.163  16.099  0.00  0.00    +0.000 HD
ENDBRANCH  17  20
ENDBRANCH   5  12
BRANCH   6  22
ATOM     22  O   UNL     1      43.552  10.406  19.652  0.00  0.00    +0.000 OA
ATOM     23  H   UNL     1      43.040  10.375  18.828  0.00  0.00    +0.000 HD
ENDBRANCH   6  22
BRANCH   8  24
ATOM     24  O   UNL     1      47.833   8.966  22.331  0.00  0.00    +0.000 OA
ATOM     25  H   UNL     1      47.130   9.481  22.790  0.00  0.00    +0.000 HD
ENDBRANCH   8  24
BRANCH  10  26
ATOM     26  O   UNL     1      47.902   4.280  21.589  0.00  0.00    +0.000 OA
ATOM     27  H   UNL     1      48.863   4.414  21.678  0.00  0.00    +0.000 HD
ENDBRANCH  10  26
TORSDOF 6
ENDMDL
