MODEL 1
REMARK VINA RESULT:      -9.3      0.000      0.000
REMARK  Name = 
REMARK  11 active torsions:
REMARK  status: ('A' for Active; 'I' for Inactive)
REMARK    1  A    between atoms: O_2  and  C_16
REMARK    2  A    between atoms: O_2  and  C_18
REMARK    3  A    between atoms: O_3  and  C_12
REMARK    4  A    between atoms: O_4  and  C_13
REMARK    5  A    between atoms: O_5  and  C_14
REMARK    6  A    between atoms: O_8  and  C_24
REMARK    7  A    between atoms: O_9  and  C_29
REMARK    8  A    between atoms: O_10  and  C_30
REMARK    9  A    between atoms: O_11  and  C_32
REMARK   10  A    between atoms: C_15  and  C_17
REMARK   11  A    between atoms: C_19  and  C_23
REMARK                            x       y       z     vdW  Elec       q    Type
REMARK                         _______ _______ _______ _____ _____    ______ ____
ROOT
ATOM      1  O   UNL     1      36.326   0.588  12.177  0.00  0.00    +0.000 OA
ATOM      2  O   UNL     1      39.504   2.766  13.450  0.00  0.00    +0.000 OA
ATOM      3  C   UNL     1      37.431   1.764  13.975  0.00  0.00    +0.000 A 
ATOM      4  C   UNL     1      36.466   0.949  13.504  0.00  0.00    +0.000 A 
ATOM      5  C   UNL     1      38.491   2.220  13.030  0.00  0.00    +0.000 A 
ATOM      6  C   UNL     1      38.262   1.945  11.593  0.00  0.00    +0.000 A 
ATOM      7  C   UNL     1      37.185   1.125  11.255  0.00  0.00    +0.000 A 
ATOM      8  C   UNL     1      39.078   2.452  10.572  0.00  0.00    +0.000 A 
ATOM      9  C   UNL     1      36.927   0.803   9.920  0.00  0.00    +0.000 A 
ATOM     10  C   UNL     1      38.823   2.136   9.233  0.00  0.00    +0.000 A 
ATOM     11  C   UNL     1      37.748   1.310   8.922  0.00  0.00    +0.000 A 
ENDROOT
BRANCH   4  12
ATOM     12  C   UNL     1      35.416   0.369  14.368  0.00  0.00    +0.000 A 
ATOM     13  C   UNL     1      35.758  -0.618  15.309  0.00  0.00    +0.000 A 
ATOM     14  C   UNL     1      34.077   0.790  14.273  0.00  0.00    +0.000 A 
ATOM     15  C   UNL     1      34.769  -1.179  16.109  0.00  0.00    +0.000 A 
ATOM     16  C   UNL     1      33.090   0.218  15.078  0.00  0.00    +0.000 A 
ATOM     17  C   UNL     1      33.446  -0.766  15.986  0.00  0.00    +0.000 A 
BRANCH  15  18
ATOM     18  O   UNL     1      35.049  -2.149  17.032  0.00  0.00    +0.000 OA
ATOM     19  H   UNL     1      34.477  -2.916  16.856  0.00  0.00    +0.000 HD
ENDBRANCH  15  18
BRANCH  17  20
ATOM     20  O   UNL     1      32.480  -1.328  16.770  0.00  0.00    +0.000 OA
ATOM     21  H   UNL     1      32.815  -1.235  17.685  0.00  0.00    +0.000 HD
ENDBRANCH  17  20
ENDBRANCH   4  12
BRANCH   8  22
ATOM     22  O   UNL     1      40.124   3.281  10.860  0.00  0.00    +0.000 OA
ATOM     23  H   UNL     1      40.952   2.946  10.483  0.00  0.00    +0.000 HD
ENDBRANCH   8  22
BRANCH  11  24
ATOM     24  O   UNL     1      37.457   0.972   7.634  0.00  0.00    +0.000 OA
ATOM     25  H   UNL     1      36.714   1.512   7.317  0.00  0.00    +0.000 HD
ENDBRANCH  11  24
BRANCH   3  26
ATOM     26  O   UNL     1      37.559   2.120  15.309  0.00  0.00    +0.000 OA
BRANCH  26  32
ATOM     27  O   UNL     1      37.458   4.430  15.935  0.00  0.00    +0.000 OA
ATOM     28  C   UNL     1      36.562   2.773  18.119  0.00  0.00    +0.000 C 
ATOM     29  C   UNL     1      37.350   4.067  18.353  0.00  0.00    +0.000 C 
ATOM     30  C   UNL     1      35.786   2.835  16.802  0.00  0.00    +0.000 C 
ATOM     31  C   UNL     1      38.240   4.344  17.136  0.00  0.00    +0.000 C 
ATOM     32  C   UNL     1      36.723   3.238  15.641  0.00  0.00    +0.000 C 
ATOM     33  C   UNL     1      38.996   5.660  17.280  0.00  0.00    +0.000 C 
BRANCH  28  34
ATOM     34  O   UNL     1      35.652   2.588  19.219  0.00  0.00    +0.000 OA
ATOM     35  H   UNL     1      34.774   2.840  18.863  0.00  0.00    +0.000 HD
ENDBRANCH  28  34
BRANCH  29  36
ATOM     36  O   UNL     1      38.121   3.932  19.551  0.00  0.00    +0.000 OA
ATOM     37  H   UNL     1      38.390   2.993  19.583  0.00  0.00    +0.000 HD
ENDBRANCH  29  36
BRANCH  30  38
ATOM     38  O   UNL     1      34.707   3.777  16.982  0.00  0.00    +0.000 OA
ATOM     39  H   UNL     1      34.360   3.653  17.885  0.00  0.00    +0.000 HD
ENDBRANCH  30  38
ENDBRANCH  26  32
ENDBRANCH   3  26
TORSDOF 10
ENDMDL
MODEL 2
REMARK VINA RESULT:      -8.6      1.894      6.327
REMARK  Name = 
REMARK  11 active torsions:
REMARK  status: ('A' for Active; 'I' for Inactive)
REMARK    1  A    between atoms: O_2  and  C_16
REMARK    2  A    between atoms: O_2  and  C_18
REMARK    3  A    between atoms: O_3  and  C_12
REMARK    4  A    between atoms: O_4  and  C_13
REMARK    5  A    between atoms: O_5  and  C_14
REMARK    6  A    between atoms: O_8  and  C_24
REMARK    7  A    between atoms: O_9  and  C_29
REMARK    8  A    between atoms: O_10  and  C_30
REMARK    9  A    between atoms: O_11  and  C_32
REMARK   10  A    between atoms: C_15  and  C_17
REMARK   11  A    between atoms: C_19  and  C_23
REMARK                            x       y       z     vdW  Elec       q    Type
REMARK                         _______ _______ _______ _____ _____    ______ ____
ROOT
ATOM      1  O   UNL     1      37.693   3.692  15.570  0.00  0.00    +0.000 OA
ATOM      2  O   UNL     1      39.263   4.685  11.962  0.00  0.00    +0.000 OA
ATOM      3  C   UNL     1      37.816   3.281  13.192  0.00  0.00    +0.000 A 
ATOM      4  C   UNL     1      37.262   3.084  14.406  0.00  0.00    +0.000 A 
ATOM      5  C   UNL     1      38.891   4.308  13.067  0.00  0.00    +0.000 A 
ATOM      6  C   UNL     1      39.438   4.853  14.330  0.00  0.00    +0.000 A 
ATOM      7  C   UNL     1      38.788   4.514  15.517  0.00  0.00    +0.000 A 
ATOM      8  C   UNL     1      40.557   5.696  14.385  0.00  0.00    +0.000 A 
ATOM      9  C   UNL     1      39.236   5.014  16.742  0.00  0.00    +0.000 A 
ATOM     10  C   UNL     1      41.013   6.198  15.609  0.00  0.00    +0.000 A 
ATOM     11  C   UNL     1      40.343   5.851  16.778  0.00  0.00    +0.000 A 
ENDROOT
BRANCH   4  12
ATOM     12  C   UNL     1      36.134   2.156  14.629  0.00  0.00    +0.000 A 
ATOM     13  C   UNL     1      36.393   0.810  14.940  0.00  0.00    +0.000 A 
ATOM     14  C   UNL     1      34.800   2.595  14.544  0.00  0.00    +0.000 A 
ATOM     15  C   UNL     1      35.334  -0.070  15.132  0.00  0.00    +0.000 A 
ATOM     16  C   UNL     1      33.742   1.703  14.734  0.00  0.00    +0.000 A 
ATOM     17  C   UNL     1      34.020   0.377  15.022  0.00  0.00    +0.000 A 
BRANCH  15  18
ATOM     18  O   UNL     1      35.533  -1.390  15.427  0.00  0.00    +0.000 OA
ATOM     19  H   UNL     1      36.461  -1.510  15.691  0.00  0.00    +0.000 HD
ENDBRANCH  15  18
BRANCH  17  20
ATOM     20  O   UNL     1      32.986  -0.494  15.204  0.00  0.00    +0.000 OA
ATOM     21  H   UNL     1      32.746  -0.406  16.148  0.00  0.00    +0.000 HD
ENDBRANCH  17  20
ENDBRANCH   4  12
BRANCH   8  22
ATOM     22  O   UNL     1      41.238   6.027  13.248  0.00  0.00    +0.000 OA
ATOM     23  H   UNL     1      41.598   5.238  12.813  0.00  0.00    +0.000 HD
ENDBRANCH   8  22
BRANCH  11  24
ATOM     24  O   UNL     1      40.745   6.313  17.995  0.00  0.00    +0.000 OA
ATOM     25  H   UNL     1      40.824   5.569  18.614  0.00  0.00    +0.000 HD
ENDBRANCH  11  24
BRANCH   3  26
ATOM     26  O   UNL     1      37.375   2.664  12.032  0.00  0.00    +0.000 OA
BRANCH  26  32
ATOM     27  O   UNL     1      39.257   1.722  10.888  0.00  0.00    +0.000 OA
ATOM     28  C   UNL     1      36.805   0.756   9.719  0.00  0.00    +0.000 C 
ATOM     29  C   UNL     1      38.052   1.033   8.872  0.00  0.00    +0.000 C 
ATOM     30  C   UNL     1      37.186   0.409  11.158  0.00  0.00    +0.000 C 
ATOM     31  C   UNL     1      38.896   2.116   9.555  0.00  0.00    +0.000 C 
ATOM     32  C   UNL     1      38.134   1.481  11.740  0.00  0.00    +0.000 C 
ATOM     33  C   UNL     1      40.190   2.383   8.795  0.00  0.00    +0.000 C 
BRANCH  28  34
ATOM     34  O   UNL     1      36.082  -0.338   9.122  0.00  0.00    +0.000 OA
ATOM     35  H   UNL     1      35.590   0.064   8.376  0.00  0.00    +0.000 HD
ENDBRANCH  28  34
BRANCH  29  36
ATOM     36  O   UNL     1      37.645   1.431   7.559  0.00  0.00    +0.000 OA
ATOM     37  H   UNL     1      36.673   1.524   7.605  0.00  0.00    +0.000 HD
ENDBRANCH  29  36
BRANCH  30  38
ATOM     38  O   UNL     1      37.792  -0.902  11.140  0.00  0.00    +0.000 OA
ATOM     39  H   UNL     1      37.128  -1.524  10.791  0.00  0.00    +0.000 HD
ENDBRANCH  30  38
ENDBRANCH  26  32
ENDBRANCH   3  26
TORSDOF 10
ENDMDL
MODEL 3
REMARK VINA RESULT:      -8.1      1.995      6.793
REMARK  Name = 
REMARK  11 active torsions:
REMARK  status: ('A' for Active; 'I' for Inactive)
REMARK    1  A    between atoms: O_2  and  C_16
REMARK    2  A    between atoms: O_2  and  C_18
REMARK    3  A    between atoms: O_3  and  C_12
REMARK    4  A    between atoms: O_4  and  C_13
REMARK    5  A    between atoms: O_5  and  C_14
REMARK    6  A    between atoms: O_8  and  C_24
REMARK    7  A    between atoms: O_9  and  C_29
REMARK    8  A    between atoms: O_10  and  C_30
REMARK    9  A    between atoms: O_11  and  C_32
REMARK   10  A    between atoms: C_15  and  C_17
REMARK   11  A    between atoms: C_19  and  C_23
REMARK                            x       y       z     vdW  Elec       q    Type
REMARK                         _______ _______ _______ _____ _____    ______ ____
ROOT
ATOM      1  O   UNL     1      35.936   0.395  13.236  0.00  0.00    +0.000 OA
ATOM      2  O   UNL     1      37.694   3.529  15.121  0.00  0.00    +0.000 OA
ATOM      3  C   UNL     1      37.726   2.016  13.308  0.00  0.00    +0.000 A 
ATOM      4  C   UNL     1      37.025   1.046  12.688  0.00  0.00    +0.000 A 
ATOM      5  C   UNL     1      37.234   2.506  14.629  0.00  0.00    +0.000 A 
ATOM      6  C   UNL     1      36.156   1.718  15.269  0.00  0.00    +0.000 A 
ATOM      7  C   UNL     1      35.560   0.705  14.517  0.00  0.00    +0.000 A 
ATOM      8  C   UNL     1      35.704   1.951  16.575  0.00  0.00    +0.000 A 
ATOM      9  C   UNL     1      34.520  -0.059  15.050  0.00  0.00    +0.000 A 
ATOM     10  C   UNL     1      34.665   1.186  17.117  0.00  0.00    +0.000 A 
ATOM     11  C   UNL     1      34.081   0.187  16.344  0.00  0.00    +0.000 A 
ENDROOT
BRANCH   4  12
ATOM     12  C   UNL     1      37.372   0.545  11.341  0.00  0.00    +0.000 A 
ATOM     13  C   UNL     1      38.366  -0.438  11.200  0.00  0.00    +0.000 A 
ATOM     14  C   UNL     1      36.719   1.029  10.192  0.00  0.00    +0.000 A 
ATOM     15  C   UNL     1      38.707  -0.897   9.933  0.00  0.00    +0.000 A 
ATOM     16  C   UNL     1      37.071   0.565   8.923  0.00  0.00    +0.000 A 
ATOM     17  C   UNL     1      38.066  -0.391   8.805  0.00  0.00    +0.000 A 
BRANCH  15  18
ATOM     18  O   UNL     1      39.674  -1.845   9.742  0.00  0.00    +0.000 OA
ATOM     19  H   UNL     1      39.569  -2.533  10.422  0.00  0.00    +0.000 HD
ENDBRANCH  15  18
BRANCH  17  20
ATOM     20  O   UNL     1      38.413  -0.841   7.564  0.00  0.00    +0.000 OA
ATOM     21  H   UNL     1      39.273  -0.415   7.375  0.00  0.00    +0.000 HD
ENDBRANCH  17  20
ENDBRANCH   4  12
BRANCH   8  22
ATOM     22  O   UNL     1      36.282   2.913  17.353  0.00  0.00    +0.000 OA
ATOM     23  H   UNL     1      36.639   3.634  16.812  0.00  0.00    +0.000 HD
ENDBRANCH   8  22
BRANCH  11  24
ATOM     24  O   UNL     1      33.066  -0.585  16.823  0.00  0.00    +0.000 OA
ATOM     25  H   UNL     1      33.359  -1.510  16.875  0.00  0.00    +0.000 HD
ENDBRANCH  11  24
BRANCH   3  26
ATOM     26  O   UNL     1      38.818   2.660  12.747  0.00  0.00    +0.000 OA
BRANCH  26  32
ATOM     27  O   UNL     1      38.595   3.587  10.550  0.00  0.00    +0.000 OA
ATOM     28  C   UNL     1      40.632   5.004  12.018  0.00  0.00    +0.000 C 
ATOM     29  C   UNL     1      40.747   4.753  10.511  0.00  0.00    +0.000 C 
ATOM     30  C   UNL     1      39.168   5.043  12.458  0.00  0.00    +0.000 C 
ATOM     31  C   UNL     1      39.970   3.481  10.150  0.00  0.00    +0.000 C 
ATOM     32  C   UNL     1      38.419   3.788  11.955  0.00  0.00    +0.000 C 
ATOM     33  C   UNL     1      39.986   3.220   8.648  0.00  0.00    +0.000 C 
BRANCH  28  34
ATOM     34  O   UNL     1      41.271   6.259  12.322  0.00  0.00    +0.000 OA
ATOM     35  H   UNL     1      42.184   6.017  12.586  0.00  0.00    +0.000 HD
ENDBRANCH  28  34
BRANCH  29  36
ATOM     36  O   UNL     1      42.129   4.645  10.160  0.00  0.00    +0.000 OA
ATOM     37  H   UNL     1      42.416   3.773  10.497  0.00  0.00    +0.000 HD
ENDBRANCH  29  36
BRANCH  30  38
ATOM     38  O   UNL     1      38.594   6.263  11.940  0.00  0.00    +0.000 OA
ATOM     39  H   UNL     1      39.279   6.699  11.400  0.00  0.00    +0.000 HD
ENDBRANCH  30  38
ENDBRANCH  26  32
ENDBRANCH   3  26
TORSDOF 10
ENDMDL
MODEL 4
REMARK VINA RESULT:      -8.0      2.025      6.482
REMARK  Name = 
REMARK  11 active torsions:
REMARK  status: ('A' for Active; 'I' for Inactive)
REMARK    1  A    between atoms: O_2  and  C_16
REMARK    2  A    between atoms: O_2  and  C_18
REMARK    3  A    between atoms: O_3  and  C_12
REMARK    4  A    between atoms: O_4  and  C_13
REMARK    5  A    between atoms: O_5  and  C_14
REMARK    6  A    between atoms: O_8  and  C_24
REMARK    7  A    between atoms: O_9  and  C_29
REMARK    8  A    between atoms: O_10  and  C_30
REMARK    9  A    between atoms: O_11  and  C_32
REMARK   10  A    between atoms: C_15  and  C_17
REMARK   11  A    between atoms: C_19  and  C_23
REMARK                            x       y       z     vdW  Elec       q    Type
REMARK                         _______ _______ _______ _____ _____    ______ ____
ROOT
ATOM      1  O   UNL     1      35.931   0.341  13.538  0.00  0.00    +0.000 OA
ATOM      2  O   UNL     1      37.253   3.679  15.430  0.00  0.00    +0.000 OA
ATOM      3  C   UNL     1      37.438   2.229  13.575  0.00  0.00    +0.000 A 
ATOM      4  C   UNL     1      36.873   1.172  12.959  0.00  0.00    +0.000 A 
ATOM      5  C   UNL     1      36.939   2.606  14.930  0.00  0.00    +0.000 A 
ATOM      6  C   UNL     1      36.035   1.640  15.595  0.00  0.00    +0.000 A 
ATOM      7  C   UNL     1      35.573   0.560  14.842  0.00  0.00    +0.000 A 
ATOM      8  C   UNL     1      35.616   1.770  16.927  0.00  0.00    +0.000 A 
ATOM      9  C   UNL     1      34.698  -0.374  15.400  0.00  0.00    +0.000 A 
ATOM     10  C   UNL     1      34.741   0.836  17.493  0.00  0.00    +0.000 A 
ATOM     11  C   UNL     1      34.289  -0.228  16.719  0.00  0.00    +0.000 A 
ENDROOT
BRANCH   4  12
ATOM     12  C   UNL     1      37.229   0.761  11.585  0.00  0.00    +0.000 A 
ATOM     13  C   UNL     1      37.986  -0.405  11.382  0.00  0.00    +0.000 A 
ATOM     14  C   UNL     1      36.817   1.513  10.469  0.00  0.00    +0.000 A 
ATOM     15  C   UNL     1      38.338  -0.783  10.091  0.00  0.00    +0.000 A 
ATOM     16  C   UNL     1      37.179   1.129   9.176  0.00  0.00    +0.000 A 
ATOM     17  C   UNL     1      37.941  -0.014   9.000  0.00  0.00    +0.000 A 
BRANCH  15  18
ATOM     18  O   UNL     1      39.082  -1.903   9.842  0.00  0.00    +0.000 OA
ATOM     19  H   UNL     1      39.260  -2.349  10.688  0.00  0.00    +0.000 HD
ENDBRANCH  15  18
BRANCH  17  20
ATOM     20  O   UNL     1      38.298  -0.387   7.737  0.00  0.00    +0.000 OA
ATOM     21  H   UNL     1      38.048   0.372   7.172  0.00  0.00    +0.000 HD
ENDBRANCH  17  20
ENDBRANCH   4  12
BRANCH   8  22
ATOM     22  O   UNL     1      36.069   2.796  17.705  0.00  0.00    +0.000 OA
ATOM     23  H   UNL     1      36.064   2.553  18.644  0.00  0.00    +0.000 HD
ENDBRANCH   8  22
BRANCH  11  24
ATOM     24  O   UNL     1      33.436  -1.164  17.221  0.00  0.00    +0.000 OA
ATOM     25  H   UNL     1      33.518  -1.986  16.709  0.00  0.00    +0.000 HD
ENDBRANCH  11  24
BRANCH   3  26
ATOM     26  O   UNL     1      38.384   3.053  12.984  0.00  0.00    +0.000 OA
BRANCH  26  32
ATOM     27  O   UNL     1      40.285   3.100  14.441  0.00  0.00    +0.000 OA
ATOM     28  C   UNL     1      40.916   4.408  11.950  0.00  0.00    +0.000 C 
ATOM     29  C   UNL     1      41.486   4.894  13.287  0.00  0.00    +0.000 C 
ATOM     30  C   UNL     1      40.597   2.913  12.000  0.00  0.00    +0.000 C 
ATOM     31  C   UNL     1      40.519   4.517  14.415  0.00  0.00    +0.000 C 
ATOM     32  C   UNL     1      39.720   2.589  13.230  0.00  0.00    +0.000 C 
ATOM     33  C   UNL     1      41.068   4.911  15.781  0.00  0.00    +0.000 C 
BRANCH  28  34
ATOM     34  O   UNL     1      41.886   4.670  10.918  0.00  0.00    +0.000 OA
ATOM     35  H   UNL     1      41.604   4.113  10.162  0.00  0.00    +0.000 HD
ENDBRANCH  28  34
BRANCH  29  36
ATOM     36  O   UNL     1      41.693   6.308  13.219  0.00  0.00    +0.000 OA
ATOM     37  H   UNL     1      42.641   6.442  13.416  0.00  0.00    +0.000 HD
ENDBRANCH  29  36
BRANCH  30  38
ATOM     38  O   UNL     1      41.855   2.204  12.028  0.00  0.00    +0.000 OA
ATOM     39  H   UNL     1      42.319   2.468  12.843  0.00  0.00    +0.000 HD
ENDBRANCH  30  38
ENDBRANCH  26  32
ENDBRANCH   3  26
TORSDOF 10
ENDMDL
MODEL 5
REMARK VINA RESULT:      -7.9      1.940      8.175
REMARK  Name = 
REMARK  11 active torsions:
REMARK  status: ('A' for Active; 'I' for Inactive)
REMARK    1  A    between atoms: O_2  and  C_16
REMARK    2  A    between atoms: O_2  and  C_18
REMARK    3  A    between atoms: O_3  and  C_12
REMARK    4  A    between atoms: O_4  and  C_13
REMARK    5  A    between atoms: O_5  and  C_14
REMARK    6  A    between atoms: O_8  and  C_24
REMARK    7  A    between atoms: O_9  and  C_29
REMARK    8  A    between atoms: O_10  and  C_30
REMARK    9  A    between atoms: O_11  and  C_32
REMARK   10  A    between atoms: C_15  and  C_17
REMARK   11  A    between atoms: C_19  and  C_23
REMARK                            x       y       z     vdW  Elec       q    Type
REMARK                         _______ _______ _______ _____ _____    ______ ____
ROOT
ATOM      1  O   UNL     1      37.874   3.274  15.168  0.00  0.00    +0.000 OA
ATOM      2  O   UNL     1      35.262   0.650  13.509  0.00  0.00    +0.000 OA
ATOM      3  C   UNL     1      36.938   2.280  13.176  0.00  0.00    +0.000 A 
ATOM      4  C   UNL     1      37.850   3.048  13.805  0.00  0.00    +0.000 A 
ATOM      5  C   UNL     1      35.955   1.528  14.008  0.00  0.00    +0.000 A 
ATOM      6  C   UNL     1      35.899   1.877  15.446  0.00  0.00    +0.000 A 
ATOM      7  C   UNL     1      36.883   2.732  15.944  0.00  0.00    +0.000 A 
ATOM      8  C   UNL     1      34.922   1.383  16.322  0.00  0.00    +0.000 A 
ATOM      9  C   UNL     1      36.905   3.082  17.296  0.00  0.00    +0.000 A 
ATOM     10  C   UNL     1      34.936   1.732  17.676  0.00  0.00    +0.000 A 
ATOM     11  C   UNL     1      35.933   2.579  18.150  0.00  0.00    +0.000 A 
ENDROOT
BRANCH   4  12
ATOM     12  C   UNL     1      38.922   3.769  13.087  0.00  0.00    +0.000 A 
ATOM     13  C   UNL     1      38.608   4.918  12.341  0.00  0.00    +0.000 A 
ATOM     14  C   UNL     1      40.258   3.330  13.140  0.00  0.00    +0.000 A 
ATOM     15  C   UNL     1      39.612   5.586  11.649  0.00  0.00    +0.000 A 
ATOM     16  C   UNL     1      41.259   4.005  12.438  0.00  0.00    +0.000 A 
ATOM     17  C   UNL     1      40.924   5.125  11.695  0.00  0.00    +0.000 A 
BRANCH  15  18
ATOM     18  O   UNL     1      39.356   6.702  10.901  0.00  0.00    +0.000 OA
ATOM     19  H   UNL     1      39.445   7.484  11.475  0.00  0.00    +0.000 HD
ENDBRANCH  15  18
BRANCH  17  20
ATOM     20  O   UNL     1      41.902   5.782  11.006  0.00  0.00    +0.000 OA
ATOM     21  H   UNL     1      42.584   5.102  10.829  0.00  0.00    +0.000 HD
ENDBRANCH  17  20
ENDBRANCH   4  12
BRANCH   8  22
ATOM     22  O   UNL     1      33.925   0.568  15.867  0.00  0.00    +0.000 OA
ATOM     23  H   UNL     1      34.087   0.293  14.951  0.00  0.00    +0.000 HD
ENDBRANCH   8  22
BRANCH  11  24
ATOM     24  O   UNL     1      35.992   2.950  19.460  0.00  0.00    +0.000 OA
ATOM     25  H   UNL     1      36.064   3.917  19.521  0.00  0.00    +0.000 HD
ENDBRANCH  11  24
BRANCH   3  26
ATOM     26  O   UNL     1      36.923   2.063  11.806  0.00  0.00    +0.000 OA
BRANCH  26  32
ATOM     27  O   UNL     1      38.986   1.311  10.850  0.00  0.00    +0.000 OA
ATOM     28  C   UNL     1      36.785   0.619   9.121  0.00  0.00    +0.000 C 
ATOM     29  C   UNL     1      38.155   1.022   8.566  0.00  0.00    +0.000 C 
ATOM     30  C   UNL     1      36.917   0.008  10.517  0.00  0.00    +0.000 C 
ATOM     31  C   UNL     1      38.854   1.947   9.569  0.00  0.00    +0.000 C 
ATOM     32  C   UNL     1      37.737   0.940  11.438  0.00  0.00    +0.000 C 
ATOM     33  C   UNL     1      40.256   2.324   9.103  0.00  0.00    +0.000 C 
BRANCH  28  34
ATOM     34  O   UNL     1      36.190  -0.336   8.221  0.00  0.00    +0.000 OA
ATOM     35  H   UNL     1      35.252  -0.060   8.147  0.00  0.00    +0.000 HD
ENDBRANCH  28  34
BRANCH  29  36
ATOM     36  O   UNL     1      37.975   1.660   7.297  0.00  0.00    +0.000 OA
ATOM     37  H   UNL     1      38.796   1.482   6.798  0.00  0.00    +0.000 HD
ENDBRANCH  29  36
BRANCH  30  38
ATOM     38  O   UNL     1      37.536  -1.287  10.365  0.00  0.00    +0.000 OA
ATOM     39  H   UNL     1      38.187  -1.385  11.083  0.00  0.00    +0.000 HD
ENDBRANCH  30  38
ENDBRANCH  26  32
ENDBRANCH   3  26
TORSDOF 10
ENDMDL
MODEL 6
REMARK VINA RESULT:      -7.6      2.482      8.445
REMARK  Name = 
REMARK  11 active torsions:
REMARK  status: ('A' for Active; 'I' for Inactive)
REMARK    1  A    between atoms: O_2  and  C_16
REMARK    2  A    between atoms: O_2  and  C_18
REMARK    3  A    between atoms: O_3  and  C_12
REMARK    4  A    between atoms: O_4  and  C_13
REMARK    5  A    between atoms: O_5  and  C_14
REMARK    6  A    between atoms: O_8  and  C_24
REMARK    7  A    between atoms: O_9  and  C_29
REMARK    8  A    between atoms: O_10  and  C_30
REMARK    9  A    between atoms: O_11  and  C_32
REMARK   10  A    between atoms: C_15  and  C_17
REMARK   11  A    between atoms: C_19  and  C_23
REMARK                            x       y       z     vdW  Elec       q    Type
REMARK                         _______ _______ _______ _____ _____    ______ ____
ROOT
ATOM      1  O   UNL     1      38.030   3.378  14.469  0.00  0.00    +0.000 OA
ATOM      2  O   UNL     1      37.827  -0.476  13.215  0.00  0.00    +0.000 OA
ATOM      3  C   UNL     1      38.624   1.713  12.823  0.00  0.00    +0.000 A 
ATOM      4  C   UNL     1      38.733   2.944  13.361  0.00  0.00    +0.000 A 
ATOM      5  C   UNL     1      37.778   0.707  13.530  0.00  0.00    +0.000 A 
ATOM      6  C   UNL     1      36.927   1.213  14.631  0.00  0.00    +0.000 A 
ATOM      7  C   UNL     1      37.118   2.532  15.043  0.00  0.00    +0.000 A 
ATOM      8  C   UNL     1      35.960   0.431  15.278  0.00  0.00    +0.000 A 
ATOM      9  C   UNL     1      36.367   3.066  16.093  0.00  0.00    +0.000 A 
ATOM     10  C   UNL     1      35.202   0.961  16.329  0.00  0.00    +0.000 A 
ATOM     11  C   UNL     1      35.417   2.276  16.727  0.00  0.00    +0.000 A 
ENDROOT
BRANCH   4  12
ATOM     12  C   UNL     1      39.609   3.990  12.794  0.00  0.00    +0.000 A 
ATOM     13  C   UNL     1      39.053   5.005  11.997  0.00  0.00    +0.000 A 
ATOM     14  C   UNL     1      40.994   3.995  13.042  0.00  0.00    +0.000 A 
ATOM     15  C   UNL     1      39.878   5.980  11.446  0.00  0.00    +0.000 A 
ATOM     16  C   UNL     1      41.816   4.976  12.481  0.00  0.00    +0.000 A 
ATOM     17  C   UNL     1      41.249   5.957  11.684  0.00  0.00    +0.000 A 
BRANCH  15  18
ATOM     18  O   UNL     1      39.387   6.983  10.657  0.00  0.00    +0.000 OA
ATOM     19  H   UNL     1      38.852   7.577  11.211  0.00  0.00    +0.000 HD
ENDBRANCH  15  18
BRANCH  17  20
ATOM     20  O   UNL     1      42.053   6.912  11.133  0.00  0.00    +0.000 OA
ATOM     21  H   UNL     1      41.892   7.715  11.670  0.00  0.00    +0.000 HD
ENDBRANCH  17  20
ENDBRANCH   4  12
BRANCH   8  22
ATOM     22  O   UNL     1      35.723  -0.854  14.884  0.00  0.00    +0.000 OA
ATOM     23  H   UNL     1      35.707  -1.457  15.644  0.00  0.00    +0.000 HD
ENDBRANCH   8  22
BRANCH  11  24
ATOM     24  O   UNL     1      34.706   2.840  17.744  0.00  0.00    +0.000 OA
ATOM     25  H   UNL     1      33.756   2.716  17.583  0.00  0.00    +0.000 HD
ENDBRANCH  11  24
BRANCH   3  26
ATOM     26  O   UNL     1      39.334   1.290  11.709  0.00  0.00    +0.000 OA
BRANCH  26  32
ATOM     27  O   UNL     1      37.782   0.557  10.038  0.00  0.00    +0.000 OA
ATOM     28  C   UNL     1      40.426   0.770   8.907  0.00  0.00    +0.000 C 
ATOM     29  C   UNL     1      39.444  -0.322   8.470  0.00  0.00    +0.000 C 
ATOM     30  C   UNL     1      39.682   2.005   9.418  0.00  0.00    +0.000 C 
ATOM     31  C   UNL     1      38.482  -0.627   9.624  0.00  0.00    +0.000 C 
ATOM     32  C   UNL     1      38.644   1.605  10.491  0.00  0.00    +0.000 C 
ATOM     33  C   UNL     1      37.431  -1.657   9.223  0.00  0.00    +0.000 C 
BRANCH  28  34
ATOM     34  O   UNL     1      41.249   1.123   7.778  0.00  0.00    +0.000 OA
ATOM     35  H   UNL     1      40.967   2.030   7.537  0.00  0.00    +0.000 HD
ENDBRANCH  28  34
BRANCH  29  36
ATOM     36  O   UNL     1      40.182  -1.483   8.078  0.00  0.00    +0.000 OA
ATOM     37  H   UNL     1      40.085  -2.115   8.818  0.00  0.00    +0.000 HD
ENDBRANCH  29  36
BRANCH  30  38
ATOM     38  O   UNL     1      39.067   2.640   8.276  0.00  0.00    +0.000 OA
ATOM     39  H   UNL     1      38.257   3.081   8.591  0.00  0.00    +0.000 HD
ENDBRANCH  30  38
ENDBRANCH  26  32
ENDBRANCH   3  26
TORSDOF 10
ENDMDL
MODEL 7
REMARK VINA RESULT:      -7.5     17.945     21.158
REMARK  Name = 
REMARK  11 active torsions:
REMARK  status: ('A' for Active; 'I' for Inactive)
REMARK    1  A    between atoms: O_2  and  C_16
REMARK    2  A    between atoms: O_2  and  C_18
REMARK    3  A    between atoms: O_3  and  C_12
REMARK    4  A    between atoms: O_4  and  C_13
REMARK    5  A    between atoms: O_5  and  C_14
REMARK    6  A    between atoms: O_8  and  C_24
REMARK    7  A    between atoms: O_9  and  C_29
REMARK    8  A    between atoms: O_10  and  C_30
REMARK    9  A    between atoms: O_11  and  C_32
REMARK   10  A    between atoms: C_15  and  C_17
REMARK   11  A    between atoms: C_19  and  C_23
REMARK                            x       y       z     vdW  Elec       q    Type
REMARK                         _______ _______ _______ _____ _____    ______ ____
ROOT
ATOM      1  O   UNL     1      19.795   6.756  18.733  0.00  0.00    +0.000 OA
ATOM      2  O   UNL     1      17.576   9.902  20.014  0.00  0.00    +0.000 OA
ATOM      3  C   UNL     1      17.716   7.573  19.651  0.00  0.00    +0.000 A 
ATOM      4  C   UNL     1      18.552   6.573  19.309  0.00  0.00    +0.000 A 
ATOM      5  C   UNL     1      18.200   8.977  19.509  0.00  0.00    +0.000 A 
ATOM      6  C   UNL     1      19.469   9.169  18.770  0.00  0.00    +0.000 A 
ATOM      7  C   UNL     1      20.201   8.030  18.434  0.00  0.00    +0.000 A 
ATOM      8  C   UNL     1      19.967  10.429  18.410  0.00  0.00    +0.000 A 
ATOM      9  C   UNL     1      21.419   8.141  17.760  0.00  0.00    +0.000 A 
ATOM     10  C   UNL     1      21.185  10.547  17.732  0.00  0.00    +0.000 A 
ATOM     11  C   UNL     1      21.901   9.396  17.415  0.00  0.00    +0.000 A 
ENDROOT
BRANCH   4  12
ATOM     12  C   UNL     1      18.210   5.146  19.488  0.00  0.00    +0.000 A 
ATOM     13  C   UNL     1      17.971   4.342  18.361  0.00  0.00    +0.000 A 
ATOM     14  C   UNL     1      18.125   4.572  20.770  0.00  0.00    +0.000 A 
ATOM     15  C   UNL     1      17.630   3.005  18.528  0.00  0.00    +0.000 A 
ATOM     16  C   UNL     1      17.778   3.229  20.928  0.00  0.00    +0.000 A 
ATOM     17  C   UNL     1      17.530   2.459  19.804  0.00  0.00    +0.000 A 
BRANCH  15  18
ATOM     18  O   UNL     1      17.379   2.183  17.464  0.00  0.00    +0.000 OA
ATOM     19  H   UNL     1      17.226   2.736  16.677  0.00  0.00    +0.000 HD
ENDBRANCH  15  18
BRANCH  17  20
ATOM     20  O   UNL     1      17.186   1.147  19.960  0.00  0.00    +0.000 OA
ATOM     21  H   UNL     1      16.877   1.077  20.886  0.00  0.00    +0.000 HD
ENDBRANCH  17  20
ENDBRANCH   4  12
BRANCH   8  22
ATOM     22  O   UNL     1      19.266  11.565  18.695  0.00  0.00    +0.000 OA
ATOM     23  H   UNL     1      18.377  11.535  18.307  0.00  0.00    +0.000 HD
ENDBRANCH   8  22
BRANCH  11  24
ATOM     24  O   UNL     1      23.092   9.455  16.756  0.00  0.00    +0.000 OA
ATOM     25  H   UNL     1      23.465   8.562  16.679  0.00  0.00    +0.000 HD
ENDBRANCH  11  24
BRANCH   3  26
ATOM     26  O   UNL     1      16.470   7.376  20.227  0.00  0.00    +0.000 OA
BRANCH  26  32
ATOM     27  O   UNL     1      14.461   8.660  19.997  0.00  0.00    +0.000 OA
ATOM     28  C   UNL     1      13.867   5.847  19.774  0.00  0.00    +0.000 C 
ATOM     29  C   UNL     1      12.898   6.830  20.442  0.00  0.00    +0.000 C 
ATOM     30  C   UNL     1      14.739   6.557  18.738  0.00  0.00    +0.000 C 
ATOM     31  C   UNL     1      13.691   8.008  21.019  0.00  0.00    +0.000 C 
ATOM     32  C   UNL     1      15.411   7.802  19.358  0.00  0.00    +0.000 C 
ATOM     33  C   UNL     1      12.772   9.057  21.633  0.00  0.00    +0.000 C 
BRANCH  28  34
ATOM     34  O   UNL     1      13.098   4.806  19.142  0.00  0.00    +0.000 OA
ATOM     35  H   UNL     1      13.590   4.595  18.321  0.00  0.00    +0.000 HD
ENDBRANCH  28  34
BRANCH  29  36
ATOM     36  O   UNL     1      12.162   6.141  21.457  0.00  0.00    +0.000 OA
ATOM     37  H   UNL     1      12.461   5.211  21.409  0.00  0.00    +0.000 HD
ENDBRANCH  29  36
BRANCH  30  38
ATOM     38  O   UNL     1      13.891   6.896  17.620  0.00  0.00    +0.000 OA
ATOM     39  H   UNL     1      14.205   7.748  17.265  0.00  0.00    +0.000 HD
ENDBRANCH  30  38
ENDBRANCH  26  32
ENDBRANCH   3  26
TORSDOF 10
ENDMDL
MODEL 8
REMARK VINA RESULT:      -7.4      2.791      8.297
REMARK  Name = 
REMARK  11 active torsions:
REMARK  status: ('A' for Active; 'I' for Inactive)
REMARK    1  A    between atoms: O_2  and  C_16
REMARK    2  A    between atoms: O_2  and  C_18
REMARK    3  A    between atoms: O_3  and  C_12
REMARK    4  A    between atoms: O_4  and  C_13
REMARK    5  A    between atoms: O_5  and  C_14
REMARK    6  A    between atoms: O_8  and  C_24
REMARK    7  A    between atoms: O_9  and  C_29
REMARK    8  A    between atoms: O_10  and  C_30
REMARK    9  A    between atoms: O_11  and  C_32
REMARK   10  A    between atoms: C_15  and  C_17
REMARK   11  A    between atoms: C_19  and  C_23
REMARK                            x       y       z     vdW  Elec       q    Type
REMARK                         _______ _______ _______ _____ _____    ______ ____
ROOT
ATOM      1  O   UNL     1      37.760   3.324  13.843  0.00  0.00    +0.000 OA
ATOM      2  O   UNL     1      37.726  -0.696  13.292  0.00  0.00    +0.000 OA
ATOM      3  C   UNL     1      38.336   1.429  12.461  0.00  0.00    +0.000 A 
ATOM      4  C   UNL     1      38.401   2.740  12.767  0.00  0.00    +0.000 A 
ATOM      5  C   UNL     1      37.620   0.520  13.402  0.00  0.00    +0.000 A 
ATOM      6  C   UNL     1      36.825   1.165  14.472  0.00  0.00    +0.000 A 
ATOM      7  C   UNL     1      36.956   2.545  14.633  0.00  0.00    +0.000 A 
ATOM      8  C   UNL     1      35.969   0.459  15.328  0.00  0.00    +0.000 A 
ATOM      9  C   UNL     1      36.255   3.213  15.639  0.00  0.00    +0.000 A 
ATOM     10  C   UNL     1      35.261   1.123  16.336  0.00  0.00    +0.000 A 
ATOM     11  C   UNL     1      35.415   2.498  16.482  0.00  0.00    +0.000 A 
ENDROOT
BRANCH   4  12
ATOM     12  C   UNL     1      39.156   3.716  11.953  0.00  0.00    +0.000 A 
ATOM     13  C   UNL     1      38.725   4.011  10.648  0.00  0.00    +0.000 A 
ATOM     14  C   UNL     1      40.296   4.364  12.462  0.00  0.00    +0.000 A 
ATOM     15  C   UNL     1      39.445   4.914   9.873  0.00  0.00    +0.000 A 
ATOM     16  C   UNL     1      41.014   5.267  11.675  0.00  0.00    +0.000 A 
ATOM     17  C   UNL     1      40.583   5.530  10.385  0.00  0.00    +0.000 A 
BRANCH  15  18
ATOM     18  O   UNL     1      39.073   5.228   8.595  0.00  0.00    +0.000 OA
ATOM     19  H   UNL     1      39.851   5.135   8.017  0.00  0.00    +0.000 HD
ENDBRANCH  15  18
BRANCH  17  20
ATOM     20  O   UNL     1      41.288   6.409   9.615  0.00  0.00    +0.000 OA
ATOM     21  H   UNL     1      42.168   5.995   9.505  0.00  0.00    +0.000 HD
ENDBRANCH  17  20
ENDBRANCH   4  12
BRANCH   8  22
ATOM     22  O   UNL     1      35.791  -0.887  15.183  0.00  0.00    +0.000 OA
ATOM     23  H   UNL     1      36.271  -1.380  15.867  0.00  0.00    +0.000 HD
ENDBRANCH   8  22
BRANCH  11  24
ATOM     24  O   UNL     1      34.749   3.192  17.447  0.00  0.00    +0.000 OA
ATOM     25  H   UNL     1      35.370   3.445  18.150  0.00  0.00    +0.000 HD
ENDBRANCH  11  24
BRANCH   3  26
ATOM     26  O   UNL     1      38.983   0.856  11.377  0.00  0.00    +0.000 OA
BRANCH  26  32
ATOM     27  O   UNL     1      41.263   1.398  10.884  0.00  0.00    +0.000 OA
ATOM     28  C   UNL     1      40.673  -1.283  10.004  0.00  0.00    +0.000 C 
ATOM     29  C   UNL     1      41.628  -0.368   9.229  0.00  0.00    +0.000 C 
ATOM     30  C   UNL     1      40.641  -0.912  11.487  0.00  0.00    +0.000 C 
ATOM     31  C   UNL     1      41.241   1.094   9.481  0.00  0.00    +0.000 C 
ATOM     32  C   UNL     1      40.366   0.599  11.660  0.00  0.00    +0.000 C 
ATOM     33  C   UNL     1      42.202   2.057   8.793  0.00  0.00    +0.000 C 
BRANCH  28  34
ATOM     34  O   UNL     1      41.118  -2.644   9.846  0.00  0.00    +0.000 OA
ATOM     35  H   UNL     1      40.475  -3.047   9.226  0.00  0.00    +0.000 HD
ENDBRANCH  28  34
BRANCH  29  36
ATOM     36  O   UNL     1      41.564  -0.698   7.839  0.00  0.00    +0.000 OA
ATOM     37  H   UNL     1      42.199  -1.432   7.717  0.00  0.00    +0.000 HD
ENDBRANCH  29  36
BRANCH  30  38
ATOM     38  O   UNL     1      41.908  -1.303  12.058  0.00  0.00    +0.000 OA
ATOM     39  H   UNL     1      42.600  -0.779  11.614  0.00  0.00    +0.000 HD
ENDBRANCH  30  38
ENDBRANCH  26  32
ENDBRANCH   3  26
TORSDOF 10
ENDMDL
MODEL 9
REMARK VINA RESULT:      -7.3     12.448     14.144
REMARK  Name = 
REMARK  11 active torsions:
REMARK  status: ('A' for Active; 'I' for Inactive)
REMARK    1  A    between atoms: O_2  and  C_16
REMARK    2  A    between atoms: O_2  and  C_18
REMARK    3  A    between atoms: O_3  and  C_12
REMARK    4  A    between atoms: O_4  and  C_13
REMARK    5  A    between atoms: O_5  and  C_14
REMARK    6  A    between atoms: O_8  and  C_24
REMARK    7  A    between atoms: O_9  and  C_29
REMARK    8  A    between atoms: O_10  and  C_30
REMARK    9  A    between atoms: O_11  and  C_32
REMARK   10  A    between atoms: C_15  and  C_17
REMARK   11  A    between atoms: C_19  and  C_23
REMARK                            x       y       z     vdW  Elec       q    Type
REMARK                         _______ _______ _______ _____ _____    ______ ____
ROOT
ATOM      1  O   UNL     1      29.235  -0.578   4.299  0.00  0.00    +0.000 OA
ATOM      2  O   UNL     1      30.033   3.183   3.002  0.00  0.00    +0.000 OA
ATOM      3  C   UNL     1      28.405   1.579   3.597  0.00  0.00    +0.000 A 
ATOM      4  C   UNL     1      28.228   0.353   4.129  0.00  0.00    +0.000 A 
ATOM      5  C   UNL     1      29.795   2.012   3.270  0.00  0.00    +0.000 A 
ATOM      6  C   UNL     1      30.844   0.969   3.324  0.00  0.00    +0.000 A 
ATOM      7  C   UNL     1      30.495  -0.274   3.854  0.00  0.00    +0.000 A 
ATOM      8  C   UNL     1      32.160   1.176   2.888  0.00  0.00    +0.000 A 
ATOM      9  C   UNL     1      31.443  -1.295   3.959  0.00  0.00    +0.000 A 
ATOM     10  C   UNL     1      33.114   0.157   2.987  0.00  0.00    +0.000 A 
ATOM     11  C   UNL     1      32.743  -1.071   3.526  0.00  0.00    +0.000 A 
ENDROOT
BRANCH   4  12
ATOM     12  C   UNL     1      26.908  -0.145   4.570  0.00  0.00    +0.000 A 
ATOM     13  C   UNL     1      26.714  -0.499   5.916  0.00  0.00    +0.000 A 
ATOM     14  C   UNL     1      25.836  -0.267   3.667  0.00  0.00    +0.000 A 
ATOM     15  C   UNL     1      25.479  -0.987   6.329  0.00  0.00    +0.000 A 
ATOM     16  C   UNL     1      24.600  -0.762   4.090  0.00  0.00    +0.000 A 
ATOM     17  C   UNL     1      24.435  -1.121   5.418  0.00  0.00    +0.000 A 
BRANCH  15  18
ATOM     18  O   UNL     1      25.241  -1.354   7.625  0.00  0.00    +0.000 OA
ATOM     19  H   UNL     1      24.947  -2.281   7.633  0.00  0.00    +0.000 HD
ENDBRANCH  15  18
BRANCH  17  20
ATOM     20  O   UNL     1      23.229  -1.608   5.829  0.00  0.00    +0.000 OA
ATOM     21  H   UNL     1      22.579  -0.929   5.558  0.00  0.00    +0.000 HD
ENDBRANCH  17  20
ENDBRANCH   4  12
BRANCH   8  22
ATOM     22  O   UNL     1      32.533   2.369   2.337  0.00  0.00    +0.000 OA
ATOM     23  H   UNL     1      31.768   2.950   2.209  0.00  0.00    +0.000 HD
ENDBRANCH   8  22
BRANCH  11  24
ATOM     24  O   UNL     1      33.632  -2.096   3.645  0.00  0.00    +0.000 OA
ATOM     25  H   UNL     1      34.325  -2.005   2.970  0.00  0.00    +0.000 HD
ENDBRANCH  11  24
BRANCH   3  26
ATOM     26  O   UNL     1      27.385   2.504   3.431  0.00  0.00    +0.000 OA
BRANCH  26  32
ATOM     27  O   UNL     1      25.941   2.883   5.303  0.00  0.00    +0.000 OA
ATOM     28  C   UNL     1      25.913   5.174   3.554  0.00  0.00    +0.000 C 
ATOM     29  C   UNL     1      24.661   4.719   4.312  0.00  0.00    +0.000 C 
ATOM     30  C   UNL     1      27.184   4.761   4.296  0.00  0.00    +0.000 C 
ATOM     31  C   UNL     1      24.749   3.210   4.572  0.00  0.00    +0.000 C 
ATOM     32  C   UNL     1      27.148   3.253   4.631  0.00  0.00    +0.000 C 
ATOM     33  C   UNL     1      23.564   2.710   5.389  0.00  0.00    +0.000 C 
BRANCH  28  34
ATOM     34  O   UNL     1      25.867   6.608   3.417  0.00  0.00    +0.000 OA
ATOM     35  H   UNL     1      26.706   6.844   2.969  0.00  0.00    +0.000 HD
ENDBRANCH  28  34
BRANCH  29  36
ATOM     36  O   UNL     1      23.502   5.055   3.543  0.00  0.00    +0.000 OA
ATOM     37  H   UNL     1      22.744   4.930   4.148  0.00  0.00    +0.000 HD
ENDBRANCH  29  36
BRANCH  30  38
ATOM     38  O   UNL     1      27.277   5.580   5.482  0.00  0.00    +0.000 OA
ATOM     39  H   UNL     1      26.740   5.152   6.173  0.00  0.00    +0.000 HD
ENDBRANCH  30  38
ENDBRANCH  26  32
ENDBRANCH   3  26
TORSDOF 10
ENDMDL
