MODEL 1
REMARK VINA RESULT:      -7.2      0.000      0.000
REMARK  Name = 
REMARK  14 active torsions:
REMARK  status: ('A' for Active; 'I' for Inactive)
REMARK    1  A    between atoms: O_1  and  C_24
REMARK    2  A    between atoms: O_1  and  C_36
REMARK    3  A    between atoms: O_4  and  C_30
REMARK    4  A    between atoms: O_4  and  C_37
REMARK    5  A    between atoms: O_7  and  C_33
REMARK    6  A    between atoms: O_7  and  C_38
REMARK    7  A    between atoms: N_10  and  C_23
REMARK    8  A    between atoms: C_15  and  C_26
REMARK    9  A    between atoms: C_16  and  C_24
REMARK   10  A    between atoms: C_31  and  C_34
REMARK   11  A    between atoms: C_32  and  C_35
REMARK   12  A    between atoms: C_36  and  C_39
REMARK   13  A    between atoms: C_39  and  C_40
REMARK   14  A    between atoms: C_41  and  C_42
REMARK                            x       y       z     vdW  Elec       q    Type
REMARK                         _______ _______ _______ _____ _____    ______ ____
ROOT
ATOM      1  O   UNL     1      21.413   9.118  18.515  0.00  0.00    +0.000 OA
ATOM      2  O   UNL     1      18.475  13.324  17.120  0.00  0.00    +0.000 OA
ATOM      3  O   UNL     1      19.204   5.023  18.824  0.00  0.00    +0.000 OA
ATOM      4  O   UNL     1      14.223   6.309  20.167  0.00  0.00    +0.000 OA
ATOM      5  N   UNL     1      17.109   9.443  20.183  0.00  0.00    +0.000 NA
ATOM      6  N   UNL     1      19.225  10.998  21.498  0.00  0.00    +0.000 NA
ATOM      7  C   UNL     1      18.447   8.872  20.486  0.00  0.00    +0.000 C 
ATOM      8  C   UNL     1      19.580   9.986  20.462  0.00  0.00    +0.000 C 
ATOM      9  C   UNL     1      17.959  11.665  21.100  0.00  0.00    +0.000 C 
ATOM     10  C   UNL     1      16.790  10.610  21.067  0.00  0.00    +0.000 C 
ATOM     11  C   UNL     1      15.990   8.468  20.057  0.00  0.00    +0.000 C 
ATOM     12  C   UNL     1      18.780   7.712  19.524  0.00  0.00    +0.000 C 
ATOM     13  C   UNL     1      18.085  12.394  19.734  0.00  0.00    +0.000 C 
ATOM     14  C   UNL     1      19.707  10.622  19.085  0.00  0.00    +0.000 C 
ATOM     15  C   UNL     1      19.002  11.713  18.750  0.00  0.00    +0.000 C 
ATOM     16  C   UNL     1      16.415   7.042  19.741  0.00  0.00    +0.000 C 
ATOM     17  C   UNL     1      17.680   6.697  19.473  0.00  0.00    +0.000 C 
ATOM     18  C   UNL     1      20.312  11.921  21.811  0.00  0.00    +0.000 C 
ATOM     19  C   UNL     1      20.684  10.032  18.142  0.00  0.00    +0.000 C 
ATOM     20  C   UNL     1      19.119  12.321  17.408  0.00  0.00    +0.000 C 
ATOM     21  C   UNL     1      18.049   5.309  19.118  0.00  0.00    +0.000 C 
ATOM     22  C   UNL     1      15.351   6.006  19.791  0.00  0.00    +0.000 C 
ATOM     23  C   UNL     1      20.740  10.585  16.749  0.00  0.00    +0.000 C 
ATOM     24  C   UNL     1      20.021  11.671  16.422  0.00  0.00    +0.000 C 
ATOM     25  C   UNL     1      16.975   4.285  19.093  0.00  0.00    +0.000 C 
ATOM     26  C   UNL     1      15.705   4.606  19.386  0.00  0.00    +0.000 C 
ATOM     27  C   UNL     1      20.056  12.325  15.072  0.00  0.00    +0.000 C 
ATOM     28  C   UNL     1      17.427   2.903  18.716  0.00  0.00    +0.000 C 
ENDROOT
BRANCH  23  29
ATOM     29  O   UNL     1      21.581  10.025  15.794  0.00  0.00    +0.000 OA
ATOM     30  C   UNL     1      22.943  10.441  15.856  0.00  0.00    +0.000 C 
ENDBRANCH  23  29
BRANCH  26  31
ATOM     31  O   UNL     1      14.738   3.606  19.372  0.00  0.00    +0.000 OA
ATOM     32  C   UNL     1      13.942   3.554  18.190  0.00  0.00    +0.000 C 
ENDBRANCH  26  31
BRANCH  10  34
ATOM     33  N   UNL     1      16.136   9.981  23.560  0.00  0.00    +0.000 NA
ATOM     34  C   UNL     1      16.441  10.244  22.471  0.00  0.00    +0.000 C 
ENDBRANCH  10  34
BRANCH  11  35
ATOM     35  C   UNL     1      15.032   8.996  18.948  0.00  0.00    +0.000 C 
BRANCH  35  36
ATOM     36  O   UNL     1      15.803   9.697  17.950  0.00  0.00    +0.000 OA
BRANCH  36  38
ATOM     37  O   UNL     1      14.966  11.820  18.146  0.00  0.00    +0.000 OA
ATOM     38  C   UNL     1      15.231  10.831  17.483  0.00  0.00    +0.000 C 
BRANCH  38  39
ATOM     39  C   UNL     1      15.085  10.773  16.000  0.00  0.00    +0.000 C 
ATOM     40  C   UNL     1      16.168  11.512  15.266  0.00  0.00    +0.000 C 
ATOM     41  C   UNL     1      14.087  10.143  15.348  0.00  0.00    +0.000 C 
ATOM     42  C   UNL     1      12.890   9.455  15.924  0.00  0.00    +0.000 C 
ENDBRANCH  38  39
ENDBRANCH  36  38
ENDBRANCH  35  36
ENDBRANCH  11  35
TORSDOF 7
ENDMDL
MODEL 2
REMARK VINA RESULT:      -6.6     22.782     26.371
REMARK  Name = 
REMARK  14 active torsions:
REMARK  status: ('A' for Active; 'I' for Inactive)
REMARK    1  A    between atoms: O_1  and  C_24
REMARK    2  A    between atoms: O_1  and  C_36
REMARK    3  A    between atoms: O_4  and  C_30
REMARK    4  A    between atoms: O_4  and  C_37
REMARK    5  A    between atoms: O_7  and  C_33
REMARK    6  A    between atoms: O_7  and  C_38
REMARK    7  A    between atoms: N_10  and  C_23
REMARK    8  A    between atoms: C_15  and  C_26
REMARK    9  A    between atoms: C_16  and  C_24
REMARK   10  A    between atoms: C_31  and  C_34
REMARK   11  A    between atoms: C_32  and  C_35
REMARK   12  A    between atoms: C_36  and  C_39
REMARK   13  A    between atoms: C_39  and  C_40
REMARK   14  A    between atoms: C_41  and  C_42
REMARK                            x       y       z     vdW  Elec       q    Type
REMARK                         _______ _______ _______ _____ _____    ______ ____
ROOT
ATOM      1  O   UNL     1      42.554   5.480  12.658  0.00  0.00    +0.000 OA
ATOM      2  O   UNL     1      39.295   5.439   8.458  0.00  0.00    +0.000 OA
ATOM      3  O   UNL     1      45.323   1.768  13.203  0.00  0.00    +0.000 OA
ATOM      4  O   UNL     1      42.591  -2.246  11.037  0.00  0.00    +0.000 OA
ATOM      5  N   UNL     1      40.564   1.478  11.459  0.00  0.00    +0.000 NA
ATOM      6  N   UNL     1      38.985   3.395  13.026  0.00  0.00    +0.000 NA
ATOM      7  C   UNL     1      41.125   2.209  12.625  0.00  0.00    +0.000 C 
ATOM      8  C   UNL     1      40.442   3.630  12.811  0.00  0.00    +0.000 C 
ATOM      9  C   UNL     1      38.410   2.801  11.792  0.00  0.00    +0.000 C 
ATOM     10  C   UNL     1      39.070   1.396  11.522  0.00  0.00    +0.000 C 
ATOM     11  C   UNL     1      41.218   0.184  11.117  0.00  0.00    +0.000 C 
ATOM     12  C   UNL     1      42.659   2.335  12.508  0.00  0.00    +0.000 C 
ATOM     13  C   UNL     1      38.573   3.734  10.561  0.00  0.00    +0.000 C 
ATOM     14  C   UNL     1      40.687   4.528  11.606  0.00  0.00    +0.000 C 
ATOM     15  C   UNL     1      39.838   4.555  10.568  0.00  0.00    +0.000 C 
ATOM     16  C   UNL     1      42.639   0.026  11.634  0.00  0.00    +0.000 C 
ATOM     17  C   UNL     1      43.309   1.010  12.247  0.00  0.00    +0.000 C 
ATOM     18  C   UNL     1      38.268   4.570  13.512  0.00  0.00    +0.000 C 
ATOM     19  C   UNL     1      41.867   5.423  11.643  0.00  0.00    +0.000 C 
ATOM     20  C   UNL     1      40.085   5.419   9.395  0.00  0.00    +0.000 C 
ATOM     21  C   UNL     1      44.709   0.838  12.692  0.00  0.00    +0.000 C 
ATOM     22  C   UNL     1      43.258  -1.316  11.477  0.00  0.00    +0.000 C 
ATOM     23  C   UNL     1      42.175   6.232  10.419  0.00  0.00    +0.000 C 
ATOM     24  C   UNL     1      41.322   6.242   9.381  0.00  0.00    +0.000 C 
ATOM     25  C   UNL     1      45.357  -0.478  12.468  0.00  0.00    +0.000 C 
ATOM     26  C   UNL     1      44.692  -1.486  11.881  0.00  0.00    +0.000 C 
ATOM     27  C   UNL     1      41.520   7.062   8.140  0.00  0.00    +0.000 C 
ATOM     28  C   UNL     1      46.780  -0.571  12.939  0.00  0.00    +0.000 C 
ENDROOT
BRANCH  23  29
ATOM     29  O   UNL     1      43.310   7.033  10.361  0.00  0.00    +0.000 OA
ATOM     30  C   UNL     1      44.519   6.360  10.019  0.00  0.00    +0.000 C 
ENDBRANCH  23  29
BRANCH  26  31
ATOM     31  O   UNL     1      45.335  -2.709  11.714  0.00  0.00    +0.000 OA
ATOM     32  C   UNL     1      45.829  -2.956  10.399  0.00  0.00    +0.000 C 
ENDBRANCH  26  31
BRANCH  10  34
ATOM     33  N   UNL     1      38.129  -0.302  13.330  0.00  0.00    +0.000 NA
ATOM     34  C   UNL     1      38.546   0.424  12.526  0.00  0.00    +0.000 C 
ENDBRANCH  10  34
BRANCH  11  35
ATOM     35  C   UNL     1      41.199   0.047   9.565  0.00  0.00    +0.000 C 
BRANCH  35  36
ATOM     36  O   UNL     1      40.149  -0.867   9.183  0.00  0.00    +0.000 OA
BRANCH  36  38
ATOM     37  O   UNL     1      39.945  -0.940   6.903  0.00  0.00    +0.000 OA
ATOM     38  C   UNL     1      39.552  -0.584   8.002  0.00  0.00    +0.000 C 
BRANCH  38  39
ATOM     39  C   UNL     1      38.254   0.115   8.224  0.00  0.00    +0.000 C 
ATOM     40  C   UNL     1      38.257   1.539   7.740  0.00  0.00    +0.000 C 
ATOM     41  C   UNL     1      37.171  -0.434   8.808  0.00  0.00    +0.000 C 
ATOM     42  C   UNL     1      37.039  -1.789   9.429  0.00  0.00    +0.000 C 
ENDBRANCH  38  39
ENDBRANCH  36  38
ENDBRANCH  35  36
ENDBRANCH  11  35
TORSDOF 7
ENDMDL
MODEL 3
REMARK VINA RESULT:      -6.5     22.991     26.406
REMARK  Name = 
REMARK  14 active torsions:
REMARK  status: ('A' for Active; 'I' for Inactive)
REMARK    1  A    between atoms: O_1  and  C_24
REMARK    2  A    between atoms: O_1  and  C_36
REMARK    3  A    between atoms: O_4  and  C_30
REMARK    4  A    between atoms: O_4  and  C_37
REMARK    5  A    between atoms: O_7  and  C_33
REMARK    6  A    between atoms: O_7  and  C_38
REMARK    7  A    between atoms: N_10  and  C_23
REMARK    8  A    between atoms: C_15  and  C_26
REMARK    9  A    between atoms: C_16  and  C_24
REMARK   10  A    between atoms: C_31  and  C_34
REMARK   11  A    between atoms: C_32  and  C_35
REMARK   12  A    between atoms: C_36  and  C_39
REMARK   13  A    between atoms: C_39  and  C_40
REMARK   14  A    between atoms: C_41  and  C_42
REMARK                            x       y       z     vdW  Elec       q    Type
REMARK                         _______ _______ _______ _____ _____    ______ ____
ROOT
ATOM      1  O   UNL     1      42.377   1.668  12.928  0.00  0.00    +0.000 OA
ATOM      2  O   UNL     1      39.290   5.893  11.984  0.00  0.00    +0.000 OA
ATOM      3  O   UNL     1      44.088  -0.556   9.203  0.00  0.00    +0.000 OA
ATOM      4  O   UNL     1      40.452   0.240   5.405  0.00  0.00    +0.000 OA
ATOM      5  N   UNL     1      39.446   1.494   9.351  0.00  0.00    +0.000 NA
ATOM      6  N   UNL     1      38.386   0.961  12.038  0.00  0.00    +0.000 NA
ATOM      7  C   UNL     1      40.155   0.632  10.332  0.00  0.00    +0.000 C 
ATOM      8  C   UNL     1      39.858   1.077  11.828  0.00  0.00    +0.000 C 
ATOM      9  C   UNL     1      37.699   1.938  11.155  0.00  0.00    +0.000 C 
ATOM     10  C   UNL     1      37.980   1.579   9.647  0.00  0.00    +0.000 C 
ATOM     11  C   UNL     1      39.750   1.244   7.915  0.00  0.00    +0.000 C 
ATOM     12  C   UNL     1      41.672   0.607  10.046  0.00  0.00    +0.000 C 
ATOM     13  C   UNL     1      38.118   3.402  11.463  0.00  0.00    +0.000 C 
ATOM     14  C   UNL     1      40.346   2.494  12.095  0.00  0.00    +0.000 C 
ATOM     15  C   UNL     1      39.551   3.557  11.905  0.00  0.00    +0.000 C 
ATOM     16  C   UNL     1      41.073   0.542   7.652  0.00  0.00    +0.000 C 
ATOM     17  C   UNL     1      41.963   0.272   8.615  0.00  0.00    +0.000 C 
ATOM     18  C   UNL     1      37.987   1.042  13.440  0.00  0.00    +0.000 C 
ATOM     19  C   UNL     1      41.716   2.659  12.634  0.00  0.00    +0.000 C 
ATOM     20  C   UNL     1      40.032   4.932  12.155  0.00  0.00    +0.000 C 
ATOM     21  C   UNL     1      43.264  -0.365   8.315  0.00  0.00    +0.000 C 
ATOM     22  C   UNL     1      41.329   0.108   6.254  0.00  0.00    +0.000 C 
ATOM     23  C   UNL     1      42.243   4.053  12.801  0.00  0.00    +0.000 C 
ATOM     24  C   UNL     1      41.440   5.110  12.596  0.00  0.00    +0.000 C 
ATOM     25  C   UNL     1      43.555  -0.731   6.907  0.00  0.00    +0.000 C 
ATOM     26  C   UNL     1      42.664  -0.495   5.931  0.00  0.00    +0.000 C 
ATOM     27  C   UNL     1      41.864   6.536  12.791  0.00  0.00    +0.000 C 
ATOM     28  C   UNL     1      44.898  -1.366   6.683  0.00  0.00    +0.000 C 
ENDROOT
BRANCH  23  29
ATOM     29  O   UNL     1      43.547   4.275  13.230  0.00  0.00    +0.000 OA
ATOM     30  C   UNL     1      44.547   4.198  12.217  0.00  0.00    +0.000 C 
ENDBRANCH  23  29
BRANCH  26  31
ATOM     31  O   UNL     1      42.972  -0.877   4.630  0.00  0.00    +0.000 OA
ATOM     32  C   UNL     1      43.488   0.163   3.802  0.00  0.00    +0.000 C 
ENDBRANCH  26  31
BRANCH  10  34
ATOM     33  N   UNL     1      36.607  -0.615   9.064  0.00  0.00    +0.000 NA
ATOM     34  C   UNL     1      37.206   0.352   9.299  0.00  0.00    +0.000 C 
ENDBRANCH  10  34
BRANCH  11  35
ATOM     35  C   UNL     1      39.723   2.620   7.185  0.00  0.00    +0.000 C 
BRANCH  35  36
ATOM     36  O   UNL     1      39.751   3.677   8.167  0.00  0.00    +0.000 OA
BRANCH  36  38
ATOM     37  O   UNL     1      39.786   5.462   6.732  0.00  0.00    +0.000 OA
ATOM     38  C   UNL     1      40.208   4.866   7.710  0.00  0.00    +0.000 C 
BRANCH  38  39
ATOM     39  C   UNL     1      41.220   5.434   8.645  0.00  0.00    +0.000 C 
ATOM     40  C   UNL     1      42.315   4.466   8.995  0.00  0.00    +0.000 C 
ATOM     41  C   UNL     1      41.183   6.680   9.159  0.00  0.00    +0.000 C 
ATOM     42  C   UNL     1      40.121   7.721   8.994  0.00  0.00    +0.000 C 
ENDBRANCH  38  39
ENDBRANCH  36  38
ENDBRANCH  35  36
ENDBRANCH  11  35
TORSDOF 7
ENDMDL
MODEL 4
REMARK VINA RESULT:      -6.0     39.027     42.673
REMARK  Name = 
REMARK  14 active torsions:
REMARK  status: ('A' for Active; 'I' for Inactive)
REMARK    1  A    between atoms: O_1  and  C_24
REMARK    2  A    between atoms: O_1  and  C_36
REMARK    3  A    between atoms: O_4  and  C_30
REMARK    4  A    between atoms: O_4  and  C_37
REMARK    5  A    between atoms: O_7  and  C_33
REMARK    6  A    between atoms: O_7  and  C_38
REMARK    7  A    between atoms: N_10  and  C_23
REMARK    8  A    between atoms: C_15  and  C_26
REMARK    9  A    between atoms: C_16  and  C_24
REMARK   10  A    between atoms: C_31  and  C_34
REMARK   11  A    between atoms: C_32  and  C_35
REMARK   12  A    between atoms: C_36  and  C_39
REMARK   13  A    between atoms: C_39  and  C_40
REMARK   14  A    between atoms: C_41  and  C_42
REMARK                            x       y       z     vdW  Elec       q    Type
REMARK                         _______ _______ _______ _____ _____    ______ ____
ROOT
ATOM      1  O   UNL     1      42.531 -15.549  -0.766  0.00  0.00    +0.000 OA
ATOM      2  O   UNL     1      37.934 -16.650  -3.199  0.00  0.00    +0.000 OA
ATOM      3  O   UNL     1      45.945 -13.803  -3.419  0.00  0.00    +0.000 OA
ATOM      4  O   UNL     1      45.036 -15.836  -8.248  0.00  0.00    +0.000 OA
ATOM      5  N   UNL     1      42.675 -17.335  -5.033  0.00  0.00    +0.000 NA
ATOM      6  N   UNL     1      42.250 -19.168  -2.778  0.00  0.00    +0.000 NA
ATOM      7  C   UNL     1      43.454 -17.241  -3.771  0.00  0.00    +0.000 C 
ATOM      8  C   UNL     1      42.611 -17.744  -2.522  0.00  0.00    +0.000 C 
ATOM      9  C   UNL     1      41.347 -19.227  -3.956  0.00  0.00    +0.000 C 
ATOM     10  C   UNL     1      42.107 -18.707  -5.234  0.00  0.00    +0.000 C 
ATOM     11  C   UNL     1      43.325 -16.775  -6.251  0.00  0.00    +0.000 C 
ATOM     12  C   UNL     1      43.977 -15.806  -3.554  0.00  0.00    +0.000 C 
ATOM     13  C   UNL     1      40.034 -18.427  -3.730  0.00  0.00    +0.000 C 
ATOM     14  C   UNL     1      41.372 -16.887  -2.305  0.00  0.00    +0.000 C 
ATOM     15  C   UNL     1      40.199 -17.193  -2.879  0.00  0.00    +0.000 C 
ATOM     16  C   UNL     1      44.416 -15.751  -5.982  0.00  0.00    +0.000 C 
ATOM     17  C   UNL     1      44.701 -15.288  -4.759  0.00  0.00    +0.000 C 
ATOM     18  C   UNL     1      41.738 -19.862  -1.600  0.00  0.00    +0.000 C 
ATOM     19  C   UNL     1      41.487 -15.732  -1.385  0.00  0.00    +0.000 C 
ATOM     20  C   UNL     1      39.001 -16.352  -2.675  0.00  0.00    +0.000 C 
ATOM     21  C   UNL     1      45.735 -14.253  -4.540  0.00  0.00    +0.000 C 
ATOM     22  C   UNL     1      45.214 -15.308  -7.155  0.00  0.00    +0.000 C 
ATOM     23  C   UNL     1      40.303 -14.822  -1.247  0.00  0.00    +0.000 C 
ATOM     24  C   UNL     1      39.137 -15.134  -1.836  0.00  0.00    +0.000 C 
ATOM     25  C   UNL     1      46.483 -13.751  -5.720  0.00  0.00    +0.000 C 
ATOM     26  C   UNL     1      46.232 -14.225  -6.952  0.00  0.00    +0.000 C 
ATOM     27  C   UNL     1      37.887 -14.313  -1.708  0.00  0.00    +0.000 C 
ATOM     28  C   UNL     1      47.509 -12.698  -5.418  0.00  0.00    +0.000 C 
ENDROOT
BRANCH  23  29
ATOM     29  O   UNL     1      40.371 -13.679  -0.459  0.00  0.00    +0.000 OA
ATOM     30  C   UNL     1      40.117 -13.874   0.930  0.00  0.00    +0.000 C 
ENDBRANCH  23  29
BRANCH  26  31
ATOM     31  O   UNL     1      46.975 -13.741  -8.023  0.00  0.00    +0.000 OA
ATOM     32  C   UNL     1      48.105 -14.535  -8.381  0.00  0.00    +0.000 C 
ENDBRANCH  26  31
BRANCH  10  34
ATOM     33  N   UNL     1      43.870 -20.537  -5.997  0.00  0.00    +0.000 NA
ATOM     34  C   UNL     1      43.107 -19.736  -5.643  0.00  0.00    +0.000 C 
ENDBRANCH  10  34
BRANCH  11  35
ATOM     35  C   UNL     1      42.204 -16.140  -7.128  0.00  0.00    +0.000 C 
BRANCH  35  36
ATOM     36  O   UNL     1      41.137 -15.680  -6.273  0.00  0.00    +0.000 OA
BRANCH  36  38
ATOM     37  O   UNL     1      40.489 -14.113  -7.812  0.00  0.00    +0.000 OA
ATOM     38  C   UNL     1      40.551 -14.525  -6.666  0.00  0.00    +0.000 C 
BRANCH  38  39
ATOM     39  C   UNL     1      39.859 -13.870  -5.519  0.00  0.00    +0.000 C 
ATOM     40  C   UNL     1      38.366 -14.040  -5.551  0.00  0.00    +0.000 C 
ATOM     41  C   UNL     1      40.474 -13.175  -4.541  0.00  0.00    +0.000 C 
ATOM     42  C   UNL     1      41.925 -12.830  -4.419  0.00  0.00    +0.000 C 
ENDBRANCH  38  39
ENDBRANCH  36  38
ENDBRANCH  35  36
ENDBRANCH  11  35
TORSDOF 7
ENDMDL
MODEL 5
REMARK VINA RESULT:      -5.8     21.510     24.862
REMARK  Name = 
REMARK  14 active torsions:
REMARK  status: ('A' for Active; 'I' for Inactive)
REMARK    1  A    between atoms: O_1  and  C_24
REMARK    2  A    between atoms: O_1  and  C_36
REMARK    3  A    between atoms: O_4  and  C_30
REMARK    4  A    between atoms: O_4  and  C_37
REMARK    5  A    between atoms: O_7  and  C_33
REMARK    6  A    between atoms: O_7  and  C_38
REMARK    7  A    between atoms: N_10  and  C_23
REMARK    8  A    between atoms: C_15  and  C_26
REMARK    9  A    between atoms: C_16  and  C_24
REMARK   10  A    between atoms: C_31  and  C_34
REMARK   11  A    between atoms: C_32  and  C_35
REMARK   12  A    between atoms: C_36  and  C_39
REMARK   13  A    between atoms: C_39  and  C_40
REMARK   14  A    between atoms: C_41  and  C_42
REMARK                            x       y       z     vdW  Elec       q    Type
REMARK                         _______ _______ _______ _____ _____    ______ ____
ROOT
ATOM      1  O   UNL     1      28.960   2.625   3.010  0.00  0.00    +0.000 OA
ATOM      2  O   UNL     1      34.274   2.547   2.879  0.00  0.00    +0.000 OA
ATOM      3  O   UNL     1      26.741   0.628  -0.573  0.00  0.00    +0.000 OA
ATOM      4  O   UNL     1      30.067   1.220  -4.679  0.00  0.00    +0.000 OA
ATOM      5  N   UNL     1      31.067   3.241  -1.064  0.00  0.00    +0.000 NA
ATOM      6  N   UNL     1      30.861   5.541   0.751  0.00  0.00    +0.000 NA
ATOM      7  C   UNL     1      29.819   3.565  -0.325  0.00  0.00    +0.000 C 
ATOM      8  C   UNL     1      30.125   4.281   1.059  0.00  0.00    +0.000 C 
ATOM      9  C   UNL     1      32.173   5.192   0.149  0.00  0.00    +0.000 C 
ATOM     10  C   UNL     1      31.948   4.442  -1.218  0.00  0.00    +0.000 C 
ATOM     11  C   UNL     1      30.904   2.456  -2.320  0.00  0.00    +0.000 C 
ATOM     12  C   UNL     1      28.956   2.301  -0.124  0.00  0.00    +0.000 C 
ATOM     13  C   UNL     1      33.051   4.341   1.108  0.00  0.00    +0.000 C 
ATOM     14  C   UNL     1      30.929   3.381   1.986  0.00  0.00    +0.000 C 
ATOM     15  C   UNL     1      32.270   3.398   1.989  0.00  0.00    +0.000 C 
ATOM     16  C   UNL     1      29.610   1.663  -2.417  0.00  0.00    +0.000 C 
ATOM     17  C   UNL     1      28.731   1.569  -1.412  0.00  0.00    +0.000 C 
ATOM     18  C   UNL     1      30.949   6.459   1.882  0.00  0.00    +0.000 C 
ATOM     19  C   UNL     1      30.181   2.526   2.935  0.00  0.00    +0.000 C 
ATOM     20  C   UNL     1      33.049   2.514   2.882  0.00  0.00    +0.000 C 
ATOM     21  C   UNL     1      27.507   0.745  -1.523  0.00  0.00    +0.000 C 
ATOM     22  C   UNL     1      29.323   1.018  -3.725  0.00  0.00    +0.000 C 
ATOM     23  C   UNL     1      30.960   1.560   3.778  0.00  0.00    +0.000 C 
ATOM     24  C   UNL     1      32.302   1.579   3.763  0.00  0.00    +0.000 C 
ATOM     25  C   UNL     1      27.255   0.037  -2.803  0.00  0.00    +0.000 C 
ATOM     26  C   UNL     1      28.110   0.143  -3.833  0.00  0.00    +0.000 C 
ATOM     27  C   UNL     1      33.164   0.689   4.611  0.00  0.00    +0.000 C 
ATOM     28  C   UNL     1      25.998  -0.783  -2.835  0.00  0.00    +0.000 C 
ENDROOT
BRANCH  23  29
ATOM     29  O   UNL     1      30.311   0.677   4.633  0.00  0.00    +0.000 OA
ATOM     30  C   UNL     1      29.749  -0.477   4.012  0.00  0.00    +0.000 C 
ENDBRANCH  23  29
BRANCH  26  31
ATOM     31  O   UNL     1      27.819  -0.520  -5.020  0.00  0.00    +0.000 OA
ATOM     32  C   UNL     1      28.449  -1.790  -5.173  0.00  0.00    +0.000 C 
ENDBRANCH  26  31
BRANCH  10  34
ATOM     33  N   UNL     1      31.137   6.197  -3.035  0.00  0.00    +0.000 NA
ATOM     34  C   UNL     1      31.473   5.432  -2.230  0.00  0.00    +0.000 C 
ENDBRANCH  10  34
BRANCH  11  35
ATOM     35  C   UNL     1      32.126   1.497  -2.433  0.00  0.00    +0.000 C 
BRANCH  35  36
ATOM     36  O   UNL     1      32.682   1.281  -1.119  0.00  0.00    +0.000 OA
BRANCH  36  38
ATOM     37  O   UNL     1      31.483  -0.643  -0.794  0.00  0.00    +0.000 OA
ATOM     38  C   UNL     1      32.473   0.044  -0.609  0.00  0.00    +0.000 C 
BRANCH  38  39
ATOM     39  C   UNL     1      33.686  -0.438   0.111  0.00  0.00    +0.000 C 
ATOM     40  C   UNL     1      34.972   0.002  -0.530  0.00  0.00    +0.000 C 
ATOM     41  C   UNL     1      33.671  -1.207   1.219  0.00  0.00    +0.000 C 
ATOM     42  C   UNL     1      32.492  -1.808   1.915  0.00  0.00    +0.000 C 
ENDBRANCH  38  39
ENDBRANCH  36  38
ENDBRANCH  35  36
ENDBRANCH  11  35
TORSDOF 7
ENDMDL
MODEL 6
REMARK VINA RESULT:      -5.8     18.768     22.532
REMARK  Name = 
REMARK  14 active torsions:
REMARK  status: ('A' for Active; 'I' for Inactive)
REMARK    1  A    between atoms: O_1  and  C_24
REMARK    2  A    between atoms: O_1  and  C_36
REMARK    3  A    between atoms: O_4  and  C_30
REMARK    4  A    between atoms: O_4  and  C_37
REMARK    5  A    between atoms: O_7  and  C_33
REMARK    6  A    between atoms: O_7  and  C_38
REMARK    7  A    between atoms: N_10  and  C_23
REMARK    8  A    between atoms: C_15  and  C_26
REMARK    9  A    between atoms: C_16  and  C_24
REMARK   10  A    between atoms: C_31  and  C_34
REMARK   11  A    between atoms: C_32  and  C_35
REMARK   12  A    between atoms: C_36  and  C_39
REMARK   13  A    between atoms: C_39  and  C_40
REMARK   14  A    between atoms: C_41  and  C_42
REMARK                            x       y       z     vdW  Elec       q    Type
REMARK                         _______ _______ _______ _____ _____    ______ ____
ROOT
ATOM      1  O   UNL     1      29.093  27.215  30.750  0.00  0.00    +0.000 OA
ATOM      2  O   UNL     1      31.908  22.707  30.894  0.00  0.00    +0.000 OA
ATOM      3  O   UNL     1      24.777  27.053  32.508  0.00  0.00    +0.000 OA
ATOM      4  O   UNL     1      23.223  22.028  31.730  0.00  0.00    +0.000 OA
ATOM      5  N   UNL     1      26.896  23.225  29.932  0.00  0.00    +0.000 NA
ATOM      6  N   UNL     1      28.420  24.442  27.736  0.00  0.00    +0.000 NA
ATOM      7  C   UNL     1      26.841  24.680  29.634  0.00  0.00    +0.000 C 
ATOM      8  C   UNL     1      28.202  25.201  29.001  0.00  0.00    +0.000 C 
ATOM      9  C   UNL     1      28.622  23.009  28.069  0.00  0.00    +0.000 C 
ATOM     10  C   UNL     1      27.319  22.429  28.736  0.00  0.00    +0.000 C 
ATOM     11  C   UNL     1      25.717  22.654  30.642  0.00  0.00    +0.000 C 
ATOM     12  C   UNL     1      26.463  25.486  30.894  0.00  0.00    +0.000 C 
ATOM     13  C   UNL     1      29.858  22.788  28.985  0.00  0.00    +0.000 C 
ATOM     14  C   UNL     1      29.367  25.023  29.964  0.00  0.00    +0.000 C 
ATOM     15  C   UNL     1      30.109  23.906  29.966  0.00  0.00    +0.000 C 
ATOM     16  C   UNL     1      24.880  23.664  31.410  0.00  0.00    +0.000 C 
ATOM     17  C   UNL     1      25.227  24.950  31.549  0.00  0.00    +0.000 C 
ATOM     18  C   UNL     1      29.462  25.010  26.886  0.00  0.00    +0.000 C 
ATOM     19  C   UNL     1      29.698  26.154  30.861  0.00  0.00    +0.000 C 
ATOM     20  C   UNL     1      31.233  23.731  30.910  0.00  0.00    +0.000 C 
ATOM     21  C   UNL     1      24.415  25.893  32.348  0.00  0.00    +0.000 C 
ATOM     22  C   UNL     1      23.597  23.171  31.975  0.00  0.00    +0.000 C 
ATOM     23  C   UNL     1      30.776  25.948  31.884  0.00  0.00    +0.000 C 
ATOM     24  C   UNL     1      31.504  24.820  31.883  0.00  0.00    +0.000 C 
ATOM     25  C   UNL     1      23.171  25.385  32.978  0.00  0.00    +0.000 C 
ATOM     26  C   UNL     1      22.790  24.106  32.826  0.00  0.00    +0.000 C 
ATOM     27  C   UNL     1      32.636  24.551  32.832  0.00  0.00    +0.000 C 
ATOM     28  C   UNL     1      22.406  26.400  33.778  0.00  0.00    +0.000 C 
ENDROOT
BRANCH  23  29
ATOM     29  O   UNL     1      31.082  26.943  32.806  0.00  0.00    +0.000 OA
ATOM     30  C   UNL     1      31.907  27.998  32.319  0.00  0.00    +0.000 C 
ENDBRANCH  23  29
BRANCH  26  31
ATOM     31  O   UNL     1      21.604  23.682  33.416  0.00  0.00    +0.000 OA
ATOM     32  C   UNL     1      20.468  23.683  32.554  0.00  0.00    +0.000 C 
ENDBRANCH  26  31
BRANCH  10  34
ATOM     33  N   UNL     1      25.438  22.149  26.887  0.00  0.00    +0.000 NA
ATOM     34  C   UNL     1      26.270  22.288  27.684  0.00  0.00    +0.000 C 
ENDBRANCH  10  34
BRANCH  11  35
ATOM     35  C   UNL     1      26.243  21.553  31.610  0.00  0.00    +0.000 C 
BRANCH  35  36
ATOM     36  O   UNL     1      27.530  21.952  32.127  0.00  0.00    +0.000 OA
BRANCH  36  38
ATOM     37  O   UNL     1      28.092  20.888  34.076  0.00  0.00    +0.000 OA
ATOM     38  C   UNL     1      27.658  21.855  33.471  0.00  0.00    +0.000 C 
BRANCH  38  39
ATOM     39  C   UNL     1      27.320  23.151  34.126  0.00  0.00    +0.000 C 
ATOM     40  C   UNL     1      28.366  24.211  33.919  0.00  0.00    +0.000 C 
ATOM     41  C   UNL     1      26.208  23.382  34.852  0.00  0.00    +0.000 C 
ATOM     42  C   UNL     1      25.132  22.417  35.234  0.00  0.00    +0.000 C 
ENDBRANCH  38  39
ENDBRANCH  36  38
ENDBRANCH  35  36
ENDBRANCH  11  35
TORSDOF 7
ENDMDL
MODEL 7
REMARK VINA RESULT:      -5.8     14.933     17.238
REMARK  Name = 
REMARK  14 active torsions:
REMARK  status: ('A' for Active; 'I' for Inactive)
REMARK    1  A    between atoms: O_1  and  C_24
REMARK    2  A    between atoms: O_1  and  C_36
REMARK    3  A    between atoms: O_4  and  C_30
REMARK    4  A    between atoms: O_4  and  C_37
REMARK    5  A    between atoms: O_7  and  C_33
REMARK    6  A    between atoms: O_7  and  C_38
REMARK    7  A    between atoms: N_10  and  C_23
REMARK    8  A    between atoms: C_15  and  C_26
REMARK    9  A    between atoms: C_16  and  C_24
REMARK   10  A    between atoms: C_31  and  C_34
REMARK   11  A    between atoms: C_32  and  C_35
REMARK   12  A    between atoms: C_36  and  C_39
REMARK   13  A    between atoms: C_39  and  C_40
REMARK   14  A    between atoms: C_41  and  C_42
REMARK                            x       y       z     vdW  Elec       q    Type
REMARK                         _______ _______ _______ _____ _____    ______ ____
ROOT
ATOM      1  O   UNL     1      25.652   1.654   5.702  0.00  0.00    +0.000 OA
ATOM      2  O   UNL     1      24.136   2.671   0.708  0.00  0.00    +0.000 OA
ATOM      3  O   UNL     1      22.867  -1.110   8.221  0.00  0.00    +0.000 OA
ATOM      4  O   UNL     1      18.010  -0.256   6.231  0.00  0.00    +0.000 OA
ATOM      5  N   UNL     1      21.146   2.282   4.858  0.00  0.00    +0.000 NA
ATOM      6  N   UNL     1      22.849   4.660   5.128  0.00  0.00    +0.000 NA
ATOM      7  C   UNL     1      22.171   2.412   5.926  0.00  0.00    +0.000 C 
ATOM      8  C   UNL     1      23.394   3.312   5.460  0.00  0.00    +0.000 C 
ATOM      9  C   UNL     1      21.940   4.532   3.960  0.00  0.00    +0.000 C 
ATOM     10  C   UNL     1      20.714   3.619   4.338  0.00  0.00    +0.000 C 
ATOM     11  C   UNL     1      20.012   1.358   5.142  0.00  0.00    +0.000 C 
ATOM     12  C   UNL     1      22.646   1.023   6.403  0.00  0.00    +0.000 C 
ATOM     13  C   UNL     1      22.672   3.984   2.704  0.00  0.00    +0.000 C 
ATOM     14  C   UNL     1      24.116   2.697   4.269  0.00  0.00    +0.000 C 
ATOM     15  C   UNL     1      23.766   2.992   3.009  0.00  0.00    +0.000 C 
ATOM     16  C   UNL     1      20.292   0.308   6.205  0.00  0.00    +0.000 C 
ATOM     17  C   UNL     1      21.495   0.134   6.765  0.00  0.00    +0.000 C 
ATOM     18  C   UNL     1      23.876   5.685   4.974  0.00  0.00    +0.000 C 
ATOM     19  C   UNL     1      25.265   1.805   4.548  0.00  0.00    +0.000 C 
ATOM     20  C   UNL     1      24.462   2.384   1.855  0.00  0.00    +0.000 C 
ATOM     21  C   UNL     1      21.745  -0.933   7.759  0.00  0.00    +0.000 C 
ATOM     22  C   UNL     1      19.134  -0.511   6.651  0.00  0.00    +0.000 C 
ATOM     23  C   UNL     1      25.915   1.112   3.387  0.00  0.00    +0.000 C 
ATOM     24  C   UNL     1      25.548   1.408   2.130  0.00  0.00    +0.000 C 
ATOM     25  C   UNL     1      20.608  -1.802   8.151  0.00  0.00    +0.000 C 
ATOM     26  C   UNL     1      19.386  -1.626   7.622  0.00  0.00    +0.000 C 
ATOM     27  C   UNL     1      26.179   0.806   0.908  0.00  0.00    +0.000 C 
ATOM     28  C   UNL     1      20.942  -2.865   9.158  0.00  0.00    +0.000 C 
ENDROOT
BRANCH  23  29
ATOM     29  O   UNL     1      26.948   0.203   3.588  0.00  0.00    +0.000 OA
ATOM     30  C   UNL     1      28.238   0.775   3.786  0.00  0.00    +0.000 C 
ENDBRANCH  23  29
BRANCH  26  31
ATOM     31  O   UNL     1      18.347  -2.451   8.039  0.00  0.00    +0.000 OA
ATOM     32  C   UNL     1      18.018  -3.507   7.138  0.00  0.00    +0.000 C 
ENDBRANCH  26  31
BRANCH  10  34
ATOM     33  N   UNL     1      19.136   5.006   5.958  0.00  0.00    +0.000 NA
ATOM     34  C   UNL     1      19.820   4.381   5.259  0.00  0.00    +0.000 C 
ENDBRANCH  10  34
BRANCH  11  35
ATOM     35  C   UNL     1      19.624   0.667   3.801  0.00  0.00    +0.000 C 
BRANCH  35  36
ATOM     36  O   UNL     1      20.821   0.416   3.034  0.00  0.00    +0.000 OA
BRANCH  36  38
ATOM     37  O   UNL     1      20.182  -1.761   2.717  0.00  0.00    +0.000 OA
ATOM     38  C   UNL     1      21.029  -0.883   2.715  0.00  0.00    +0.000 C 
BRANCH  38  39
ATOM     39  C   UNL     1      22.422  -1.086   2.223  0.00  0.00    +0.000 C 
ATOM     40  C   UNL     1      22.599  -0.724   0.775  0.00  0.00    +0.000 C 
ATOM     41  C   UNL     1      23.442  -1.559   2.967  0.00  0.00    +0.000 C 
ATOM     42  C   UNL     1      23.410  -2.055   4.378  0.00  0.00    +0.000 C 
ENDBRANCH  38  39
ENDBRANCH  36  38
ENDBRANCH  35  36
ENDBRANCH  11  35
TORSDOF 7
ENDMDL
MODEL 8
REMARK VINA RESULT:      -5.7     13.501     17.381
REMARK  Name = 
REMARK  14 active torsions:
REMARK  status: ('A' for Active; 'I' for Inactive)
REMARK    1  A    between atoms: O_1  and  C_24
REMARK    2  A    between atoms: O_1  and  C_36
REMARK    3  A    between atoms: O_4  and  C_30
REMARK    4  A    between atoms: O_4  and  C_37
REMARK    5  A    between atoms: O_7  and  C_33
REMARK    6  A    between atoms: O_7  and  C_38
REMARK    7  A    between atoms: N_10  and  C_23
REMARK    8  A    between atoms: C_15  and  C_26
REMARK    9  A    between atoms: C_16  and  C_24
REMARK   10  A    between atoms: C_31  and  C_34
REMARK   11  A    between atoms: C_32  and  C_35
REMARK   12  A    between atoms: C_36  and  C_39
REMARK   13  A    between atoms: C_39  and  C_40
REMARK   14  A    between atoms: C_41  and  C_42
REMARK                            x       y       z     vdW  Elec       q    Type
REMARK                         _______ _______ _______ _____ _____    ______ ____
ROOT
ATOM      1  O   UNL     1      14.245   6.096  37.370  0.00  0.00    +0.000 OA
ATOM      2  O   UNL     1      15.489   0.970  36.703  0.00  0.00    +0.000 OA
ATOM      3  O   UNL     1      13.726   8.651  33.504  0.00  0.00    +0.000 OA
ATOM      4  O   UNL     1      16.952   6.352  29.959  0.00  0.00    +0.000 OA
ATOM      5  N   UNL     1      17.191   4.972  33.983  0.00  0.00    +0.000 NA
ATOM      6  N   UNL     1      18.237   5.165  36.721  0.00  0.00    +0.000 NA
ATOM      7  C   UNL     1      16.824   6.081  34.901  0.00  0.00    +0.000 C 
ATOM      8  C   UNL     1      16.849   5.619  36.420  0.00  0.00    +0.000 C 
ATOM      9  C   UNL     1      18.534   3.962  35.901  0.00  0.00    +0.000 C 
ATOM     10  C   UNL     1      18.491   4.338  34.372  0.00  0.00    +0.000 C 
ATOM     11  C   UNL     1      17.081   5.260  32.526  0.00  0.00    +0.000 C 
ATOM     12  C   UNL     1      15.453   6.680  34.519  0.00  0.00    +0.000 C 
ATOM     13  C   UNL     1      17.563   2.789  36.209  0.00  0.00    +0.000 C 
ATOM     14  C   UNL     1      15.834   4.515  36.683  0.00  0.00    +0.000 C 
ATOM     15  C   UNL     1      16.162   3.219  36.563  0.00  0.00    +0.000 C 
ATOM     16  C   UNL     1      16.150   6.408  32.167  0.00  0.00    +0.000 C 
ATOM     17  C   UNL     1      15.388   7.041  33.067  0.00  0.00    +0.000 C 
ATOM     18  C   UNL     1      18.501   4.995  38.146  0.00  0.00    +0.000 C 
ATOM     19  C   UNL     1      14.484   4.915  37.138  0.00  0.00    +0.000 C 
ATOM     20  C   UNL     1      15.172   2.150  36.808  0.00  0.00    +0.000 C 
ATOM     21  C   UNL     1      14.454   8.119  32.674  0.00  0.00    +0.000 C 
ATOM     22  C   UNL     1      16.155   6.848  30.747  0.00  0.00    +0.000 C 
ATOM     23  C   UNL     1      13.448   3.842  37.297  0.00  0.00    +0.000 C 
ATOM     24  C   UNL     1      13.786   2.549  37.164  0.00  0.00    +0.000 C 
ATOM     25  C   UNL     1      14.400   8.511  31.244  0.00  0.00    +0.000 C 
ATOM     26  C   UNL     1      15.178   7.907  30.330  0.00  0.00    +0.000 C 
ATOM     27  C   UNL     1      12.831   1.408  37.358  0.00  0.00    +0.000 C 
ATOM     28  C   UNL     1      13.424   9.606  30.924  0.00  0.00    +0.000 C 
ENDROOT
BRANCH  23  29
ATOM     29  O   UNL     1      12.140   4.160  37.647  0.00  0.00    +0.000 OA
ATOM     30  C   UNL     1      11.915   4.386  39.037  0.00  0.00    +0.000 C 
ENDBRANCH  23  29
BRANCH  26  31
ATOM     31  O   UNL     1      15.108   8.324  29.005  0.00  0.00    +0.000 OA
ATOM     32  C   UNL     1      16.059   9.322  28.637  0.00  0.00    +0.000 C 
ENDBRANCH  26  31
BRANCH  10  34
ATOM     33  N   UNL     1      20.627   5.814  33.827  0.00  0.00    +0.000 NA
ATOM     34  C   UNL     1      19.698   5.154  34.050  0.00  0.00    +0.000 C 
ENDBRANCH  10  34
BRANCH  11  35
ATOM     35  C   UNL     1      16.607   3.952  31.825  0.00  0.00    +0.000 C 
BRANCH  35  36
ATOM     36  O   UNL     1      15.174   3.994  31.663  0.00  0.00    +0.000 OA
BRANCH  36  38
ATOM     37  O   UNL     1      14.958   2.481  33.369  0.00  0.00    +0.000 OA
ATOM     38  C   UNL     1      14.478   3.261  32.563  0.00  0.00    +0.000 C 
BRANCH  38  39
ATOM     39  C   UNL     1      13.034   3.631  32.538  0.00  0.00    +0.000 C 
ATOM     40  C   UNL     1      12.616   4.476  33.708  0.00  0.00    +0.000 C 
ATOM     41  C   UNL     1      12.157   3.252  31.586  0.00  0.00    +0.000 C 
ATOM     42  C   UNL     1      12.385   2.339  30.424  0.00  0.00    +0.000 C 
ENDBRANCH  38  39
ENDBRANCH  36  38
ENDBRANCH  35  36
ENDBRANCH  11  35
TORSDOF 7
ENDMDL
MODEL 9
REMARK VINA RESULT:      -5.7     22.116     26.879
REMARK  Name = 
REMARK  14 active torsions:
REMARK  status: ('A' for Active; 'I' for Inactive)
REMARK    1  A    between atoms: O_1  and  C_24
REMARK    2  A    between atoms: O_1  and  C_36
REMARK    3  A    between atoms: O_4  and  C_30
REMARK    4  A    between atoms: O_4  and  C_37
REMARK    5  A    between atoms: O_7  and  C_33
REMARK    6  A    between atoms: O_7  and  C_38
REMARK    7  A    between atoms: N_10  and  C_23
REMARK    8  A    between atoms: C_15  and  C_26
REMARK    9  A    between atoms: C_16  and  C_24
REMARK   10  A    between atoms: C_31  and  C_34
REMARK   11  A    between atoms: C_32  and  C_35
REMARK   12  A    between atoms: C_36  and  C_39
REMARK   13  A    between atoms: C_39  and  C_40
REMARK   14  A    between atoms: C_41  and  C_42
REMARK                            x       y       z     vdW  Elec       q    Type
REMARK                         _______ _______ _______ _____ _____    ______ ____
ROOT
ATOM      1  O   UNL     1      45.752   1.335  10.303  0.00  0.00    +0.000 OA
ATOM      2  O   UNL     1      43.060  -3.248  10.176  0.00  0.00    +0.000 OA
ATOM      3  O   UNL     1      43.970   4.745  12.938  0.00  0.00    +0.000 OA
ATOM      4  O   UNL     1      38.727   3.862  12.870  0.00  0.00    +0.000 OA
ATOM      5  N   UNL     1      41.127   1.503  10.257  0.00  0.00    +0.000 NA
ATOM      6  N   UNL     1      42.524   1.084   7.708  0.00  0.00    +0.000 NA
ATOM      7  C   UNL     1      42.335   2.278   9.872  0.00  0.00    +0.000 C 
ATOM      8  C   UNL     1      43.299   1.435   8.932  0.00  0.00    +0.000 C 
ATOM      9  C   UNL     1      41.405   0.185   8.092  0.00  0.00    +0.000 C 
ATOM     10  C   UNL     1      40.422   0.945   9.059  0.00  0.00    +0.000 C 
ATOM     11  C   UNL     1      40.214   2.152  11.238  0.00  0.00    +0.000 C 
ATOM     12  C   UNL     1      43.080   2.791  11.123  0.00  0.00    +0.000 C 
ATOM     13  C   UNL     1      41.910  -1.134   8.741  0.00  0.00    +0.000 C 
ATOM     14  C   UNL     1      43.817   0.190   9.637  0.00  0.00    +0.000 C 
ATOM     15  C   UNL     1      43.164  -0.979   9.564  0.00  0.00    +0.000 C 
ATOM     16  C   UNL     1      40.854   3.236  12.091  0.00  0.00    +0.000 C 
ATOM     17  C   UNL     1      42.163   3.515  12.061  0.00  0.00    +0.000 C 
ATOM     18  C   UNL     1      43.350   0.574   6.618  0.00  0.00    +0.000 C 
ATOM     19  C   UNL     1      45.105   0.294  10.361  0.00  0.00    +0.000 C 
ATOM     20  C   UNL     1      43.663  -2.184  10.259  0.00  0.00    +0.000 C 
ATOM     21  C   UNL     1      42.761   4.541  12.943  0.00  0.00    +0.000 C 
ATOM     22  C   UNL     1      39.939   4.034  12.948  0.00  0.00    +0.000 C 
ATOM     23  C   UNL     1      45.569  -0.896  11.146  0.00  0.00    +0.000 C 
ATOM     24  C   UNL     1      44.900  -2.058  11.073  0.00  0.00    +0.000 C 
ATOM     25  C   UNL     1      41.860   5.289  13.855  0.00  0.00    +0.000 C 
ATOM     26  C   UNL     1      40.540   5.044  13.880  0.00  0.00    +0.000 C 
ATOM     27  C   UNL     1      45.321  -3.314  11.779  0.00  0.00    +0.000 C 
ATOM     28  C   UNL     1      42.542   6.307  14.723  0.00  0.00    +0.000 C 
ENDROOT
BRANCH  23  29
ATOM     29  O   UNL     1      46.731  -0.838  11.908  0.00  0.00    +0.000 OA
ATOM     30  C   UNL     1      46.589  -0.244  13.196  0.00  0.00    +0.000 C 
ENDBRANCH  23  29
BRANCH  26  31
ATOM     31  O   UNL     1      39.734   5.787  14.736  0.00  0.00    +0.000 OA
ATOM     32  C   UNL     1      39.383   5.132  15.953  0.00  0.00    +0.000 C 
ENDBRANCH  26  31
BRANCH  10  34
ATOM     33  N   UNL     1      39.100   2.752   7.636  0.00  0.00    +0.000 NA
ATOM     34  C   UNL     1      39.660   1.953   8.265  0.00  0.00    +0.000 C 
ENDBRANCH  10  34
BRANCH  11  35
ATOM     35  C   UNL     1      39.635   1.030  12.151  0.00  0.00    +0.000 C 
BRANCH  35  36
ATOM     36  O   UNL     1      38.285   0.732  11.737  0.00  0.00    +0.000 OA
BRANCH  36  38
ATOM     37  O   UNL     1      37.625  -0.396  13.619  0.00  0.00    +0.000 OA
ATOM     38  C   UNL     1      37.433   0.435  12.746  0.00  0.00    +0.000 C 
BRANCH  38  39
ATOM     39  C   UNL     1      36.266   1.363  12.738  0.00  0.00    +0.000 C 
ATOM     40  C   UNL     1      36.232   2.264  11.536  0.00  0.00    +0.000 C 
ATOM     41  C   UNL     1      35.324   1.426  13.700  0.00  0.00    +0.000 C 
ATOM     42  C   UNL     1      35.267   0.679  14.994  0.00  0.00    +0.000 C 
ENDBRANCH  38  39
ENDBRANCH  36  38
ENDBRANCH  35  36
ENDBRANCH  11  35
TORSDOF 7
ENDMDL
