MODEL 1
REMARK VINA RESULT:      -7.0      0.000      0.000
REMARK  Name = Resveratrol.pdbqt.pdb
REMARK  5 active torsions:
REMARK  status: ('A' for Active; 'I' for Inactive)
REMARK    1  A    between atoms: C_1  and  C_11
REMARK    2  A    between atoms: C_4  and  O_7
REMARK    3  A    between atoms: C_5  and  O_9
REMARK    4  A    between atoms: C_12  and  C_13
REMARK    5  A    between atoms: C_18  and  O_19
REMARK                            x       y       z     vdW  Elec       q    Type
REMARK                         _______ _______ _______ _____ _____    ______ ____
ROOT
ATOM      1  C   UNL     1      35.544  -0.182  15.080  0.00  0.00    +0.000 A 
ATOM      2  C   UNL     1      34.160  -0.174  15.245  0.00  0.00    +0.000 A 
ATOM      3  C   UNL     1      36.350  -0.917  15.950  0.00  0.00    +0.000 A 
ATOM      4  C   UNL     1      35.761  -1.642  16.982  0.00  0.00    +0.000 A 
ATOM      5  C   UNL     1      33.591  -0.905  16.284  0.00  0.00    +0.000 A 
ATOM      6  C   UNL     1      34.381  -1.643  17.159  0.00  0.00    +0.000 A 
ENDROOT
BRANCH   4   7
ATOM      7  O   UNL     1      36.525  -2.370  17.847  0.00  0.00    +0.000 OA
ATOM      8  H   UNL     1      35.940  -2.738  18.534  0.00  0.00    +0.000 HD
ENDBRANCH   4   7
BRANCH   5   9
ATOM      9  O   UNL     1      32.233  -0.882  16.426  0.00  0.00    +0.000 OA
ATOM     10  H   UNL     1      31.843  -1.326  15.652  0.00  0.00    +0.000 HD
ENDBRANCH   5   9
BRANCH   1  11
ATOM     11  C   UNL     1      36.140   0.563  14.021  0.00  0.00    +0.000 C 
ATOM     12  C   UNL     1      36.642   1.191  13.128  0.00  0.00    +0.000 C 
BRANCH  12  13
ATOM     13  C   UNL     1      37.238   1.935  12.067  0.00  0.00    +0.000 A 
ATOM     14  C   UNL     1      37.773   3.198  12.320  0.00  0.00    +0.000 A 
ATOM     15  C   UNL     1      37.284   1.399  10.781  0.00  0.00    +0.000 A 
ATOM     16  C   UNL     1      38.355   3.927  11.287  0.00  0.00    +0.000 A 
ATOM     17  C   UNL     1      37.865   2.125   9.745  0.00  0.00    +0.000 A 
ATOM     18  C   UNL     1      38.396   3.384  10.006  0.00  0.00    +0.000 A 
BRANCH  18  19
ATOM     19  O   UNL     1      38.961   4.076   8.975  0.00  0.00    +0.000 OA
ATOM     20  H   UNL     1      39.927   4.061   9.090  0.00  0.00    +0.000 HD
ENDBRANCH  18  19
ENDBRANCH  12  13
ENDBRANCH   1  11
TORSDOF 5
ENDMDL
MODEL 2
REMARK VINA RESULT:      -6.7     17.279     19.718
REMARK  Name = Resveratrol.pdbqt.pdb
REMARK  5 active torsions:
REMARK  status: ('A' for Active; 'I' for Inactive)
REMARK    1  A    between atoms: C_1  and  C_11
REMARK    2  A    between atoms: C_4  and  O_7
REMARK    3  A    between atoms: C_5  and  O_9
REMARK    4  A    between atoms: C_12  and  C_13
REMARK    5  A    between atoms: C_18  and  O_19
REMARK                            x       y       z     vdW  Elec       q    Type
REMARK                         _______ _______ _______ _____ _____    ______ ____
ROOT
ATOM      1  C   UNL     1      20.920   9.391  17.898  0.00  0.00    +0.000 A 
ATOM      2  C   UNL     1      20.566  10.650  18.382  0.00  0.00    +0.000 A 
ATOM      3  C   UNL     1      21.841   9.272  16.859  0.00  0.00    +0.000 A 
ATOM      4  C   UNL     1      22.406  10.420  16.309  0.00  0.00    +0.000 A 
ATOM      5  C   UNL     1      21.141  11.785  17.819  0.00  0.00    +0.000 A 
ATOM      6  C   UNL     1      22.063  11.682  16.782  0.00  0.00    +0.000 A 
ENDROOT
BRANCH   4   7
ATOM      7  O   UNL     1      23.311  10.333  15.291  0.00  0.00    +0.000 OA
ATOM      8  H   UNL     1      24.182  10.128  15.676  0.00  0.00    +0.000 HD
ENDBRANCH   4   7
BRANCH   5   9
ATOM      9  O   UNL     1      20.780  13.007  18.309  0.00  0.00    +0.000 OA
ATOM     10  H   UNL     1      21.129  13.082  19.215  0.00  0.00    +0.000 HD
ENDBRANCH   5   9
BRANCH   1  11
ATOM     11  C   UNL     1      20.336   8.220  18.466  0.00  0.00    +0.000 C 
ATOM     12  C   UNL     1      19.846   7.233  18.945  0.00  0.00    +0.000 C 
BRANCH  12  13
ATOM     13  C   UNL     1      19.263   6.063  19.514  0.00  0.00    +0.000 A 
ATOM     14  C   UNL     1      18.425   6.173  20.624  0.00  0.00    +0.000 A 
ATOM     15  C   UNL     1      19.533   4.811  18.960  0.00  0.00    +0.000 A 
ATOM     16  C   UNL     1      17.855   5.032  21.181  0.00  0.00    +0.000 A 
ATOM     17  C   UNL     1      18.964   3.668  19.515  0.00  0.00    +0.000 A 
ATOM     18  C   UNL     1      18.130   3.787  20.621  0.00  0.00    +0.000 A 
BRANCH  18  19
ATOM     19  O   UNL     1      17.585   2.652  21.147  0.00  0.00    +0.000 OA
ATOM     20  H   UNL     1      18.162   1.902  20.919  0.00  0.00    +0.000 HD
ENDBRANCH  18  19
ENDBRANCH  12  13
ENDBRANCH   1  11
TORSDOF 5
ENDMDL
MODEL 3
REMARK VINA RESULT:      -6.6      1.749      1.951
REMARK  Name = Resveratrol.pdbqt.pdb
REMARK  5 active torsions:
REMARK  status: ('A' for Active; 'I' for Inactive)
REMARK    1  A    between atoms: C_1  and  C_11
REMARK    2  A    between atoms: C_4  and  O_7
REMARK    3  A    between atoms: C_5  and  O_9
REMARK    4  A    between atoms: C_12  and  C_13
REMARK    5  A    between atoms: C_18  and  O_19
REMARK                            x       y       z     vdW  Elec       q    Type
REMARK                         _______ _______ _______ _____ _____    ______ ____
ROOT
ATOM      1  C   UNL     1      36.260   0.010  14.729  0.00  0.00    +0.000 A 
ATOM      2  C   UNL     1      35.748   0.998  15.569  0.00  0.00    +0.000 A 
ATOM      3  C   UNL     1      36.369  -1.306  15.178  0.00  0.00    +0.000 A 
ATOM      4  C   UNL     1      35.961  -1.624  16.471  0.00  0.00    +0.000 A 
ATOM      5  C   UNL     1      35.347   0.659  16.858  0.00  0.00    +0.000 A 
ATOM      6  C   UNL     1      35.448  -0.649  17.320  0.00  0.00    +0.000 A 
ENDROOT
BRANCH   4   7
ATOM      7  O   UNL     1      36.056  -2.904  16.937  0.00  0.00    +0.000 OA
ATOM      8  H   UNL     1      36.369  -3.469  16.209  0.00  0.00    +0.000 HD
ENDBRANCH   4   7
BRANCH   5   9
ATOM      9  O   UNL     1      34.848   1.643  17.662  0.00  0.00    +0.000 OA
ATOM     10  H   UNL     1      33.968   1.361  17.971  0.00  0.00    +0.000 HD
ENDBRANCH   5   9
BRANCH   1  11
ATOM     11  C   UNL     1      36.675   0.344  13.407  0.00  0.00    +0.000 C 
ATOM     12  C   UNL     1      37.025   0.626  12.292  0.00  0.00    +0.000 C 
BRANCH  12  13
ATOM     13  C   UNL     1      37.439   0.961  10.970  0.00  0.00    +0.000 A 
ATOM     14  C   UNL     1      38.446   1.907  10.776  0.00  0.00    +0.000 A 
ATOM     15  C   UNL     1      36.837   0.344   9.874  0.00  0.00    +0.000 A 
ATOM     16  C   UNL     1      38.853   2.235   9.486  0.00  0.00    +0.000 A 
ATOM     17  C   UNL     1      37.241   0.670   8.582  0.00  0.00    +0.000 A 
ATOM     18  C   UNL     1      38.246   1.614   8.398  0.00  0.00    +0.000 A 
BRANCH  18  19
ATOM     19  O   UNL     1      38.625   1.917   7.123  0.00  0.00    +0.000 OA
ATOM     20  H   UNL     1      39.193   2.707   7.153  0.00  0.00    +0.000 HD
ENDBRANCH  18  19
ENDBRANCH  12  13
ENDBRANCH   1  11
TORSDOF 5
ENDMDL
MODEL 4
REMARK VINA RESULT:      -6.5      2.775      3.548
REMARK  Name = Resveratrol.pdbqt.pdb
REMARK  5 active torsions:
REMARK  status: ('A' for Active; 'I' for Inactive)
REMARK    1  A    between atoms: C_1  and  C_11
REMARK    2  A    between atoms: C_4  and  O_7
REMARK    3  A    between atoms: C_5  and  O_9
REMARK    4  A    between atoms: C_12  and  C_13
REMARK    5  A    between atoms: C_18  and  O_19
REMARK                            x       y       z     vdW  Elec       q    Type
REMARK                         _______ _______ _______ _____ _____    ______ ____
ROOT
ATOM      1  C   UNL     1      36.109   0.947  13.594  0.00  0.00    +0.000 A 
ATOM      2  C   UNL     1      35.256   2.050  13.620  0.00  0.00    +0.000 A 
ATOM      3  C   UNL     1      36.280   0.165  14.735  0.00  0.00    +0.000 A 
ATOM      4  C   UNL     1      35.593   0.495  15.901  0.00  0.00    +0.000 A 
ATOM      5  C   UNL     1      34.579   2.363  14.795  0.00  0.00    +0.000 A 
ATOM      6  C   UNL     1      34.739   1.592  15.942  0.00  0.00    +0.000 A 
ENDROOT
BRANCH   4   7
ATOM      7  O   UNL     1      35.741  -0.253  17.033  0.00  0.00    +0.000 OA
ATOM      8  H   UNL     1      34.865  -0.593  17.288  0.00  0.00    +0.000 HD
ENDBRANCH   4   7
BRANCH   5   9
ATOM      9  O   UNL     1      33.750   3.448  14.797  0.00  0.00    +0.000 OA
ATOM     10  H   UNL     1      34.299   4.246  14.706  0.00  0.00    +0.000 HD
ENDBRANCH   5   9
BRANCH   1  11
ATOM     11  C   UNL     1      36.809   0.617  12.396  0.00  0.00    +0.000 C 
ATOM     12  C   UNL     1      37.400   0.338  11.388  0.00  0.00    +0.000 C 
BRANCH  12  13
ATOM     13  C   UNL     1      38.101   0.007  10.191  0.00  0.00    +0.000 A 
ATOM     14  C   UNL     1      37.707   0.569   8.977  0.00  0.00    +0.000 A 
ATOM     15  C   UNL     1      39.178  -0.877  10.237  0.00  0.00    +0.000 A 
ATOM     16  C   UNL     1      38.389   0.247   7.807  0.00  0.00    +0.000 A 
ATOM     17  C   UNL     1      39.863  -1.202   9.070  0.00  0.00    +0.000 A 
ATOM     18  C   UNL     1      39.463  -0.637   7.863  0.00  0.00    +0.000 A 
BRANCH  18  19
ATOM     19  O   UNL     1      40.150  -0.970   6.732  0.00  0.00    +0.000 OA
ATOM     20  H   UNL     1      40.401  -0.149   6.274  0.00  0.00    +0.000 HD
ENDBRANCH  18  19
ENDBRANCH  12  13
ENDBRANCH   1  11
TORSDOF 5
ENDMDL
MODEL 5
REMARK VINA RESULT:      -6.3      2.365      7.512
REMARK  Name = Resveratrol.pdbqt.pdb
REMARK  5 active torsions:
REMARK  status: ('A' for Active; 'I' for Inactive)
REMARK    1  A    between atoms: C_1  and  C_11
REMARK    2  A    between atoms: C_4  and  O_7
REMARK    3  A    between atoms: C_5  and  O_9
REMARK    4  A    between atoms: C_12  and  C_13
REMARK    5  A    between atoms: C_18  and  O_19
REMARK                            x       y       z     vdW  Elec       q    Type
REMARK                         _______ _______ _______ _____ _____    ______ ____
ROOT
ATOM      1  C   UNL     1      38.706   2.897  13.660  0.00  0.00    +0.000 A 
ATOM      2  C   UNL     1      39.110   4.091  14.256  0.00  0.00    +0.000 A 
ATOM      3  C   UNL     1      39.392   2.399  12.553  0.00  0.00    +0.000 A 
ATOM      4  C   UNL     1      40.482   3.102  12.049  0.00  0.00    +0.000 A 
ATOM      5  C   UNL     1      40.202   4.780  13.737  0.00  0.00    +0.000 A 
ATOM      6  C   UNL     1      40.897   4.294  12.634  0.00  0.00    +0.000 A 
ENDROOT
BRANCH   4   7
ATOM      7  O   UNL     1      41.173   2.638  10.968  0.00  0.00    +0.000 OA
ATOM      8  H   UNL     1      41.879   3.275  10.761  0.00  0.00    +0.000 HD
ENDBRANCH   4   7
BRANCH   5   9
ATOM      9  O   UNL     1      40.579   5.946  14.337  0.00  0.00    +0.000 OA
ATOM     10  H   UNL     1      39.813   6.294  14.827  0.00  0.00    +0.000 HD
ENDBRANCH   5   9
BRANCH   1  11
ATOM     11  C   UNL     1      37.588   2.183  14.182  0.00  0.00    +0.000 C 
ATOM     12  C   UNL     1      36.645   1.582  14.623  0.00  0.00    +0.000 C 
BRANCH  12  13
ATOM     13  C   UNL     1      35.526   0.868  15.145  0.00  0.00    +0.000 A 
ATOM     14  C   UNL     1      35.508   0.489  16.487  0.00  0.00    +0.000 A 
ATOM     15  C   UNL     1      34.453   0.551  14.312  0.00  0.00    +0.000 A 
ATOM     16  C   UNL     1      34.417  -0.207  16.999  0.00  0.00    +0.000 A 
ATOM     17  C   UNL     1      33.360  -0.145  14.820  0.00  0.00    +0.000 A 
ATOM     18  C   UNL     1      33.351  -0.519  16.160  0.00  0.00    +0.000 A 
BRANCH  18  19
ATOM     19  O   UNL     1      32.269  -1.201  16.635  0.00  0.00    +0.000 OA
ATOM     20  H   UNL     1      31.797  -1.590  15.878  0.00  0.00    +0.000 HD
ENDBRANCH  18  19
ENDBRANCH  12  13
ENDBRANCH   1  11
TORSDOF 5
ENDMDL
MODEL 6
REMARK VINA RESULT:      -6.2     11.839     13.003
REMARK  Name = Resveratrol.pdbqt.pdb
REMARK  5 active torsions:
REMARK  status: ('A' for Active; 'I' for Inactive)
REMARK    1  A    between atoms: C_1  and  C_11
REMARK    2  A    between atoms: C_4  and  O_7
REMARK    3  A    between atoms: C_5  and  O_9
REMARK    4  A    between atoms: C_12  and  C_13
REMARK    5  A    between atoms: C_18  and  O_19
REMARK                            x       y       z     vdW  Elec       q    Type
REMARK                         _______ _______ _______ _____ _____    ______ ____
ROOT
ATOM      1  C   UNL     1      25.816  -0.923   5.322  0.00  0.00    +0.000 A 
ATOM      2  C   UNL     1      25.101  -0.053   6.144  0.00  0.00    +0.000 A 
ATOM      3  C   UNL     1      25.239  -2.119   4.896  0.00  0.00    +0.000 A 
ATOM      4  C   UNL     1      23.943  -2.436   5.297  0.00  0.00    +0.000 A 
ATOM      5  C   UNL     1      23.808  -0.388   6.534  0.00  0.00    +0.000 A 
ATOM      6  C   UNL     1      23.219  -1.577   6.117  0.00  0.00    +0.000 A 
ENDROOT
BRANCH   4   7
ATOM      7  O   UNL     1      23.353  -3.599   4.895  0.00  0.00    +0.000 OA
ATOM      8  H   UNL     1      23.932  -4.338   5.154  0.00  0.00    +0.000 HD
ENDBRANCH   4   7
BRANCH   5   9
ATOM      9  O   UNL     1      23.128   0.480   7.339  0.00  0.00    +0.000 OA
ATOM     10  H   UNL     1      23.104   0.102   8.236  0.00  0.00    +0.000 HD
ENDBRANCH   5   9
BRANCH   1  11
ATOM     11  C   UNL     1      27.142  -0.592   4.916  0.00  0.00    +0.000 C 
ATOM     12  C   UNL     1      28.260  -0.313   4.574  0.00  0.00    +0.000 C 
BRANCH  12  13
ATOM     13  C   UNL     1      29.586   0.017   4.168  0.00  0.00    +0.000 A 
ATOM     14  C   UNL     1      30.520  -0.996   3.955  0.00  0.00    +0.000 A 
ATOM     15  C   UNL     1      29.945   1.352   3.984  0.00  0.00    +0.000 A 
ATOM     16  C   UNL     1      31.816  -0.676   3.559  0.00  0.00    +0.000 A 
ATOM     17  C   UNL     1      31.240   1.677   3.588  0.00  0.00    +0.000 A 
ATOM     18  C   UNL     1      32.165   0.659   3.378  0.00  0.00    +0.000 A 
BRANCH  18  19
ATOM     19  O   UNL     1      33.428   1.002   2.990  0.00  0.00    +0.000 OA
ATOM     20  H   UNL     1      33.907   0.187   2.758  0.00  0.00    +0.000 HD
ENDBRANCH  18  19
ENDBRANCH  12  13
ENDBRANCH   1  11
TORSDOF 5
ENDMDL
MODEL 7
REMARK VINA RESULT:      -6.1      4.813      7.876
REMARK  Name = Resveratrol.pdbqt.pdb
REMARK  5 active torsions:
REMARK  status: ('A' for Active; 'I' for Inactive)
REMARK    1  A    between atoms: C_1  and  C_11
REMARK    2  A    between atoms: C_4  and  O_7
REMARK    3  A    between atoms: C_5  and  O_9
REMARK    4  A    between atoms: C_12  and  C_13
REMARK    5  A    between atoms: C_18  and  O_19
REMARK                            x       y       z     vdW  Elec       q    Type
REMARK                         _______ _______ _______ _____ _____    ______ ____
ROOT
ATOM      1  C   UNL     1      37.907   4.638  17.074  0.00  0.00    +0.000 A 
ATOM      2  C   UNL     1      37.873   5.410  18.234  0.00  0.00    +0.000 A 
ATOM      3  C   UNL     1      38.844   4.908  16.078  0.00  0.00    +0.000 A 
ATOM      4  C   UNL     1      39.747   5.954  16.253  0.00  0.00    +0.000 A 
ATOM      5  C   UNL     1      38.783   6.451  18.389  0.00  0.00    +0.000 A 
ATOM      6  C   UNL     1      39.725   6.732  17.405  0.00  0.00    +0.000 A 
ENDROOT
BRANCH   4   7
ATOM      7  O   UNL     1      40.676   6.240  15.295  0.00  0.00    +0.000 OA
ATOM      8  H   UNL     1      41.067   7.108  15.501  0.00  0.00    +0.000 HD
ENDBRANCH   4   7
BRANCH   5   9
ATOM      9  O   UNL     1      38.732   7.194  19.534  0.00  0.00    +0.000 OA
ATOM     10  H   UNL     1      38.663   6.580  20.287  0.00  0.00    +0.000 HD
ENDBRANCH   5   9
BRANCH   1  11
ATOM     11  C   UNL     1      36.979   3.568  16.903  0.00  0.00    +0.000 C 
ATOM     12  C   UNL     1      36.197   2.667  16.758  0.00  0.00    +0.000 C 
BRANCH  12  13
ATOM     13  C   UNL     1      35.270   1.598  16.587  0.00  0.00    +0.000 A 
ATOM     14  C   UNL     1      35.206   0.576  17.533  0.00  0.00    +0.000 A 
ATOM     15  C   UNL     1      34.430   1.576  15.473  0.00  0.00    +0.000 A 
ATOM     16  C   UNL     1      34.301  -0.469  17.369  0.00  0.00    +0.000 A 
ATOM     17  C   UNL     1      33.525   0.532  15.305  0.00  0.00    +0.000 A 
ATOM     18  C   UNL     1      33.468  -0.483  16.254  0.00  0.00    +0.000 A 
BRANCH  18  19
ATOM     19  O   UNL     1      32.572  -1.495  16.067  0.00  0.00    +0.000 OA
ATOM     20  H   UNL     1      32.732  -2.173  16.747  0.00  0.00    +0.000 HD
ENDBRANCH  18  19
ENDBRANCH  12  13
ENDBRANCH   1  11
TORSDOF 5
ENDMDL
MODEL 8
REMARK VINA RESULT:      -5.9     20.780     22.530
REMARK  Name = Resveratrol.pdbqt.pdb
REMARK  5 active torsions:
REMARK  status: ('A' for Active; 'I' for Inactive)
REMARK    1  A    between atoms: C_1  and  C_11
REMARK    2  A    between atoms: C_4  and  O_7
REMARK    3  A    between atoms: C_5  and  O_9
REMARK    4  A    between atoms: C_12  and  C_13
REMARK    5  A    between atoms: C_18  and  O_19
REMARK                            x       y       z     vdW  Elec       q    Type
REMARK                         _______ _______ _______ _____ _____    ______ ____
ROOT
ATOM      1  C   UNL     1      22.572 -12.073  24.623  0.00  0.00    +0.000 A 
ATOM      2  C   UNL     1      21.265 -12.297  25.054  0.00  0.00    +0.000 A 
ATOM      3  C   UNL     1      23.005 -10.779  24.336  0.00  0.00    +0.000 A 
ATOM      4  C   UNL     1      22.121  -9.713  24.484  0.00  0.00    +0.000 A 
ATOM      5  C   UNL     1      20.398 -11.218  25.194  0.00  0.00    +0.000 A 
ATOM      6  C   UNL     1      20.814  -9.921  24.913  0.00  0.00    +0.000 A 
ENDROOT
BRANCH   4   7
ATOM      7  O   UNL     1      22.517  -8.436  24.211  0.00  0.00    +0.000 OA
ATOM      8  H   UNL     1      22.049  -7.836  24.818  0.00  0.00    +0.000 HD
ENDBRANCH   4   7
BRANCH   5   9
ATOM      9  O   UNL     1      19.123 -11.461  25.618  0.00  0.00    +0.000 OA
ATOM     10  H   UNL     1      18.821 -12.289  25.202  0.00  0.00    +0.000 HD
ENDBRANCH   5   9
BRANCH   1  11
ATOM     11  C   UNL     1      23.471 -13.170  24.474  0.00  0.00    +0.000 C 
ATOM     12  C   UNL     1      24.228 -14.095  24.349  0.00  0.00    +0.000 C 
BRANCH  12  13
ATOM     13  C   UNL     1      25.127 -15.192  24.200  0.00  0.00    +0.000 A 
ATOM     14  C   UNL     1      25.987 -15.242  23.104  0.00  0.00    +0.000 A 
ATOM     15  C   UNL     1      25.142 -16.212  25.151  0.00  0.00    +0.000 A 
ATOM     16  C   UNL     1      26.866 -16.312  22.958  0.00  0.00    +0.000 A 
ATOM     17  C   UNL     1      26.019 -17.284  25.008  0.00  0.00    +0.000 A 
ATOM     18  C   UNL     1      26.874 -17.326  23.911  0.00  0.00    +0.000 A 
BRANCH  18  19
ATOM     19  O   UNL     1      27.724 -18.386  23.792  0.00  0.00    +0.000 OA
ATOM     20  H   UNL     1      27.456 -18.906  23.015  0.00  0.00    +0.000 HD
ENDBRANCH  18  19
ENDBRANCH  12  13
ENDBRANCH   1  11
TORSDOF 5
ENDMDL
MODEL 9
REMARK VINA RESULT:      -5.9     11.289     13.712
REMARK  Name = Resveratrol.pdbqt.pdb
REMARK  5 active torsions:
REMARK  status: ('A' for Active; 'I' for Inactive)
REMARK    1  A    between atoms: C_1  and  C_11
REMARK    2  A    between atoms: C_4  and  O_7
REMARK    3  A    between atoms: C_5  and  O_9
REMARK    4  A    between atoms: C_12  and  C_13
REMARK    5  A    between atoms: C_18  and  O_19
REMARK                            x       y       z     vdW  Elec       q    Type
REMARK                         _______ _______ _______ _____ _____    ______ ____
ROOT
ATOM      1  C   UNL     1      30.632  -0.836   4.040  0.00  0.00    +0.000 A 
ATOM      2  C   UNL     1      31.527   0.155   4.440  0.00  0.00    +0.000 A 
ATOM      3  C   UNL     1      31.083  -1.937   3.314  0.00  0.00    +0.000 A 
ATOM      4  C   UNL     1      32.434  -2.039   2.993  0.00  0.00    +0.000 A 
ATOM      5  C   UNL     1      32.873   0.035   4.109  0.00  0.00    +0.000 A 
ATOM      6  C   UNL     1      33.338  -1.059   3.386  0.00  0.00    +0.000 A 
ENDROOT
BRANCH   4   7
ATOM      7  O   UNL     1      32.903  -3.106   2.283  0.00  0.00    +0.000 OA
ATOM      8  H   UNL     1      32.379  -3.889   2.530  0.00  0.00    +0.000 HD
ENDBRANCH   4   7
BRANCH   5   9
ATOM      9  O   UNL     1      33.731   1.017   4.512  0.00  0.00    +0.000 OA
ATOM     10  H   UNL     1      33.205   1.727   4.921  0.00  0.00    +0.000 HD
ENDBRANCH   5   9
BRANCH   1  11
ATOM     11  C   UNL     1      29.249  -0.723   4.373  0.00  0.00    +0.000 C 
ATOM     12  C   UNL     1      28.085  -0.629   4.653  0.00  0.00    +0.000 C 
BRANCH  12  13
ATOM     13  C   UNL     1      26.703  -0.517   4.986  0.00  0.00    +0.000 A 
ATOM     14  C   UNL     1      26.219   0.661   5.555  0.00  0.00    +0.000 A 
ATOM     15  C   UNL     1      25.839  -1.585   4.743  0.00  0.00    +0.000 A 
ATOM     16  C   UNL     1      24.870   0.773   5.881  0.00  0.00    +0.000 A 
ATOM     17  C   UNL     1      24.490  -1.477   5.068  0.00  0.00    +0.000 A 
ATOM     18  C   UNL     1      24.016  -0.299   5.635  0.00  0.00    +0.000 A 
BRANCH  18  19
ATOM     19  O   UNL     1      22.690  -0.216   5.945  0.00  0.00    +0.000 OA
ATOM     20  H   UNL     1      22.249   0.318   5.261  0.00  0.00    +0.000 HD
ENDBRANCH  18  19
ENDBRANCH  12  13
ENDBRANCH   1  11
TORSDOF 5
ENDMDL
