MODEL 1
REMARK VINA RESULT:      -6.5      0.000      0.000
REMARK  Name = RetinoicAcid.pdbqt.pdb
REMARK  6 active torsions:
REMARK  status: ('A' for Active; 'I' for Inactive)
REMARK    1  A    between atoms: C_1  and  C_3
REMARK    2  A    between atoms: C_1  and  C_5
REMARK    3  A    between atoms: C_3  and  C_15
REMARK    4  A    between atoms: C_4  and  C_9
REMARK    5  A    between atoms: C_16  and  C_17
REMARK    6  A    between atoms: C_21  and  O_22
REMARK                            x       y       z     vdW  Elec       q    Type
REMARK                         _______ _______ _______ _____ _____    ______ ____
ROOT
ATOM      1  C   UNL     1      38.927   2.468  13.313  0.00  0.00    +0.000 C 
ATOM      2  C   UNL     1      39.175   3.909  13.639  0.00  0.00    +0.000 C 
ENDROOT
BRANCH   1   4
ATOM      3  C   UNL     1      37.098   1.126  14.622  0.00  0.00    +0.000 C 
ATOM      4  C   UNL     1      37.935   1.742  14.016  0.00  0.00    +0.000 C 
BRANCH   3   8
ATOM      5  C   UNL     1      34.838   1.133  15.911  0.00  0.00    +0.000 C 
ATOM      6  C   UNL     1      33.984   0.143  16.608  0.00  0.00    +0.000 C 
ATOM      7  C   UNL     1      33.917  -1.329  16.963  0.00  0.00    +0.000 C 
ATOM      8  C   UNL     1      36.098   0.387  15.356  0.00  0.00    +0.000 C 
ATOM      9  C   UNL     1      35.232  -1.637  16.282  0.00  0.00    +0.000 C 
ATOM     10  C   UNL     1      36.244  -0.945  15.557  0.00  0.00    +0.000 C 
ATOM     11  C   UNL     1      35.299   2.229  16.910  0.00  0.00    +0.000 C 
ATOM     12  C   UNL     1      34.060   1.754  14.716  0.00  0.00    +0.000 C 
ATOM     13  C   UNL     1      37.406  -1.758  15.057  0.00  0.00    +0.000 C 
ENDBRANCH   3   8
ENDBRANCH   1   4
BRANCH   1  14
ATOM     14  C   UNL     1      39.654   1.873  12.421  0.00  0.00    +0.000 C 
BRANCH  14  15
ATOM     15  C   UNL     1      40.513   1.167  11.363  0.00  0.00    +0.000 C 
ATOM     16  C   UNL     1      41.184   0.613  10.537  0.00  0.00    +0.000 C 
BRANCH  16  17
ATOM     17  C   UNL     1      41.971  -0.043   9.560  0.00  0.00    +0.000 C 
ATOM     18  C   UNL     1      42.347   0.677   8.301  0.00  0.00    +0.000 C 
ATOM     19  C   UNL     1      42.336  -1.268   9.739  0.00  0.00    +0.000 C 
ATOM     20  O   UNL     1      43.705  -2.919  10.630  0.00  0.00    +0.000 OA
ATOM     21  C   UNL     1      42.742  -2.612   9.952  0.00  0.00    +0.000 C 
BRANCH  21  22
ATOM     22  O   UNL     1      41.954  -3.522   9.358  0.00  0.00    +0.000 OA
ATOM     23  H   UNL     1      42.038  -4.318   9.924  0.00  0.00    +0.000 HD
ENDBRANCH  21  22
ENDBRANCH  16  17
ENDBRANCH  14  15
ENDBRANCH   1  14
TORSDOF 6
ENDMDL
MODEL 2
REMARK VINA RESULT:      -6.4     20.123     22.412
REMARK  Name = RetinoicAcid.pdbqt.pdb
REMARK  6 active torsions:
REMARK  status: ('A' for Active; 'I' for Inactive)
REMARK    1  A    between atoms: C_1  and  C_3
REMARK    2  A    between atoms: C_1  and  C_5
REMARK    3  A    between atoms: C_3  and  C_15
REMARK    4  A    between atoms: C_4  and  C_9
REMARK    5  A    between atoms: C_16  and  C_17
REMARK    6  A    between atoms: C_21  and  O_22
REMARK                            x       y       z     vdW  Elec       q    Type
REMARK                         _______ _______ _______ _____ _____    ______ ____
ROOT
ATOM      1  C   UNL     1      18.055   8.429  20.175  0.00  0.00    +0.000 C 
ATOM      2  C   UNL     1      17.628   9.149  21.416  0.00  0.00    +0.000 C 
ENDROOT
BRANCH   1   4
ATOM      3  C   UNL     1      17.296   5.955  19.769  0.00  0.00    +0.000 C 
ATOM      4  C   UNL     1      17.641   7.093  19.951  0.00  0.00    +0.000 C 
BRANCH   3   8
ATOM      5  C   UNL     1      17.832   3.419  19.993  0.00  0.00    +0.000 C 
ATOM      6  C   UNL     1      17.165   2.137  19.666  0.00  0.00    +0.000 C 
ATOM      7  C   UNL     1      15.893   1.579  19.057  0.00  0.00    +0.000 C 
ATOM      8  C   UNL     1      16.886   4.587  19.555  0.00  0.00    +0.000 C 
ATOM      9  C   UNL     1      15.318   2.954  18.797  0.00  0.00    +0.000 C 
ATOM     10  C   UNL     1      15.686   4.316  18.985  0.00  0.00    +0.000 C 
ATOM     11  C   UNL     1      19.170   3.532  19.213  0.00  0.00    +0.000 C 
ATOM     12  C   UNL     1      18.066   3.516  21.527  0.00  0.00    +0.000 C 
ATOM     13  C   UNL     1      14.700   5.361  18.542  0.00  0.00    +0.000 C 
ENDBRANCH   3   8
ENDBRANCH   1   4
BRANCH   1  14
ATOM     14  C   UNL     1      18.844   9.012  19.328  0.00  0.00    +0.000 C 
BRANCH  14  15
ATOM     15  C   UNL     1      19.778   9.700  18.324  0.00  0.00    +0.000 C 
ATOM     16  C   UNL     1      20.510  10.237  17.539  0.00  0.00    +0.000 C 
BRANCH  16  17
ATOM     17  C   UNL     1      21.373  10.866  16.609  0.00  0.00    +0.000 C 
ATOM     18  C   UNL     1      22.778  11.201  17.007  0.00  0.00    +0.000 C 
ATOM     19  C   UNL     1      20.941  11.179  15.434  0.00  0.00    +0.000 C 
ATOM     20  O   UNL     1      20.402  10.705  13.225  0.00  0.00    +0.000 OA
ATOM     21  C   UNL     1      20.458  11.506  14.139  0.00  0.00    +0.000 C 
BRANCH  21  22
ATOM     22  O   UNL     1      20.044  12.778  14.016  0.00  0.00    +0.000 OA
ATOM     23  H   UNL     1      20.084  12.950  13.052  0.00  0.00    +0.000 HD
ENDBRANCH  21  22
ENDBRANCH  16  17
ENDBRANCH  14  15
ENDBRANCH   1  14
TORSDOF 6
ENDMDL
MODEL 3
REMARK VINA RESULT:      -6.2      5.277      8.249
REMARK  Name = RetinoicAcid.pdbqt.pdb
REMARK  6 active torsions:
REMARK  status: ('A' for Active; 'I' for Inactive)
REMARK    1  A    between atoms: C_1  and  C_3
REMARK    2  A    between atoms: C_1  and  C_5
REMARK    3  A    between atoms: C_3  and  C_15
REMARK    4  A    between atoms: C_4  and  C_9
REMARK    5  A    between atoms: C_16  and  C_17
REMARK    6  A    between atoms: C_21  and  O_22
REMARK                            x       y       z     vdW  Elec       q    Type
REMARK                         _______ _______ _______ _____ _____    ______ ____
ROOT
ATOM      1  C   UNL     1      40.447   3.940  12.778  0.00  0.00    +0.000 C 
ATOM      2  C   UNL     1      41.563   4.731  12.167  0.00  0.00    +0.000 C 
ENDROOT
BRANCH   1   4
ATOM      3  C   UNL     1      39.368   1.948  11.464  0.00  0.00    +0.000 C 
ATOM      4  C   UNL     1      39.869   2.862  12.064  0.00  0.00    +0.000 C 
BRANCH   3   8
ATOM      5  C   UNL     1      39.667  -0.253  10.109  0.00  0.00    +0.000 C 
ATOM      6  C   UNL     1      38.789  -1.247   9.446  0.00  0.00    +0.000 C 
ATOM      7  C   UNL     1      37.329  -1.551   9.178  0.00  0.00    +0.000 C 
ATOM      8  C   UNL     1      38.760   0.853  10.745  0.00  0.00    +0.000 C 
ATOM      9  C   UNL     1      36.852  -0.319   9.916  0.00  0.00    +0.000 C 
ATOM     10  C   UNL     1      37.411   0.779  10.628  0.00  0.00    +0.000 C 
ATOM     11  C   UNL     1      40.605   0.404   9.061  0.00  0.00    +0.000 C 
ATOM     12  C   UNL     1      40.482  -0.941  11.241  0.00  0.00    +0.000 C 
ATOM     13  C   UNL     1      36.451   1.779  11.211  0.00  0.00    +0.000 C 
ENDBRANCH   3   8
ENDBRANCH   1   4
BRANCH   1  14
ATOM     14  C   UNL     1      39.979   4.272  13.940  0.00  0.00    +0.000 C 
BRANCH  14  15
ATOM     15  C   UNL     1      39.425   4.668  15.314  0.00  0.00    +0.000 C 
ATOM     16  C   UNL     1      38.993   4.979  16.390  0.00  0.00    +0.000 C 
BRANCH  16  17
ATOM     17  C   UNL     1      38.482   5.351  17.657  0.00  0.00    +0.000 C 
ATOM     18  C   UNL     1      38.564   6.779  18.103  0.00  0.00    +0.000 C 
ATOM     19  C   UNL     1      37.977   4.457  18.439  0.00  0.00    +0.000 C 
ATOM     20  O   UNL     1      36.267   3.068  19.176  0.00  0.00    +0.000 OA
ATOM     21  C   UNL     1      37.412   3.467  19.285  0.00  0.00    +0.000 C 
BRANCH  21  22
ATOM     22  O   UNL     1      38.261   2.987  20.208  0.00  0.00    +0.000 OA
ATOM     23  H   UNL     1      38.510   2.102  19.868  0.00  0.00    +0.000 HD
ENDBRANCH  21  22
ENDBRANCH  16  17
ENDBRANCH  14  15
ENDBRANCH   1  14
TORSDOF 6
ENDMDL
MODEL 4
REMARK VINA RESULT:      -6.1      5.428      8.324
REMARK  Name = RetinoicAcid.pdbqt.pdb
REMARK  6 active torsions:
REMARK  status: ('A' for Active; 'I' for Inactive)
REMARK    1  A    between atoms: C_1  and  C_3
REMARK    2  A    between atoms: C_1  and  C_5
REMARK    3  A    between atoms: C_3  and  C_15
REMARK    4  A    between atoms: C_4  and  C_9
REMARK    5  A    between atoms: C_16  and  C_17
REMARK    6  A    between atoms: C_21  and  O_22
REMARK                            x       y       z     vdW  Elec       q    Type
REMARK                         _______ _______ _______ _____ _____    ______ ____
ROOT
ATOM      1  C   UNL     1      40.564   4.488  12.909  0.00  0.00    +0.000 C 
ATOM      2  C   UNL     1      41.867   5.120  12.527  0.00  0.00    +0.000 C 
ENDROOT
BRANCH   1   4
ATOM      3  C   UNL     1      39.268   2.992  11.193  0.00  0.00    +0.000 C 
ATOM      4  C   UNL     1      39.867   3.681  11.977  0.00  0.00    +0.000 C 
BRANCH   3   8
ATOM      5  C   UNL     1      37.332   1.309  10.758  0.00  0.00    +0.000 C 
ATOM      6  C   UNL     1      36.777   0.570   9.600  0.00  0.00    +0.000 C 
ATOM      7  C   UNL     1      36.983   0.364   8.111  0.00  0.00    +0.000 C 
ATOM      8  C   UNL     1      38.544   2.165  10.258  0.00  0.00    +0.000 C 
ATOM      9  C   UNL     1      38.164   1.308   8.061  0.00  0.00    +0.000 C 
ATOM     10  C   UNL     1      38.907   2.134   8.952  0.00  0.00    +0.000 C 
ATOM     11  C   UNL     1      37.832   0.306  11.833  0.00  0.00    +0.000 C 
ATOM     12  C   UNL     1      36.254   2.265  11.341  0.00  0.00    +0.000 C 
ATOM     13  C   UNL     1      40.044   2.925   8.366  0.00  0.00    +0.000 C 
ENDBRANCH   3   8
ENDBRANCH   1   4
BRANCH   1  14
ATOM     14  C   UNL     1      40.050   4.719  14.076  0.00  0.00    +0.000 C 
BRANCH  14  15
ATOM     15  C   UNL     1      39.443   4.995  15.458  0.00  0.00    +0.000 C 
ATOM     16  C   UNL     1      38.970   5.212  16.540  0.00  0.00    +0.000 C 
BRANCH  16  17
ATOM     17  C   UNL     1      38.413   5.473  17.815  0.00  0.00    +0.000 C 
ATOM     18  C   UNL     1      38.423   6.869  18.359  0.00  0.00    +0.000 C 
ATOM     19  C   UNL     1      37.929   4.507  18.519  0.00  0.00    +0.000 C 
ATOM     20  O   UNL     1      36.264   2.999  19.112  0.00  0.00    +0.000 OA
ATOM     21  C   UNL     1      37.387   3.437  19.280  0.00  0.00    +0.000 C 
BRANCH  21  22
ATOM     22  O   UNL     1      38.234   2.930  20.190  0.00  0.00    +0.000 OA
ATOM     23  H   UNL     1      38.529   2.082  19.797  0.00  0.00    +0.000 HD
ENDBRANCH  21  22
ENDBRANCH  16  17
ENDBRANCH  14  15
ENDBRANCH   1  14
TORSDOF 6
ENDMDL
MODEL 5
REMARK VINA RESULT:      -6.1     20.387     23.527
REMARK  Name = RetinoicAcid.pdbqt.pdb
REMARK  6 active torsions:
REMARK  status: ('A' for Active; 'I' for Inactive)
REMARK    1  A    between atoms: C_1  and  C_3
REMARK    2  A    between atoms: C_1  and  C_5
REMARK    3  A    between atoms: C_3  and  C_15
REMARK    4  A    between atoms: C_4  and  C_9
REMARK    5  A    between atoms: C_16  and  C_17
REMARK    6  A    between atoms: C_21  and  O_22
REMARK                            x       y       z     vdW  Elec       q    Type
REMARK                         _______ _______ _______ _____ _____    ______ ____
ROOT
ATOM      1  C   UNL     1      19.484  13.756  20.757  0.00  0.00    +0.000 C 
ATOM      2  C   UNL     1      18.420  13.856  21.807  0.00  0.00    +0.000 C 
ENDROOT
BRANCH   1   4
ATOM      3  C   UNL     1      20.014  11.451  19.631  0.00  0.00    +0.000 C 
ATOM      4  C   UNL     1      19.765  12.508  20.149  0.00  0.00    +0.000 C 
BRANCH   3   8
ATOM      5  C   UNL     1      19.728   8.865  19.611  0.00  0.00    +0.000 C 
ATOM      6  C   UNL     1      20.193   7.729  18.781  0.00  0.00    +0.000 C 
ATOM      7  C   UNL     1      21.039   7.414  17.563  0.00  0.00    +0.000 C 
ATOM      8  C   UNL     1      20.320  10.184  19.010  0.00  0.00    +0.000 C 
ATOM      9  C   UNL     1      21.384   8.868  17.325  0.00  0.00    +0.000 C 
ATOM     10  C   UNL     1      21.110  10.137  17.910  0.00  0.00    +0.000 C 
ATOM     11  C   UNL     1      20.239   8.699  21.068  0.00  0.00    +0.000 C 
ATOM     12  C   UNL     1      18.176   8.951  19.566  0.00  0.00    +0.000 C 
ATOM     13  C   UNL     1      21.718  11.343  17.247  0.00  0.00    +0.000 C 
ENDBRANCH   3   8
ENDBRANCH   1   4
BRANCH   1  14
ATOM     14  C   UNL     1      20.180  14.802  20.440  0.00  0.00    +0.000 C 
BRANCH  14  15
ATOM     15  C   UNL     1      21.003  16.041  20.066  0.00  0.00    +0.000 C 
ATOM     16  C   UNL     1      21.648  17.011  19.775  0.00  0.00    +0.000 C 
BRANCH  16  17
ATOM     17  C   UNL     1      22.413  18.151  19.432  0.00  0.00    +0.000 C 
ATOM     18  C   UNL     1      22.844  19.108  20.502  0.00  0.00    +0.000 C 
ATOM     19  C   UNL     1      22.711  18.383  18.198  0.00  0.00    +0.000 C 
ATOM     20  O   UNL     1      23.980  18.085  16.275  0.00  0.00    +0.000 OA
ATOM     21  C   UNL     1      23.044  18.621  16.838  0.00  0.00    +0.000 C 
BRANCH  21  22
ATOM     22  O   UNL     1      22.217  19.477  16.215  0.00  0.00    +0.000 OA
ATOM     23  H   UNL     1      21.353  19.015  16.211  0.00  0.00    +0.000 HD
ENDBRANCH  21  22
ENDBRANCH  16  17
ENDBRANCH  14  15
ENDBRANCH   1  14
TORSDOF 6
ENDMDL
MODEL 6
REMARK VINA RESULT:      -6.1     19.782     22.929
REMARK  Name = RetinoicAcid.pdbqt.pdb
REMARK  6 active torsions:
REMARK  status: ('A' for Active; 'I' for Inactive)
REMARK    1  A    between atoms: C_1  and  C_3
REMARK    2  A    between atoms: C_1  and  C_5
REMARK    3  A    between atoms: C_3  and  C_15
REMARK    4  A    between atoms: C_4  and  C_9
REMARK    5  A    between atoms: C_16  and  C_17
REMARK    6  A    between atoms: C_21  and  O_22
REMARK                            x       y       z     vdW  Elec       q    Type
REMARK                         _______ _______ _______ _____ _____    ______ ____
ROOT
ATOM      1  C   UNL     1      16.027   8.279  19.846  0.00  0.00    +0.000 C 
ATOM      2  C   UNL     1      14.831   8.961  20.434  0.00  0.00    +0.000 C 
ENDROOT
BRANCH   1   4
ATOM      3  C   UNL     1      16.126   5.665  19.721  0.00  0.00    +0.000 C 
ATOM      4  C   UNL     1      16.076   6.866  19.775  0.00  0.00    +0.000 C 
BRANCH   3   8
ATOM      5  C   UNL     1      17.558   3.501  19.913  0.00  0.00    +0.000 C 
ATOM      6  C   UNL     1      17.337   2.040  19.798  0.00  0.00    +0.000 C 
ATOM      7  C   UNL     1      16.250   1.021  19.520  0.00  0.00    +0.000 C 
ATOM      8  C   UNL     1      16.193   4.224  19.660  0.00  0.00    +0.000 C 
ATOM      9  C   UNL     1      15.185   2.082  19.346  0.00  0.00    +0.000 C 
ATOM     10  C   UNL     1      15.078   3.501  19.392  0.00  0.00    +0.000 C 
ATOM     11  C   UNL     1      18.582   3.966  18.843  0.00  0.00    +0.000 C 
ATOM     12  C   UNL     1      18.048   3.849  21.348  0.00  0.00    +0.000 C 
ATOM     13  C   UNL     1      13.718   4.094  19.147  0.00  0.00    +0.000 C 
ENDBRANCH   3   8
ENDBRANCH   1   4
BRANCH   1  14
ATOM     14  C   UNL     1      17.040   8.982  19.445  0.00  0.00    +0.000 C 
BRANCH  14  15
ATOM     15  C   UNL     1      18.237   9.815  18.969  0.00  0.00    +0.000 C 
ATOM     16  C   UNL     1      19.174  10.466  18.594  0.00  0.00    +0.000 C 
BRANCH  16  17
ATOM     17  C   UNL     1      20.277  11.233  18.148  0.00  0.00    +0.000 C 
ATOM     18  C   UNL     1      20.340  12.697  18.460  0.00  0.00    +0.000 C 
ATOM     19  C   UNL     1      21.209  10.679  17.448  0.00  0.00    +0.000 C 
ATOM     20  O   UNL     1      23.146   9.424  17.190  0.00  0.00    +0.000 OA
ATOM     21  C   UNL     1      22.235  10.056  16.689  0.00  0.00    +0.000 C 
BRANCH  21  22
ATOM     22  O   UNL     1      22.099  10.205  15.361  0.00  0.00    +0.000 OA
ATOM     23  H   UNL     1      23.011  10.107  15.015  0.00  0.00    +0.000 HD
ENDBRANCH  21  22
ENDBRANCH  16  17
ENDBRANCH  14  15
ENDBRANCH   1  14
TORSDOF 6
ENDMDL
MODEL 7
REMARK VINA RESULT:      -5.9     20.885     23.352
REMARK  Name = RetinoicAcid.pdbqt.pdb
REMARK  6 active torsions:
REMARK  status: ('A' for Active; 'I' for Inactive)
REMARK    1  A    between atoms: C_1  and  C_3
REMARK    2  A    between atoms: C_1  and  C_5
REMARK    3  A    between atoms: C_3  and  C_15
REMARK    4  A    between atoms: C_4  and  C_9
REMARK    5  A    between atoms: C_16  and  C_17
REMARK    6  A    between atoms: C_21  and  O_22
REMARK                            x       y       z     vdW  Elec       q    Type
REMARK                         _______ _______ _______ _____ _____    ______ ____
ROOT
ATOM      1  C   UNL     1      17.163   9.259  20.123  0.00  0.00    +0.000 C 
ATOM      2  C   UNL     1      15.841   9.661  20.703  0.00  0.00    +0.000 C 
ENDROOT
BRANCH   1   4
ATOM      3  C   UNL     1      18.978  11.082  19.632  0.00  0.00    +0.000 C 
ATOM      4  C   UNL     1      18.147  10.241  19.854  0.00  0.00    +0.000 C 
BRANCH   3   8
ATOM      5  C   UNL     1      20.550  12.259  17.925  0.00  0.00    +0.000 C 
ATOM      6  C   UNL     1      21.537  13.364  17.943  0.00  0.00    +0.000 C 
ATOM      7  C   UNL     1      22.171  14.378  18.876  0.00  0.00    +0.000 C 
ATOM      8  C   UNL     1      19.974  12.095  19.371  0.00  0.00    +0.000 C 
ATOM      9  C   UNL     1      21.381  13.893  20.071  0.00  0.00    +0.000 C 
ATOM     10  C   UNL     1      20.402  12.904  20.372  0.00  0.00    +0.000 C 
ATOM     11  C   UNL     1      21.246  10.937  17.505  0.00  0.00    +0.000 C 
ATOM     12  C   UNL     1      19.382  12.610  16.960  0.00  0.00    +0.000 C 
ATOM     13  C   UNL     1      19.905  12.838  21.790  0.00  0.00    +0.000 C 
ENDBRANCH   3   8
ENDBRANCH   1   4
BRANCH   1  14
ATOM     14  C   UNL     1      17.386   8.018  19.822  0.00  0.00    +0.000 C 
BRANCH  14  15
ATOM     15  C   UNL     1      17.653   6.550  19.468  0.00  0.00    +0.000 C 
ATOM     16  C   UNL     1      17.860   5.400  19.191  0.00  0.00    +0.000 C 
BRANCH  16  17
ATOM     17  C   UNL     1      18.100   4.045  18.860  0.00  0.00    +0.000 C 
ATOM     18  C   UNL     1      19.374   3.387  19.294  0.00  0.00    +0.000 C 
ATOM     19  C   UNL     1      17.238   3.388  18.159  0.00  0.00    +0.000 C 
ATOM     20  O   UNL     1      15.287   2.157  17.885  0.00  0.00    +0.000 OA
ATOM     21  C   UNL     1      16.277   2.671  17.398  0.00  0.00    +0.000 C 
BRANCH  21  22
ATOM     22  O   UNL     1      16.543   2.628  16.083  0.00  0.00    +0.000 OA
ATOM     23  H   UNL     1      16.115   1.801  15.778  0.00  0.00    +0.000 HD
ENDBRANCH  21  22
ENDBRANCH  16  17
ENDBRANCH  14  15
ENDBRANCH   1  14
TORSDOF 6
ENDMDL
MODEL 8
REMARK VINA RESULT:      -5.9     25.461     27.365
REMARK  Name = RetinoicAcid.pdbqt.pdb
REMARK  6 active torsions:
REMARK  status: ('A' for Active; 'I' for Inactive)
REMARK    1  A    between atoms: C_1  and  C_3
REMARK    2  A    between atoms: C_1  and  C_5
REMARK    3  A    between atoms: C_3  and  C_15
REMARK    4  A    between atoms: C_4  and  C_9
REMARK    5  A    between atoms: C_16  and  C_17
REMARK    6  A    between atoms: C_21  and  O_22
REMARK                            x       y       z     vdW  Elec       q    Type
REMARK                         _______ _______ _______ _____ _____    ______ ____
ROOT
ATOM      1  C   UNL     1      36.458 -14.343  35.300  0.00  0.00    +0.000 C 
ATOM      2  C   UNL     1      37.848 -14.769  34.941  0.00  0.00    +0.000 C 
ENDROOT
BRANCH   1   4
ATOM      3  C   UNL     1      34.402 -15.353  34.029  0.00  0.00    +0.000 C 
ATOM      4  C   UNL     1      35.347 -14.895  34.614  0.00  0.00    +0.000 C 
BRANCH   3   8
ATOM      5  C   UNL     1      31.872 -15.962  34.033  0.00  0.00    +0.000 C 
ATOM      6  C   UNL     1      30.897 -16.551  33.086  0.00  0.00    +0.000 C 
ATOM      7  C   UNL     1      30.793 -17.108  31.679  0.00  0.00    +0.000 C 
ATOM      8  C   UNL     1      33.266 -15.897  33.323  0.00  0.00    +0.000 C 
ATOM      9  C   UNL     1      32.258 -16.867  31.388  0.00  0.00    +0.000 C 
ATOM     10  C   UNL     1      33.404 -16.343  32.050  0.00  0.00    +0.000 C 
ATOM     11  C   UNL     1      31.989 -16.858  35.296  0.00  0.00    +0.000 C 
ATOM     12  C   UNL     1      31.436 -14.517  34.408  0.00  0.00    +0.000 C 
ATOM     13  C   UNL     1      34.692 -16.314  31.274  0.00  0.00    +0.000 C 
ENDBRANCH   3   8
ENDBRANCH   1   4
BRANCH   1  14
ATOM     14  C   UNL     1      36.273 -13.433  36.204  0.00  0.00    +0.000 C 
BRANCH  14  15
ATOM     15  C   UNL     1      36.056 -12.358  37.277  0.00  0.00    +0.000 C 
ATOM     16  C   UNL     1      35.888 -11.517  38.116  0.00  0.00    +0.000 C 
BRANCH  16  17
ATOM     17  C   UNL     1      35.693 -10.522  39.103  0.00  0.00    +0.000 C 
ATOM     18  C   UNL     1      35.156 -10.903  40.449  0.00  0.00    +0.000 C 
ATOM     19  C   UNL     1      35.947  -9.285  38.835  0.00  0.00    +0.000 C 
ATOM     20  O   UNL     1      37.365  -7.462  38.582  0.00  0.00    +0.000 OA
ATOM     21  C   UNL     1      36.242  -7.929  38.531  0.00  0.00    +0.000 C 
BRANCH  21  22
ATOM     22  O   UNL     1      35.173  -7.208  38.157  0.00  0.00    +0.000 OA
ATOM     23  H   UNL     1      35.535  -6.553  37.524  0.00  0.00    +0.000 HD
ENDBRANCH  21  22
ENDBRANCH  16  17
ENDBRANCH  14  15
ENDBRANCH   1  14
TORSDOF 6
ENDMDL
MODEL 9
REMARK VINA RESULT:      -5.7     22.622     25.398
REMARK  Name = RetinoicAcid.pdbqt.pdb
REMARK  6 active torsions:
REMARK  status: ('A' for Active; 'I' for Inactive)
REMARK    1  A    between atoms: C_1  and  C_3
REMARK    2  A    between atoms: C_1  and  C_5
REMARK    3  A    between atoms: C_3  and  C_15
REMARK    4  A    between atoms: C_4  and  C_9
REMARK    5  A    between atoms: C_16  and  C_17
REMARK    6  A    between atoms: C_21  and  O_22
REMARK                            x       y       z     vdW  Elec       q    Type
REMARK                         _______ _______ _______ _____ _____    ______ ____
ROOT
ATOM      1  C   UNL     1      26.586 -17.773  28.005  0.00  0.00    +0.000 C 
ATOM      2  C   UNL     1      26.439 -19.262  28.072  0.00  0.00    +0.000 C 
ENDROOT
BRANCH   1   4
ATOM      3  C   UNL     1      27.976 -16.511  29.832  0.00  0.00    +0.000 C 
ATOM      4  C   UNL     1      27.342 -17.089  28.989  0.00  0.00    +0.000 C 
BRANCH   3   8
ATOM      5  C   UNL     1      30.255 -15.531  30.617  0.00  0.00    +0.000 C 
ATOM      6  C   UNL     1      30.775 -14.812  31.804  0.00  0.00    +0.000 C 
ATOM      7  C   UNL     1      30.339 -14.269  33.151  0.00  0.00    +0.000 C 
ATOM      8  C   UNL     1      28.733 -15.820  30.848  0.00  0.00    +0.000 C 
ATOM      9  C   UNL     1      28.911 -14.736  32.969  0.00  0.00    +0.000 C 
ATOM     10  C   UNL     1      28.129 -15.418  31.994  0.00  0.00    +0.000 C 
ATOM     11  C   UNL     1      31.005 -16.880  30.446  0.00  0.00    +0.000 C 
ATOM     12  C   UNL     1      30.406 -14.640  29.352  0.00  0.00    +0.000 C 
ATOM     13  C   UNL     1      26.675 -15.634  32.309  0.00  0.00    +0.000 C 
ENDBRANCH   3   8
ENDBRANCH   1   4
BRANCH   1  14
ATOM     14  C   UNL     1      25.980 -17.104  27.074  0.00  0.00    +0.000 C 
BRANCH  14  15
ATOM     15  C   UNL     1      25.265 -16.313  25.972  0.00  0.00    +0.000 C 
ATOM     16  C   UNL     1      24.708 -15.693  25.108  0.00  0.00    +0.000 C 
BRANCH  16  17
ATOM     17  C   UNL     1      24.054 -14.962  24.087  0.00  0.00    +0.000 C 
ATOM     18  C   UNL     1      23.580 -15.669  22.853  0.00  0.00    +0.000 C 
ATOM     19  C   UNL     1      23.896 -13.687  24.203  0.00  0.00    +0.000 C 
ATOM     20  O   UNL     1      22.809 -11.791  24.992  0.00  0.00    +0.000 OA
ATOM     21  C   UNL     1      23.716 -12.286  24.349  0.00  0.00    +0.000 C 
BRANCH  21  22
ATOM     22  O   UNL     1      24.653 -11.547  23.731  0.00  0.00    +0.000 OA
ATOM     23  H   UNL     1      24.960 -10.924  24.422  0.00  0.00    +0.000 HD
ENDBRANCH  21  22
ENDBRANCH  16  17
ENDBRANCH  14  15
ENDBRANCH   1  14
TORSDOF 6
ENDMDL
