MODEL 1
REMARK VINA RESULT:      -8.7      0.000      0.000
REMARK  Name = SB_202190.pdbqt.pdb
REMARK  4 active torsions:
REMARK  status: ('A' for Active; 'I' for Inactive)
REMARK    1  A    between atoms: C_4  and  C_7
REMARK    2  A    between atoms: C_5  and  C_19
REMARK    3  A    between atoms: C_6  and  C_8
REMARK    4  A    between atoms: C_15  and  O_26
REMARK                            x       y       z     vdW  Elec       q    Type
REMARK                         _______ _______ _______ _____ _____    ______ ____
ROOT
ATOM      1  N   UNL     1      35.875  -1.881  41.245  0.00  0.00    +0.000 N 
ATOM      2  N   UNL     1      33.730  -2.361  41.298  0.00  0.00    +0.000 NA
ATOM      3  C   UNL     1      35.327  -1.171  40.196  0.00  0.00    +0.000 A 
ATOM      4  C   UNL     1      33.984  -1.518  40.238  0.00  0.00    +0.000 A 
ATOM      5  C   UNL     1      34.883  -2.574  41.896  0.00  0.00    +0.000 A 
ATOM      6  H   UNL     1      36.846  -1.867  41.522  0.00  0.00    +0.000 HD
ENDROOT
BRANCH   4   7
ATOM      7  C   UNL     1      32.929  -1.116  39.332  0.00  0.00    +0.000 A 
ATOM      8  C   UNL     1      32.797   0.210  38.913  0.00  0.00    +0.000 A 
ATOM      9  C   UNL     1      31.804   0.571  38.005  0.00  0.00    +0.000 A 
ATOM     10  C   UNL     1      30.953  -0.408  37.505  0.00  0.00    +0.000 A 
ATOM     11  F   UNL     1      29.994  -0.064  36.635  0.00  0.00    +0.000 F 
ATOM     12  C   UNL     1      31.079  -1.736  37.895  0.00  0.00    +0.000 A 
ATOM     13  C   UNL     1      32.074  -2.087  38.804  0.00  0.00    +0.000 A 
ENDBRANCH   4   7
BRANCH   3  15
ATOM     14  N   UNL     1      37.702   1.435  37.793  0.00  0.00    +0.000 NA
ATOM     15  C   UNL     1      36.123  -0.273  39.365  0.00  0.00    +0.000 A 
ATOM     16  C   UNL     1      36.291   1.065  39.718  0.00  0.00    +0.000 A 
ATOM     17  C   UNL     1      36.765  -0.750  38.222  0.00  0.00    +0.000 A 
ATOM     18  C   UNL     1      37.076   1.868  38.908  0.00  0.00    +0.000 A 
ATOM     19  C   UNL     1      37.528   0.135  37.477  0.00  0.00    +0.000 A 
ENDBRANCH   3  15
BRANCH   5  20
ATOM     20  C   UNL     1      35.105  -3.411  43.071  0.00  0.00    +0.000 A 
ATOM     21  C   UNL     1      35.239  -2.818  44.329  0.00  0.00    +0.000 A 
ATOM     22  C   UNL     1      35.186  -4.802  42.967  0.00  0.00    +0.000 A 
ATOM     23  C   UNL     1      35.452  -3.596  45.465  0.00  0.00    +0.000 A 
ATOM     24  C   UNL     1      35.398  -5.590  44.096  0.00  0.00    +0.000 A 
ATOM     25  C   UNL     1      35.529  -4.979  45.337  0.00  0.00    +0.000 A 
BRANCH  25  26
ATOM     26  O   UNL     1      35.736  -5.769  46.430  0.00  0.00    +0.000 OA
ATOM     27  H   UNL     1      34.894  -6.202  46.656  0.00  0.00    +0.000 HD
ENDBRANCH  25  26
ENDBRANCH   5  20
TORSDOF 4
ENDMDL
MODEL 2
REMARK VINA RESULT:      -8.4     25.345     28.467
REMARK  Name = SB_202190.pdbqt.pdb
REMARK  4 active torsions:
REMARK  status: ('A' for Active; 'I' for Inactive)
REMARK    1  A    between atoms: C_4  and  C_7
REMARK    2  A    between atoms: C_5  and  C_19
REMARK    3  A    between atoms: C_6  and  C_8
REMARK    4  A    between atoms: C_15  and  O_26
REMARK                            x       y       z     vdW  Elec       q    Type
REMARK                         _______ _______ _______ _____ _____    ______ ____
ROOT
ATOM      1  N   UNL     1      37.460  -0.408  12.772  0.00  0.00    +0.000 N 
ATOM      2  N   UNL     1      37.639   1.467  13.904  0.00  0.00    +0.000 NA
ATOM      3  C   UNL     1      38.586   0.208  12.262  0.00  0.00    +0.000 A 
ATOM      4  C   UNL     1      38.653   1.397  12.974  0.00  0.00    +0.000 A 
ATOM      5  C   UNL     1      36.924   0.370  13.770  0.00  0.00    +0.000 A 
ATOM      6  H   UNL     1      37.103  -1.309  12.488  0.00  0.00    +0.000 HD
ENDROOT
BRANCH   4   7
ATOM      7  C   UNL     1      39.605   2.477  12.820  0.00  0.00    +0.000 A 
ATOM      8  C   UNL     1      40.494   2.813  13.843  0.00  0.00    +0.000 A 
ATOM      9  C   UNL     1      41.434   3.825  13.660  0.00  0.00    +0.000 A 
ATOM     10  C   UNL     1      41.490   4.488  12.440  0.00  0.00    +0.000 A 
ATOM     11  F   UNL     1      42.390   5.464  12.262  0.00  0.00    +0.000 F 
ATOM     12  C   UNL     1      40.626   4.156  11.403  0.00  0.00    +0.000 A 
ATOM     13  C   UNL     1      39.689   3.144  11.595  0.00  0.00    +0.000 A 
ENDBRANCH   4   7
BRANCH   3  15
ATOM     14  N   UNL     1      40.997  -1.674   9.287  0.00  0.00    +0.000 NA
ATOM     15  C   UNL     1      39.419  -0.419  11.240  0.00  0.00    +0.000 A 
ATOM     16  C   UNL     1      40.719  -0.827  11.532  0.00  0.00    +0.000 A 
ATOM     17  C   UNL     1      38.913  -0.657   9.963  0.00  0.00    +0.000 A 
ATOM     18  C   UNL     1      41.460  -1.438  10.533  0.00  0.00    +0.000 A 
ATOM     19  C   UNL     1      39.734  -1.274   9.033  0.00  0.00    +0.000 A 
ENDBRANCH   3  15
BRANCH   5  20
ATOM     20  C   UNL     1      35.742   0.009  14.544  0.00  0.00    +0.000 A 
ATOM     21  C   UNL     1      35.853  -0.911  15.590  0.00  0.00    +0.000 A 
ATOM     22  C   UNL     1      34.491   0.566  14.263  0.00  0.00    +0.000 A 
ATOM     23  C   UNL     1      34.738  -1.271  16.343  0.00  0.00    +0.000 A 
ATOM     24  C   UNL     1      33.370   0.213  15.010  0.00  0.00    +0.000 A 
ATOM     25  C   UNL     1      33.504  -0.704  16.046  0.00  0.00    +0.000 A 
BRANCH  25  26
ATOM     26  O   UNL     1      32.393  -1.036  16.765  0.00  0.00    +0.000 OA
ATOM     27  H   UNL     1      32.321  -2.006  16.783  0.00  0.00    +0.000 HD
ENDBRANCH  25  26
ENDBRANCH   5  20
TORSDOF 4
ENDMDL
MODEL 3
REMARK VINA RESULT:      -8.3     25.260     28.326
REMARK  Name = SB_202190.pdbqt.pdb
REMARK  4 active torsions:
REMARK  status: ('A' for Active; 'I' for Inactive)
REMARK    1  A    between atoms: C_4  and  C_7
REMARK    2  A    between atoms: C_5  and  C_19
REMARK    3  A    between atoms: C_6  and  C_8
REMARK    4  A    between atoms: C_15  and  O_26
REMARK                            x       y       z     vdW  Elec       q    Type
REMARK                         _______ _______ _______ _____ _____    ______ ____
ROOT
ATOM      1  N   UNL     1      37.583   1.685  14.177  0.00  0.00    +0.000 N 
ATOM      2  N   UNL     1      37.414  -0.065  12.858  0.00  0.00    +0.000 NA
ATOM      3  C   UNL     1      38.612   1.826  13.268  0.00  0.00    +0.000 A 
ATOM      4  C   UNL     1      38.497   0.695  12.473  0.00  0.00    +0.000 A 
ATOM      5  C   UNL     1      36.872   0.544  13.891  0.00  0.00    +0.000 A 
ATOM      6  H   UNL     1      37.356   2.336  14.915  0.00  0.00    +0.000 HD
ENDROOT
BRANCH   4   7
ATOM      7  C   UNL     1      39.354   0.279  11.382  0.00  0.00    +0.000 A 
ATOM      8  C   UNL     1      40.174  -0.846  11.490  0.00  0.00    +0.000 A 
ATOM      9  C   UNL     1      40.957  -1.258  10.415  0.00  0.00    +0.000 A 
ATOM     10  C   UNL     1      40.902  -0.545   9.222  0.00  0.00    +0.000 A 
ATOM     11  F   UNL     1      41.657  -0.935   8.187  0.00  0.00    +0.000 F 
ATOM     12  C   UNL     1      40.079   0.567   9.088  0.00  0.00    +0.000 A 
ATOM     13  C   UNL     1      39.300   0.971  10.169  0.00  0.00    +0.000 A 
ENDBRANCH   4   7
BRANCH   3  15
ATOM     14  N   UNL     1      41.161   5.247  13.308  0.00  0.00    +0.000 NA
ATOM     15  C   UNL     1      39.495   2.989  13.268  0.00  0.00    +0.000 A 
ATOM     16  C   UNL     1      39.306   4.027  12.358  0.00  0.00    +0.000 A 
ATOM     17  C   UNL     1      40.520   3.099  14.207  0.00  0.00    +0.000 A 
ATOM     18  C   UNL     1      40.156   5.119  12.415  0.00  0.00    +0.000 A 
ATOM     19  C   UNL     1      41.319   4.231  14.181  0.00  0.00    +0.000 A 
ENDBRANCH   3  15
BRANCH   5  20
ATOM     20  C   UNL     1      35.699   0.102  14.637  0.00  0.00    +0.000 A 
ATOM     21  C   UNL     1      34.435   0.589  14.294  0.00  0.00    +0.000 A 
ATOM     22  C   UNL     1      35.810  -0.806  15.695  0.00  0.00    +0.000 A 
ATOM     23  C   UNL     1      33.301   0.180  14.992  0.00  0.00    +0.000 A 
ATOM     24  C   UNL     1      34.683  -1.220  16.399  0.00  0.00    +0.000 A 
ATOM     25  C   UNL     1      33.436  -0.723  16.041  0.00  0.00    +0.000 A 
BRANCH  25  26
ATOM     26  O   UNL     1      32.344  -1.143  16.744  0.00  0.00    +0.000 OA
ATOM     27  H   UNL     1      32.184  -0.509  17.465  0.00  0.00    +0.000 HD
ENDBRANCH  25  26
ENDBRANCH   5  20
TORSDOF 4
ENDMDL
MODEL 4
REMARK VINA RESULT:      -8.1      2.022      2.661
REMARK  Name = SB_202190.pdbqt.pdb
REMARK  4 active torsions:
REMARK  status: ('A' for Active; 'I' for Inactive)
REMARK    1  A    between atoms: C_4  and  C_7
REMARK    2  A    between atoms: C_5  and  C_19
REMARK    3  A    between atoms: C_6  and  C_8
REMARK    4  A    between atoms: C_15  and  O_26
REMARK                            x       y       z     vdW  Elec       q    Type
REMARK                         _______ _______ _______ _____ _____    ______ ____
ROOT
ATOM      1  N   UNL     1      37.474  -2.029  42.629  0.00  0.00    +0.000 N 
ATOM      2  N   UNL     1      35.428  -2.799  42.857  0.00  0.00    +0.000 NA
ATOM      3  C   UNL     1      36.870  -1.796  41.410  0.00  0.00    +0.000 A 
ATOM      4  C   UNL     1      35.596  -2.318  41.577  0.00  0.00    +0.000 A 
ATOM      5  C   UNL     1      36.573  -2.620  43.482  0.00  0.00    +0.000 A 
ATOM      6  H   UNL     1      38.420  -1.772  42.876  0.00  0.00    +0.000 HD
ENDROOT
BRANCH   4   7
ATOM      7  C   UNL     1      34.531  -2.405  40.599  0.00  0.00    +0.000 A 
ATOM      8  C   UNL     1      33.775  -1.286  40.247  0.00  0.00    +0.000 A 
ATOM      9  C   UNL     1      32.786  -1.377  39.271  0.00  0.00    +0.000 A 
ATOM     10  C   UNL     1      32.569  -2.595  38.636  0.00  0.00    +0.000 A 
ATOM     11  F   UNL     1      31.615  -2.688  37.700  0.00  0.00    +0.000 F 
ATOM     12  C   UNL     1      33.323  -3.717  38.958  0.00  0.00    +0.000 A 
ATOM     13  C   UNL     1      34.309  -3.615  39.937  0.00  0.00    +0.000 A 
ENDBRANCH   4   7
BRANCH   3  15
ATOM     14  N   UNL     1      38.923   0.210  38.254  0.00  0.00    +0.000 NA
ATOM     15  C   UNL     1      37.556  -1.104  40.322  0.00  0.00    +0.000 A 
ATOM     16  C   UNL     1      37.804   0.265  40.393  0.00  0.00    +0.000 A 
ATOM     17  C   UNL     1      38.011  -1.811  39.210  0.00  0.00    +0.000 A 
ATOM     18  C   UNL     1      38.479   0.869  39.345  0.00  0.00    +0.000 A 
ATOM     19  C   UNL     1      38.675  -1.115  38.213  0.00  0.00    +0.000 A 
ENDBRANCH   3  15
BRANCH   5  20
ATOM     20  C   UNL     1      36.869  -2.982  44.863  0.00  0.00    +0.000 A 
ATOM     21  C   UNL     1      35.925  -3.691  45.612  0.00  0.00    +0.000 A 
ATOM     22  C   UNL     1      38.084  -2.634  45.461  0.00  0.00    +0.000 A 
ATOM     23  C   UNL     1      36.186  -4.048  46.933  0.00  0.00    +0.000 A 
ATOM     24  C   UNL     1      38.354  -2.986  46.781  0.00  0.00    +0.000 A 
ATOM     25  C   UNL     1      37.402  -3.691  47.507  0.00  0.00    +0.000 A 
BRANCH  25  26
ATOM     26  O   UNL     1      37.687  -4.026  48.799  0.00  0.00    +0.000 OA
ATOM     27  H   UNL     1      38.153  -4.880  48.795  0.00  0.00    +0.000 HD
ENDBRANCH  25  26
ENDBRANCH   5  20
TORSDOF 4
ENDMDL
MODEL 5
REMARK VINA RESULT:      -7.9     26.720     27.994
REMARK  Name = SB_202190.pdbqt.pdb
REMARK  4 active torsions:
REMARK  status: ('A' for Active; 'I' for Inactive)
REMARK    1  A    between atoms: C_4  and  C_7
REMARK    2  A    between atoms: C_5  and  C_19
REMARK    3  A    between atoms: C_6  and  C_8
REMARK    4  A    between atoms: C_15  and  O_26
REMARK                            x       y       z     vdW  Elec       q    Type
REMARK                         _______ _______ _______ _____ _____    ______ ____
ROOT
ATOM      1  N   UNL     1      18.862   7.321  20.672  0.00  0.00    +0.000 N 
ATOM      2  N   UNL     1      19.677   7.003  18.656  0.00  0.00    +0.000 NA
ATOM      3  C   UNL     1      19.427   8.532  20.323  0.00  0.00    +0.000 A 
ATOM      4  C   UNL     1      19.956   8.289  19.064  0.00  0.00    +0.000 A 
ATOM      5  C   UNL     1      19.018   6.428  19.639  0.00  0.00    +0.000 A 
ATOM      6  H   UNL     1      18.374   7.126  21.535  0.00  0.00    +0.000 HD
ENDROOT
BRANCH   4   7
ATOM      7  C   UNL     1      20.721   9.190  18.228  0.00  0.00    +0.000 A 
ATOM      8  C   UNL     1      20.323  10.514  18.032  0.00  0.00    +0.000 A 
ATOM      9  C   UNL     1      21.096  11.380  17.262  0.00  0.00    +0.000 A 
ATOM     10  C   UNL     1      22.280  10.917  16.702  0.00  0.00    +0.000 A 
ATOM     11  F   UNL     1      23.024  11.746  15.957  0.00  0.00    +0.000 F 
ATOM     12  C   UNL     1      22.704   9.608  16.899  0.00  0.00    +0.000 A 
ATOM     13  C   UNL     1      21.924   8.749  17.670  0.00  0.00    +0.000 A 
ENDBRANCH   4   7
BRANCH   3  15
ATOM     14  N   UNL     1      19.201  11.993  22.807  0.00  0.00    +0.000 NA
ATOM     15  C   UNL     1      19.348   9.705  21.189  0.00  0.00    +0.000 A 
ATOM     16  C   UNL     1      20.491  10.217  21.800  0.00  0.00    +0.000 A 
ATOM     17  C   UNL     1      18.132  10.358  21.387  0.00  0.00    +0.000 A 
ATOM     18  C   UNL     1      20.366  11.347  22.592  0.00  0.00    +0.000 A 
ATOM     19  C   UNL     1      18.111  11.479  22.200  0.00  0.00    +0.000 A 
ENDBRANCH   3  15
BRANCH   5  20
ATOM     20  C   UNL     1      18.517   5.058  19.660  0.00  0.00    +0.000 A 
ATOM     21  C   UNL     1      18.239   4.439  20.881  0.00  0.00    +0.000 A 
ATOM     22  C   UNL     1      18.304   4.345  18.477  0.00  0.00    +0.000 A 
ATOM     23  C   UNL     1      17.760   3.132  20.926  0.00  0.00    +0.000 A 
ATOM     24  C   UNL     1      17.826   3.037  18.510  0.00  0.00    +0.000 A 
ATOM     25  C   UNL     1      17.557   2.442  19.735  0.00  0.00    +0.000 A 
BRANCH  25  26
ATOM     26  O   UNL     1      17.088   1.160  19.745  0.00  0.00    +0.000 OA
ATOM     27  H   UNL     1      16.390   1.086  19.071  0.00  0.00    +0.000 HD
ENDBRANCH  25  26
ENDBRANCH   5  20
TORSDOF 4
ENDMDL
MODEL 6
REMARK VINA RESULT:      -7.9     26.104     29.061
REMARK  Name = SB_202190.pdbqt.pdb
REMARK  4 active torsions:
REMARK  status: ('A' for Active; 'I' for Inactive)
REMARK    1  A    between atoms: C_4  and  C_7
REMARK    2  A    between atoms: C_5  and  C_19
REMARK    3  A    between atoms: C_6  and  C_8
REMARK    4  A    between atoms: C_15  and  O_26
REMARK                            x       y       z     vdW  Elec       q    Type
REMARK                         _______ _______ _______ _____ _____    ______ ____
ROOT
ATOM      1  N   UNL     1      37.822   1.455  13.496  0.00  0.00    +0.000 N 
ATOM      2  N   UNL     1      36.802   0.197  12.009  0.00  0.00    +0.000 NA
ATOM      3  C   UNL     1      38.580   1.577  12.349  0.00  0.00    +0.000 A 
ATOM      4  C   UNL     1      37.930   0.751  11.443  0.00  0.00    +0.000 A 
ATOM      5  C   UNL     1      36.751   0.630  13.251  0.00  0.00    +0.000 A 
ATOM      6  H   UNL     1      37.998   1.928  14.371  0.00  0.00    +0.000 HD
ENDROOT
BRANCH   4   7
ATOM      7  C   UNL     1      38.314   0.441  10.082  0.00  0.00    +0.000 A 
ATOM      8  C   UNL     1      37.763   1.125   8.997  0.00  0.00    +0.000 A 
ATOM      9  C   UNL     1      38.178   0.845   7.697  0.00  0.00    +0.000 A 
ATOM     10  C   UNL     1      39.163  -0.114   7.491  0.00  0.00    +0.000 A 
ATOM     11  F   UNL     1      39.562  -0.389   6.242  0.00  0.00    +0.000 F 
ATOM     12  C   UNL     1      39.738  -0.793   8.558  0.00  0.00    +0.000 A 
ATOM     13  C   UNL     1      39.315  -0.507   9.854  0.00  0.00    +0.000 A 
ENDBRANCH   4   7
BRANCH   3  15
ATOM     14  N   UNL     1      42.011   4.103  12.117  0.00  0.00    +0.000 NA
ATOM     15  C   UNL     1      39.744   2.457  12.276  0.00  0.00    +0.000 A 
ATOM     16  C   UNL     1      40.516   2.712  13.407  0.00  0.00    +0.000 A 
ATOM     17  C   UNL     1      40.126   3.024  11.060  0.00  0.00    +0.000 A 
ATOM     18  C   UNL     1      41.623   3.534  13.278  0.00  0.00    +0.000 A 
ATOM     19  C   UNL     1      41.249   3.835  11.036  0.00  0.00    +0.000 A 
ENDBRANCH   3  15
BRANCH   5  20
ATOM     20  C   UNL     1      35.728   0.301  14.238  0.00  0.00    +0.000 A 
ATOM     21  C   UNL     1      35.973  -0.698  15.184  0.00  0.00    +0.000 A 
ATOM     22  C   UNL     1      34.500   0.968  14.262  0.00  0.00    +0.000 A 
ATOM     23  C   UNL     1      35.013  -1.029  16.137  0.00  0.00    +0.000 A 
ATOM     24  C   UNL     1      33.532   0.645  15.210  0.00  0.00    +0.000 A 
ATOM     25  C   UNL     1      33.797  -0.352  16.141  0.00  0.00    +0.000 A 
BRANCH  25  26
ATOM     26  O   UNL     1      32.836  -0.652  17.061  0.00  0.00    +0.000 OA
ATOM     27  H   UNL     1      32.009  -0.844  16.586  0.00  0.00    +0.000 HD
ENDBRANCH  25  26
ENDBRANCH   5  20
TORSDOF 4
ENDMDL
MODEL 7
REMARK VINA RESULT:      -7.9     25.177     28.442
REMARK  Name = SB_202190.pdbqt.pdb
REMARK  4 active torsions:
REMARK  status: ('A' for Active; 'I' for Inactive)
REMARK    1  A    between atoms: C_4  and  C_7
REMARK    2  A    between atoms: C_5  and  C_19
REMARK    3  A    between atoms: C_6  and  C_8
REMARK    4  A    between atoms: C_15  and  O_26
REMARK                            x       y       z     vdW  Elec       q    Type
REMARK                         _______ _______ _______ _____ _____    ______ ____
ROOT
ATOM      1  N   UNL     1      37.857   2.721  12.707  0.00  0.00    +0.000 N 
ATOM      2  N   UNL     1      36.618   0.960  12.260  0.00  0.00    +0.000 NA
ATOM      3  C   UNL     1      37.221   2.424  13.896  0.00  0.00    +0.000 A 
ATOM      4  C   UNL     1      36.428   1.333  13.573  0.00  0.00    +0.000 A 
ATOM      5  C   UNL     1      37.483   1.810  11.748  0.00  0.00    +0.000 A 
ATOM      6  H   UNL     1      38.525   3.465  12.566  0.00  0.00    +0.000 HD
ENDROOT
BRANCH   4   7
ATOM      7  C   UNL     1      35.490   0.628  14.423  0.00  0.00    +0.000 A 
ATOM      8  C   UNL     1      34.131   0.947  14.425  0.00  0.00    +0.000 A 
ATOM      9  C   UNL     1      33.236   0.228  15.214  0.00  0.00    +0.000 A 
ATOM     10  C   UNL     1      33.708  -0.824  15.990  0.00  0.00    +0.000 A 
ATOM     11  F   UNL     1      32.851  -1.514  16.754  0.00  0.00    +0.000 F 
ATOM     12  C   UNL     1      35.054  -1.169  15.988  0.00  0.00    +0.000 A 
ATOM     13  C   UNL     1      35.942  -0.444  15.196  0.00  0.00    +0.000 A 
ENDBRANCH   4   7
BRANCH   3  15
ATOM     14  N   UNL     1      37.942   4.645  17.466  0.00  0.00    +0.000 NA
ATOM     15  C   UNL     1      37.481   3.171  15.123  0.00  0.00    +0.000 A 
ATOM     16  C   UNL     1      38.564   4.043  15.212  0.00  0.00    +0.000 A 
ATOM     17  C   UNL     1      36.623   3.054  16.217  0.00  0.00    +0.000 A 
ATOM     18  C   UNL     1      38.752   4.745  16.391  0.00  0.00    +0.000 A 
ATOM     19  C   UNL     1      36.898   3.798  17.353  0.00  0.00    +0.000 A 
ENDBRANCH   3  15
BRANCH   5  20
ATOM     20  C   UNL     1      37.986   1.810  10.379  0.00  0.00    +0.000 A 
ATOM     21  C   UNL     1      39.121   2.559  10.057  0.00  0.00    +0.000 A 
ATOM     22  C   UNL     1      37.355   1.073   9.373  0.00  0.00    +0.000 A 
ATOM     23  C   UNL     1      39.620   2.575   8.756  0.00  0.00    +0.000 A 
ATOM     24  C   UNL     1      37.846   1.082   8.069  0.00  0.00    +0.000 A 
ATOM     25  C   UNL     1      38.976   1.833   7.772  0.00  0.00    +0.000 A 
BRANCH  25  26
ATOM     26  O   UNL     1      39.440   1.828   6.489  0.00  0.00    +0.000 OA
ATOM     27  H   UNL     1      39.205   0.975   6.084  0.00  0.00    +0.000 HD
ENDBRANCH  25  26
ENDBRANCH   5  20
TORSDOF 4
ENDMDL
MODEL 8
REMARK VINA RESULT:      -7.2     25.955     29.233
REMARK  Name = SB_202190.pdbqt.pdb
REMARK  4 active torsions:
REMARK  status: ('A' for Active; 'I' for Inactive)
REMARK    1  A    between atoms: C_4  and  C_7
REMARK    2  A    between atoms: C_5  and  C_19
REMARK    3  A    between atoms: C_6  and  C_8
REMARK    4  A    between atoms: C_15  and  O_26
REMARK                            x       y       z     vdW  Elec       q    Type
REMARK                         _______ _______ _______ _____ _____    ______ ____
ROOT
ATOM      1  N   UNL     1      39.332   2.018  11.688  0.00  0.00    +0.000 N 
ATOM      2  N   UNL     1      37.659   0.593  11.638  0.00  0.00    +0.000 NA
ATOM      3  C   UNL     1      38.705   2.166  12.909  0.00  0.00    +0.000 A 
ATOM      4  C   UNL     1      37.640   1.278  12.833  0.00  0.00    +0.000 A 
ATOM      5  C   UNL     1      38.686   1.052  10.954  0.00  0.00    +0.000 A 
ATOM      6  H   UNL     1      40.161   2.511  11.389  0.00  0.00    +0.000 HD
ENDROOT
BRANCH   4   7
ATOM      7  C   UNL     1      36.599   1.048  13.812  0.00  0.00    +0.000 A 
ATOM      8  C   UNL     1      35.368   1.703  13.732  0.00  0.00    +0.000 A 
ATOM      9  C   UNL     1      34.362   1.435  14.657  0.00  0.00    +0.000 A 
ATOM     10  C   UNL     1      34.588   0.493  15.653  0.00  0.00    +0.000 A 
ATOM     11  F   UNL     1      33.624   0.236  16.547  0.00  0.00    +0.000 F 
ATOM     12  C   UNL     1      35.799  -0.184  15.740  0.00  0.00    +0.000 A 
ATOM     13  C   UNL     1      36.800   0.092  14.811  0.00  0.00    +0.000 A 
ENDBRANCH   4   7
BRANCH   3  15
ATOM     14  N   UNL     1      40.192   4.752  15.958  0.00  0.00    +0.000 NA
ATOM     15  C   UNL     1      39.213   3.066  13.940  0.00  0.00    +0.000 A 
ATOM     16  C   UNL     1      38.340   3.824  14.717  0.00  0.00    +0.000 A 
ATOM     17  C   UNL     1      40.582   3.151  14.192  0.00  0.00    +0.000 A 
ATOM     18  C   UNL     1      38.872   4.644  15.699  0.00  0.00    +0.000 A 
ATOM     19  C   UNL     1      41.015   4.003  15.196  0.00  0.00    +0.000 A 
ENDBRANCH   3  15
BRANCH   5  20
ATOM     20  C   UNL     1      39.099   0.622   9.623  0.00  0.00    +0.000 A 
ATOM     21  C   UNL     1      39.706  -0.625   9.454  0.00  0.00    +0.000 A 
ATOM     22  C   UNL     1      38.899   1.434   8.503  0.00  0.00    +0.000 A 
ATOM     23  C   UNL     1      40.108  -1.057   8.192  0.00  0.00    +0.000 A 
ATOM     24  C   UNL     1      39.298   1.012   7.237  0.00  0.00    +0.000 A 
ATOM     25  C   UNL     1      39.900  -0.232   7.092  0.00  0.00    +0.000 A 
BRANCH  25  26
ATOM     26  O   UNL     1      40.282  -0.626   5.843  0.00  0.00    +0.000 OA
ATOM     27  H   UNL     1      40.107  -1.579   5.758  0.00  0.00    +0.000 HD
ENDBRANCH  25  26
ENDBRANCH   5  20
TORSDOF 4
ENDMDL
MODEL 9
REMARK VINA RESULT:      -7.1     26.586     29.718
REMARK  Name = SB_202190.pdbqt.pdb
REMARK  4 active torsions:
REMARK  status: ('A' for Active; 'I' for Inactive)
REMARK    1  A    between atoms: C_4  and  C_7
REMARK    2  A    between atoms: C_5  and  C_19
REMARK    3  A    between atoms: C_6  and  C_8
REMARK    4  A    between atoms: C_15  and  O_26
REMARK                            x       y       z     vdW  Elec       q    Type
REMARK                         _______ _______ _______ _____ _____    ______ ____
ROOT
ATOM      1  N   UNL     1      38.100   1.154  11.901  0.00  0.00    +0.000 N 
ATOM      2  N   UNL     1      39.061  -0.604  12.805  0.00  0.00    +0.000 NA
ATOM      3  C   UNL     1      39.083   0.788  11.004  0.00  0.00    +0.000 A 
ATOM      4  C   UNL     1      39.688  -0.301  11.616  0.00  0.00    +0.000 A 
ATOM      5  C   UNL     1      38.104   0.286  12.966  0.00  0.00    +0.000 A 
ATOM      6  H   UNL     1      37.448   1.916  11.781  0.00  0.00    +0.000 HD
ENDROOT
BRANCH   4   7
ATOM      7  C   UNL     1      40.830  -1.063  11.156  0.00  0.00    +0.000 A 
ATOM      8  C   UNL     1      40.717  -1.980  10.109  0.00  0.00    +0.000 A 
ATOM      9  C   UNL     1      41.835  -2.671   9.649  0.00  0.00    +0.000 A 
ATOM     10  C   UNL     1      43.072  -2.426  10.232  0.00  0.00    +0.000 A 
ATOM     11  F   UNL     1      44.149  -3.092   9.795  0.00  0.00    +0.000 F 
ATOM     12  C   UNL     1      43.210  -1.505  11.263  0.00  0.00    +0.000 A 
ATOM     13  C   UNL     1      42.086  -0.819  11.717  0.00  0.00    +0.000 A 
ENDBRANCH   4   7
BRANCH   3  15
ATOM     14  N   UNL     1      39.581   2.831   7.293  0.00  0.00    +0.000 NA
ATOM     15  C   UNL     1      39.270   1.477   9.730  0.00  0.00    +0.000 A 
ATOM     16  C   UNL     1      38.802   0.918   8.543  0.00  0.00    +0.000 A 
ATOM     17  C   UNL     1      39.884   2.728   9.686  0.00  0.00    +0.000 A 
ATOM     18  C   UNL     1      38.983   1.623   7.364  0.00  0.00    +0.000 A 
ATOM     19  C   UNL     1      40.020   3.352   8.457  0.00  0.00    +0.000 A 
ENDBRANCH   3  15
BRANCH   5  20
ATOM     20  C   UNL     1      37.177   0.363  14.089  0.00  0.00    +0.000 A 
ATOM     21  C   UNL     1      36.636   1.598  14.458  0.00  0.00    +0.000 A 
ATOM     22  C   UNL     1      36.812  -0.777  14.811  0.00  0.00    +0.000 A 
ATOM     23  C   UNL     1      35.749   1.697  15.527  0.00  0.00    +0.000 A 
ATOM     24  C   UNL     1      35.926  -0.689  15.882  0.00  0.00    +0.000 A 
ATOM     25  C   UNL     1      35.401   0.549  16.231  0.00  0.00    +0.000 A 
BRANCH  25  26
ATOM     26  O   UNL     1      34.533   0.613  17.282  0.00  0.00    +0.000 OA
ATOM     27  H   UNL     1      34.177   1.517  17.329  0.00  0.00    +0.000 HD
ENDBRANCH  25  26
ENDBRANCH   5  20
TORSDOF 4
ENDMDL
