MODEL 1
REMARK VINA RESULT:      -7.4      0.000      0.000
REMARK  Name = Simvastatin.pdbqt.pdb
REMARK  7 active torsions:
REMARK  status: ('A' for Active; 'I' for Inactive)
REMARK    1  A    between atoms: C_2  and  C_13
REMARK    2  A    between atoms: C_3  and  O_24
REMARK    3  A    between atoms: C_14  and  C_15
REMARK    4  A    between atoms: C_20  and  O_22
REMARK    5  A    between atoms: O_24  and  C_25
REMARK    6  A    between atoms: C_25  and  C_27
REMARK    7  A    between atoms: C_27  and  C_30
REMARK                            x       y       z     vdW  Elec       q    Type
REMARK                         _______ _______ _______ _____ _____    ______ ____
ROOT
ATOM      1  C   UNL     1      38.962   1.439   9.912  0.00  0.00    +0.000 A 
ATOM      2  C   UNL     1      38.104   0.247  10.279  0.00  0.00    +0.000 A 
ATOM      3  C   UNL     1      39.848   2.201  10.862  0.00  0.00    +0.000 A 
ATOM      4  C   UNL     1      37.509  -0.594   9.205  0.00  0.00    +0.000 A 
ATOM      5  C   UNL     1      38.984   1.848   8.424  0.00  0.00    +0.000 A 
ATOM      6  C   UNL     1      40.612   3.210  10.182  0.00  0.00    +0.000 A 
ATOM      7  C   UNL     1      40.735   3.609   8.814  0.00  0.00    +0.000 A 
ATOM      8  C   UNL     1      39.825   2.782   8.090  0.00  0.00    +0.000 A 
ATOM      9  C   UNL     1      37.770  -0.074   7.905  0.00  0.00    +0.000 A 
ATOM     10  C   UNL     1      38.364   0.912   7.567  0.00  0.00    +0.000 A 
ATOM     11  C   UNL     1      36.667  -1.819   9.394  0.00  0.00    +0.000 C 
ATOM     12  C   UNL     1      42.083   3.924   8.248  0.00  0.00    +0.000 C 
ENDROOT
BRANCH   2  13
ATOM     13  C   UNL     1      37.700   0.073  11.635  0.00  0.00    +0.000 C 
ATOM     14  C   UNL     1      37.196  -0.121  13.070  0.00  0.00    +0.000 C 
BRANCH  14  15
ATOM     15  C   UNL     1      36.678  -0.327  14.371  0.00  0.00    +0.000 C 
ATOM     16  O   UNL     1      35.904   0.737  14.964  0.00  0.00    +0.000 OA
ATOM     17  C   UNL     1      35.410   0.614  16.266  0.00  0.00    +0.000 C 
ATOM     18  O   UNL     1      34.749   1.471  16.832  0.00  0.00    +0.000 OA
ATOM     19  C   UNL     1      35.756  -0.629  16.910  0.00  0.00    +0.000 C 
ATOM     20  C   UNL     1      36.497  -1.759  16.503  0.00  0.00    +0.000 C 
ATOM     21  C   UNL     1      36.909  -1.468  15.183  0.00  0.00    +0.000 C 
BRANCH  20  22
ATOM     22  O   UNL     1      37.268  -2.459  17.384  0.00  0.00    +0.000 OA
ATOM     23  H   UNL     1      37.555  -3.322  17.026  0.00  0.00    +0.000 HD
ENDBRANCH  20  22
ENDBRANCH  14  15
ENDBRANCH   2  13
BRANCH   3  24
ATOM     24  O   UNL     1      40.493   1.420  11.826  0.00  0.00    +0.000 OA
BRANCH  24  25
ATOM     25  C   UNL     1      41.854   1.319  11.599  0.00  0.00    +0.000 C 
ATOM     26  O   UNL     1      42.650   2.234  11.818  0.00  0.00    +0.000 OA
BRANCH  25  27
ATOM     27  C   UNL     1      42.222  -0.090  11.016  0.00  0.00    +0.000 C 
ATOM     28  C   UNL     1      41.121  -1.134  11.438  0.00  0.00    +0.000 C 
ATOM     29  C   UNL     1      43.622  -0.582  11.564  0.00  0.00    +0.000 C 
BRANCH  27  30
ATOM     30  C   UNL     1      42.290   0.050   9.534  0.00  0.00    +0.000 C 
ATOM     31  C   UNL     1      42.365   0.147   7.982  0.00  0.00    +0.000 C 
ENDBRANCH  27  30
ENDBRANCH  25  27
ENDBRANCH  24  25
ENDBRANCH   3  24
TORSDOF 7
ENDMDL
MODEL 2
REMARK VINA RESULT:      -7.3      1.454      2.244
REMARK  Name = Simvastatin.pdbqt.pdb
REMARK  7 active torsions:
REMARK  status: ('A' for Active; 'I' for Inactive)
REMARK    1  A    between atoms: C_2  and  C_13
REMARK    2  A    between atoms: C_3  and  O_24
REMARK    3  A    between atoms: C_14  and  C_15
REMARK    4  A    between atoms: C_20  and  O_22
REMARK    5  A    between atoms: O_24  and  C_25
REMARK    6  A    between atoms: C_25  and  C_27
REMARK    7  A    between atoms: C_27  and  C_30
REMARK                            x       y       z     vdW  Elec       q    Type
REMARK                         _______ _______ _______ _____ _____    ______ ____
ROOT
ATOM      1  C   UNL     1      38.992   1.822  10.064  0.00  0.00    +0.000 A 
ATOM      2  C   UNL     1      38.252   0.549  10.414  0.00  0.00    +0.000 A 
ATOM      3  C   UNL     1      39.695   2.720  11.047  0.00  0.00    +0.000 A 
ATOM      4  C   UNL     1      37.857  -0.397   9.335  0.00  0.00    +0.000 A 
ATOM      5  C   UNL     1      39.095   2.177   8.565  0.00  0.00    +0.000 A 
ATOM      6  C   UNL     1      40.391   3.791  10.386  0.00  0.00    +0.000 A 
ATOM      7  C   UNL     1      40.584   4.151   9.015  0.00  0.00    +0.000 A 
ATOM      8  C   UNL     1      39.845   3.193   8.258  0.00  0.00    +0.000 A 
ATOM      9  C   UNL     1      38.166   0.104   8.038  0.00  0.00    +0.000 A 
ATOM     10  C   UNL     1      38.667   1.141   7.705  0.00  0.00    +0.000 A 
ATOM     11  C   UNL     1      37.152  -1.707   9.511  0.00  0.00    +0.000 C 
ATOM     12  C   UNL     1      41.929   4.608   8.548  0.00  0.00    +0.000 C 
ENDROOT
BRANCH   2  13
ATOM     13  C   UNL     1      37.754   0.377  11.738  0.00  0.00    +0.000 C 
ATOM     14  C   UNL     1      37.200   0.124  13.146  0.00  0.00    +0.000 C 
BRANCH  14  15
ATOM     15  C   UNL     1      36.692  -0.173  14.433  0.00  0.00    +0.000 C 
ATOM     16  O   UNL     1      35.925   0.847  15.106  0.00  0.00    +0.000 OA
ATOM     17  C   UNL     1      35.443   0.632  16.401  0.00  0.00    +0.000 C 
ATOM     18  O   UNL     1      34.788   1.448  17.031  0.00  0.00    +0.000 OA
ATOM     19  C   UNL     1      35.793  -0.654  16.953  0.00  0.00    +0.000 C 
ATOM     20  C   UNL     1      36.529  -1.752  16.460  0.00  0.00    +0.000 C 
ATOM     21  C   UNL     1      36.930  -1.370  15.161  0.00  0.00    +0.000 C 
BRANCH  20  22
ATOM     22  O   UNL     1      37.306  -2.513  17.283  0.00  0.00    +0.000 OA
ATOM     23  H   UNL     1      37.066  -2.412  18.224  0.00  0.00    +0.000 HD
ENDBRANCH  20  22
ENDBRANCH  14  15
ENDBRANCH   2  13
BRANCH   3  24
ATOM     24  O   UNL     1      40.342   2.060  12.096  0.00  0.00    +0.000 OA
BRANCH  24  25
ATOM     25  C   UNL     1      40.363   2.807  13.259  0.00  0.00    +0.000 C 
ATOM     26  O   UNL     1      39.346   3.161  13.860  0.00  0.00    +0.000 OA
BRANCH  25  27
ATOM     27  C   UNL     1      41.835   3.151  13.677  0.00  0.00    +0.000 C 
ATOM     28  C   UNL     1      41.919   3.261  15.246  0.00  0.00    +0.000 C 
ATOM     29  C   UNL     1      42.296   4.528  13.048  0.00  0.00    +0.000 C 
BRANCH  27  30
ATOM     30  C   UNL     1      42.706   2.055  13.168  0.00  0.00    +0.000 C 
ATOM     31  C   UNL     1      43.650   0.922  12.669  0.00  0.00    +0.000 C 
ENDBRANCH  27  30
ENDBRANCH  25  27
ENDBRANCH  24  25
ENDBRANCH   3  24
TORSDOF 7
ENDMDL
MODEL 3
REMARK VINA RESULT:      -7.2      3.145      8.127
REMARK  Name = Simvastatin.pdbqt.pdb
REMARK  7 active torsions:
REMARK  status: ('A' for Active; 'I' for Inactive)
REMARK    1  A    between atoms: C_2  and  C_13
REMARK    2  A    between atoms: C_3  and  O_24
REMARK    3  A    between atoms: C_14  and  C_15
REMARK    4  A    between atoms: C_20  and  O_22
REMARK    5  A    between atoms: O_24  and  C_25
REMARK    6  A    between atoms: C_25  and  C_27
REMARK    7  A    between atoms: C_27  and  C_30
REMARK                            x       y       z     vdW  Elec       q    Type
REMARK                         _______ _______ _______ _____ _____    ______ ____
ROOT
ATOM      1  C   UNL     1      36.322   2.610  14.904  0.00  0.00    +0.000 A 
ATOM      2  C   UNL     1      37.511   3.535  15.055  0.00  0.00    +0.000 A 
ATOM      3  C   UNL     1      36.025   1.764  13.695  0.00  0.00    +0.000 A 
ATOM      4  C   UNL     1      37.853   4.087  16.394  0.00  0.00    +0.000 A 
ATOM      5  C   UNL     1      35.390   2.471  16.126  0.00  0.00    +0.000 A 
ATOM      6  C   UNL     1      34.882   0.917  13.906  0.00  0.00    +0.000 A 
ATOM      7  C   UNL     1      34.010   0.686  15.017  0.00  0.00    +0.000 A 
ATOM      8  C   UNL     1      34.451   1.575  16.043  0.00  0.00    +0.000 A 
ATOM      9  C   UNL     1      36.902   3.718  17.389  0.00  0.00    +0.000 A 
ATOM     10  C   UNL     1      35.899   3.066  17.301  0.00  0.00    +0.000 A 
ATOM     11  C   UNL     1      39.006   4.985  16.722  0.00  0.00    +0.000 C 
ATOM     12  C   UNL     1      33.589  -0.708  15.355  0.00  0.00    +0.000 C 
ENDROOT
BRANCH   2  13
ATOM     13  C   UNL     1      38.152   4.038  13.886  0.00  0.00    +0.000 C 
ATOM     14  C   UNL     1      38.873   4.630  12.669  0.00  0.00    +0.000 C 
BRANCH  14  15
ATOM     15  C   UNL     1      39.579   5.207  11.586  0.00  0.00    +0.000 C 
ATOM     16  O   UNL     1      40.459   6.315  11.869  0.00  0.00    +0.000 OA
ATOM     17  C   UNL     1      41.142   6.960  10.833  0.00  0.00    +0.000 C 
ATOM     18  O   UNL     1      41.902   7.902  10.998  0.00  0.00    +0.000 OA
ATOM     19  C   UNL     1      40.870   6.420   9.524  0.00  0.00    +0.000 C 
ATOM     20  C   UNL     1      40.048   5.371   9.060  0.00  0.00    +0.000 C 
ATOM     21  C   UNL     1      39.447   4.837  10.221  0.00  0.00    +0.000 C 
BRANCH  20  22
ATOM     22  O   UNL     1      39.405   5.450   7.860  0.00  0.00    +0.000 OA
ATOM     23  H   UNL     1      39.560   4.665   7.300  0.00  0.00    +0.000 HD
ENDBRANCH  20  22
ENDBRANCH  14  15
ENDBRANCH   2  13
BRANCH   3  24
ATOM     24  O   UNL     1      37.146   1.215  13.065  0.00  0.00    +0.000 OA
BRANCH  24  25
ATOM     25  C   UNL     1      37.153   1.446  11.701  0.00  0.00    +0.000 C 
ATOM     26  O   UNL     1      36.434   2.282  11.149  0.00  0.00    +0.000 OA
BRANCH  25  27
ATOM     27  C   UNL     1      38.168   0.496  10.977  0.00  0.00    +0.000 C 
ATOM     28  C   UNL     1      39.037  -0.258  12.052  0.00  0.00    +0.000 C 
ATOM     29  C   UNL     1      39.135   1.316  10.030  0.00  0.00    +0.000 C 
BRANCH  27  30
ATOM     30  C   UNL     1      37.371  -0.463  10.162  0.00  0.00    +0.000 C 
ATOM     31  C   UNL     1      36.566  -1.456   9.272  0.00  0.00    +0.000 C 
ENDBRANCH  27  30
ENDBRANCH  25  27
ENDBRANCH  24  25
ENDBRANCH   3  24
TORSDOF 7
ENDMDL
MODEL 4
REMARK VINA RESULT:      -7.0      4.775      6.889
REMARK  Name = Simvastatin.pdbqt.pdb
REMARK  7 active torsions:
REMARK  status: ('A' for Active; 'I' for Inactive)
REMARK    1  A    between atoms: C_2  and  C_13
REMARK    2  A    between atoms: C_3  and  O_24
REMARK    3  A    between atoms: C_14  and  C_15
REMARK    4  A    between atoms: C_20  and  O_22
REMARK    5  A    between atoms: O_24  and  C_25
REMARK    6  A    between atoms: C_25  and  C_27
REMARK    7  A    between atoms: C_27  and  C_30
REMARK                            x       y       z     vdW  Elec       q    Type
REMARK                         _______ _______ _______ _____ _____    ______ ____
ROOT
ATOM      1  C   UNL     1      36.693   2.426  14.254  0.00  0.00    +0.000 A 
ATOM      2  C   UNL     1      36.576   2.527  15.760  0.00  0.00    +0.000 A 
ATOM      3  C   UNL     1      37.807   3.008  13.425  0.00  0.00    +0.000 A 
ATOM      4  C   UNL     1      35.600   1.670  16.485  0.00  0.00    +0.000 A 
ATOM      5  C   UNL     1      35.618   1.588  13.528  0.00  0.00    +0.000 A 
ATOM      6  C   UNL     1      37.683   2.646  12.039  0.00  0.00    +0.000 A 
ATOM      7  C   UNL     1      36.762   1.834  11.304  0.00  0.00    +0.000 A 
ATOM      8  C   UNL     1      35.797   1.389  12.256  0.00  0.00    +0.000 A 
ATOM      9  C   UNL     1      34.799   0.894  15.598  0.00  0.00    +0.000 A 
ATOM     10  C   UNL     1      34.790   0.847  14.400  0.00  0.00    +0.000 A 
ATOM     11  C   UNL     1      35.380   1.623  17.967  0.00  0.00    +0.000 C 
ATOM     12  C   UNL     1      37.269   0.902  10.250  0.00  0.00    +0.000 C 
ENDROOT
BRANCH   2  13
ATOM     13  C   UNL     1      37.242   3.589  16.438  0.00  0.00    +0.000 C 
ATOM     14  C   UNL     1      37.958   4.770  17.105  0.00  0.00    +0.000 C 
BRANCH  14  15
ATOM     15  C   UNL     1      38.597   5.898  17.674  0.00  0.00    +0.000 C 
ATOM     16  O   UNL     1      38.305   6.214  19.051  0.00  0.00    +0.000 OA
ATOM     17  C   UNL     1      38.864   7.347  19.652  0.00  0.00    +0.000 C 
ATOM     18  O   UNL     1      38.662   7.676  20.811  0.00  0.00    +0.000 OA
ATOM     19  C   UNL     1      39.711   8.119  18.777  0.00  0.00    +0.000 C 
ATOM     20  C   UNL     1      40.097   7.976  17.427  0.00  0.00    +0.000 C 
ATOM     21  C   UNL     1      39.454   6.798  16.986  0.00  0.00    +0.000 C 
BRANCH  20  22
ATOM     22  O   UNL     1      40.289   9.061  16.623  0.00  0.00    +0.000 OA
ATOM     23  H   UNL     1      40.309   9.899  17.125  0.00  0.00    +0.000 HD
ENDBRANCH  20  22
ENDBRANCH  14  15
ENDBRANCH   2  13
BRANCH   3  24
ATOM     24  O   UNL     1      39.075   2.949  14.012  0.00  0.00    +0.000 OA
BRANCH  24  25
ATOM     25  C   UNL     1      39.793   4.118  13.835  0.00  0.00    +0.000 C 
ATOM     26  O   UNL     1      39.274   5.235  13.783  0.00  0.00    +0.000 OA
BRANCH  25  27
ATOM     27  C   UNL     1      41.326   3.817  13.692  0.00  0.00    +0.000 C 
ATOM     28  C   UNL     1      41.929   3.494  15.110  0.00  0.00    +0.000 C 
ATOM     29  C   UNL     1      42.093   5.061  13.087  0.00  0.00    +0.000 C 
BRANCH  27  30
ATOM     30  C   UNL     1      41.463   2.653  12.772  0.00  0.00    +0.000 C 
ATOM     31  C   UNL     1      41.589   1.465  11.774  0.00  0.00    +0.000 C 
ENDBRANCH  27  30
ENDBRANCH  25  27
ENDBRANCH  24  25
ENDBRANCH   3  24
TORSDOF 7
ENDMDL
MODEL 5
REMARK VINA RESULT:      -7.0     21.266     25.307
REMARK  Name = Simvastatin.pdbqt.pdb
REMARK  7 active torsions:
REMARK  status: ('A' for Active; 'I' for Inactive)
REMARK    1  A    between atoms: C_2  and  C_13
REMARK    2  A    between atoms: C_3  and  O_24
REMARK    3  A    between atoms: C_14  and  C_15
REMARK    4  A    between atoms: C_20  and  O_22
REMARK    5  A    between atoms: O_24  and  C_25
REMARK    6  A    between atoms: C_25  and  C_27
REMARK    7  A    between atoms: C_27  and  C_30
REMARK                            x       y       z     vdW  Elec       q    Type
REMARK                         _______ _______ _______ _____ _____    ______ ____
ROOT
ATOM      1  C   UNL     1      19.430   8.050  19.309  0.00  0.00    +0.000 A 
ATOM      2  C   UNL     1      19.901   9.473  19.102  0.00  0.00    +0.000 A 
ATOM      3  C   UNL     1      18.242   7.636  20.137  0.00  0.00    +0.000 A 
ATOM      4  C   UNL     1      20.896   9.775  18.037  0.00  0.00    +0.000 A 
ATOM      5  C   UNL     1      20.189   6.947  18.540  0.00  0.00    +0.000 A 
ATOM      6  C   UNL     1      17.996   6.223  20.046  0.00  0.00    +0.000 A 
ATOM      7  C   UNL     1      18.607   5.154  19.317  0.00  0.00    +0.000 A 
ATOM      8  C   UNL     1      19.698   5.745  18.611  0.00  0.00    +0.000 A 
ATOM      9  C   UNL     1      21.362   8.598  17.384  0.00  0.00    +0.000 A 
ATOM     10  C   UNL     1      21.089   7.445  17.573  0.00  0.00    +0.000 A 
ATOM     11  C   UNL     1      21.441  11.124  17.681  0.00  0.00    +0.000 C 
ATOM     12  C   UNL     1      17.753   4.119  18.658  0.00  0.00    +0.000 C 
ENDROOT
BRANCH   2  13
ATOM     13  C   UNL     1      19.555  10.466  20.064  0.00  0.00    +0.000 C 
ATOM     14  C   UNL     1      19.125  11.493  21.119  0.00  0.00    +0.000 C 
BRANCH  14  15
ATOM     15  C   UNL     1      18.693  12.395  22.121  0.00  0.00    +0.000 C 
ATOM     16  O   UNL     1      18.229  11.842  23.370  0.00  0.00    +0.000 OA
ATOM     17  C   UNL     1      17.741  12.679  24.378  0.00  0.00    +0.000 C 
ATOM     18  O   UNL     1      17.332  12.282  25.459  0.00  0.00    +0.000 OA
ATOM     19  C   UNL     1      17.749  14.079  24.034  0.00  0.00    +0.000 C 
ATOM     20  C   UNL     1      18.146  14.792  22.883  0.00  0.00    +0.000 C 
ATOM     21  C   UNL     1      18.609  13.806  21.984  0.00  0.00    +0.000 C 
BRANCH  20  22
ATOM     22  O   UNL     1      17.483  15.914  22.477  0.00  0.00    +0.000 OA
ATOM     23  H   UNL     1      17.191  15.860  21.547  0.00  0.00    +0.000 HD
ENDBRANCH  20  22
ENDBRANCH  14  15
ENDBRANCH   2  13
BRANCH   3  24
ATOM     24  O   UNL     1      17.146   8.503  20.076  0.00  0.00    +0.000 OA
BRANCH  24  25
ATOM     25  C   UNL     1      16.656   8.826  21.328  0.00  0.00    +0.000 C 
ATOM     26  O   UNL     1      17.319   8.734  22.363  0.00  0.00    +0.000 OA
BRANCH  25  27
ATOM     27  C   UNL     1      15.162   9.293  21.241  0.00  0.00    +0.000 C 
ATOM     28  C   UNL     1      14.330   8.596  22.382  0.00  0.00    +0.000 C 
ATOM     29  C   UNL     1      14.527   8.908  19.845  0.00  0.00    +0.000 C 
BRANCH  27  30
ATOM     30  C   UNL     1      15.153  10.775  21.399  0.00  0.00    +0.000 C 
ATOM     31  C   UNL     1      15.120  12.318  21.607  0.00  0.00    +0.000 C 
ENDBRANCH  27  30
ENDBRANCH  25  27
ENDBRANCH  24  25
ENDBRANCH   3  24
TORSDOF 7
ENDMDL
MODEL 6
REMARK VINA RESULT:      -6.9      2.347      3.146
REMARK  Name = Simvastatin.pdbqt.pdb
REMARK  7 active torsions:
REMARK  status: ('A' for Active; 'I' for Inactive)
REMARK    1  A    between atoms: C_2  and  C_13
REMARK    2  A    between atoms: C_3  and  O_24
REMARK    3  A    between atoms: C_14  and  C_15
REMARK    4  A    between atoms: C_20  and  O_22
REMARK    5  A    between atoms: O_24  and  C_25
REMARK    6  A    between atoms: C_25  and  C_27
REMARK    7  A    between atoms: C_27  and  C_30
REMARK                            x       y       z     vdW  Elec       q    Type
REMARK                         _______ _______ _______ _____ _____    ______ ____
ROOT
ATOM      1  C   UNL     1      38.637   1.823   9.508  0.00  0.00    +0.000 A 
ATOM      2  C   UNL     1      37.794   0.672  10.013  0.00  0.00    +0.000 A 
ATOM      3  C   UNL     1      39.170   2.949  10.353  0.00  0.00    +0.000 A 
ATOM      4  C   UNL     1      37.578  -0.521   9.150  0.00  0.00    +0.000 A 
ATOM      5  C   UNL     1      39.043   1.786   8.019  0.00  0.00    +0.000 A 
ATOM      6  C   UNL     1      40.024   3.824   9.595  0.00  0.00    +0.000 A 
ATOM      7  C   UNL     1      40.494   3.827   8.244  0.00  0.00    +0.000 A 
ATOM      8  C   UNL     1      39.878   2.700   7.621  0.00  0.00    +0.000 A 
ATOM      9  C   UNL     1      38.153  -0.363   7.857  0.00  0.00    +0.000 A 
ATOM     10  C   UNL     1      38.750   0.561   7.379  0.00  0.00    +0.000 A 
ATOM     11  C   UNL     1      36.801  -1.752   9.506  0.00  0.00    +0.000 C 
ATOM     12  C   UNL     1      41.921   4.165   7.953  0.00  0.00    +0.000 C 
ENDROOT
BRANCH   2  13
ATOM     13  C   UNL     1      37.042   0.836  11.213  0.00  0.00    +0.000 C 
ATOM     14  C   UNL     1      36.285   0.978  12.539  0.00  0.00    +0.000 C 
BRANCH  14  15
ATOM     15  C   UNL     1      35.643   1.098  13.795  0.00  0.00    +0.000 C 
ATOM     16  O   UNL     1      36.359   1.760  14.858  0.00  0.00    +0.000 OA
ATOM     17  C   UNL     1      35.798   1.861  16.135  0.00  0.00    +0.000 C 
ATOM     18  O   UNL     1      36.346   2.407  17.081  0.00  0.00    +0.000 OA
ATOM     19  C   UNL     1      34.497   1.252  16.255  0.00  0.00    +0.000 C 
ATOM     20  C   UNL     1      33.661   0.564  15.349  0.00  0.00    +0.000 C 
ATOM     21  C   UNL     1      34.372   0.559  14.129  0.00  0.00    +0.000 C 
BRANCH  20  22
ATOM     22  O   UNL     1      32.875  -0.474  15.756  0.00  0.00    +0.000 OA
ATOM     23  H   UNL     1      33.005  -1.276  15.213  0.00  0.00    +0.000 HD
ENDBRANCH  20  22
ENDBRANCH  14  15
ENDBRANCH   2  13
BRANCH   3  24
ATOM     24  O   UNL     1      39.575   2.584  11.640  0.00  0.00    +0.000 OA
BRANCH  24  25
ATOM     25  C   UNL     1      39.308   3.566  12.577  0.00  0.00    +0.000 C 
ATOM     26  O   UNL     1      38.190   4.055  12.751  0.00  0.00    +0.000 OA
BRANCH  25  27
ATOM     27  C   UNL     1      40.611   3.973  13.349  0.00  0.00    +0.000 C 
ATOM     28  C   UNL     1      41.631   2.773  13.321  0.00  0.00    +0.000 C 
ATOM     29  C   UNL     1      40.289   4.327  14.857  0.00  0.00    +0.000 C 
BRANCH  27  30
ATOM     30  C   UNL     1      41.174   5.171  12.667  0.00  0.00    +0.000 C 
ATOM     31  C   UNL     1      41.729   6.418  11.917  0.00  0.00    +0.000 C 
ENDBRANCH  27  30
ENDBRANCH  25  27
ENDBRANCH  24  25
ENDBRANCH   3  24
TORSDOF 7
ENDMDL
MODEL 7
REMARK VINA RESULT:      -6.9      4.962      6.780
REMARK  Name = Simvastatin.pdbqt.pdb
REMARK  7 active torsions:
REMARK  status: ('A' for Active; 'I' for Inactive)
REMARK    1  A    between atoms: C_2  and  C_13
REMARK    2  A    between atoms: C_3  and  O_24
REMARK    3  A    between atoms: C_14  and  C_15
REMARK    4  A    between atoms: C_20  and  O_22
REMARK    5  A    between atoms: O_24  and  C_25
REMARK    6  A    between atoms: C_25  and  C_27
REMARK    7  A    between atoms: C_27  and  C_30
REMARK                            x       y       z     vdW  Elec       q    Type
REMARK                         _______ _______ _______ _____ _____    ______ ____
ROOT
ATOM      1  C   UNL     1      37.250   2.802  13.530  0.00  0.00    +0.000 A 
ATOM      2  C   UNL     1      37.073   2.718  15.031  0.00  0.00    +0.000 A 
ATOM      3  C   UNL     1      38.386   3.495  12.824  0.00  0.00    +0.000 A 
ATOM      4  C   UNL     1      36.084   1.767  15.606  0.00  0.00    +0.000 A 
ATOM      5  C   UNL     1      36.221   2.045  12.665  0.00  0.00    +0.000 A 
ATOM      6  C   UNL     1      38.323   3.303  11.401  0.00  0.00    +0.000 A 
ATOM      7  C   UNL     1      37.448   2.574  10.535  0.00  0.00    +0.000 A 
ATOM      8  C   UNL     1      36.453   2.004  11.386  0.00  0.00    +0.000 A 
ATOM      9  C   UNL     1      35.333   1.094  14.600  0.00  0.00    +0.000 A 
ATOM     10  C   UNL     1      35.373   1.192  13.405  0.00  0.00    +0.000 A 
ATOM     11  C   UNL     1      35.807   1.538  17.061  0.00  0.00    +0.000 C 
ATOM     12  C   UNL     1      38.013   1.783   9.399  0.00  0.00    +0.000 C 
ENDROOT
BRANCH   2  13
ATOM     13  C   UNL     1      37.692   3.699  15.859  0.00  0.00    +0.000 C 
ATOM     14  C   UNL     1      38.378   4.791  16.690  0.00  0.00    +0.000 C 
BRANCH  14  15
ATOM     15  C   UNL     1      39.007   5.837  17.406  0.00  0.00    +0.000 C 
ATOM     16  O   UNL     1      40.387   6.128  17.100  0.00  0.00    +0.000 OA
ATOM     17  C   UNL     1      41.078   7.114  17.810  0.00  0.00    +0.000 C 
ATOM     18  O   UNL     1      42.245   7.413  17.607  0.00  0.00    +0.000 OA
ATOM     19  C   UNL     1      40.292   7.762  18.831  0.00  0.00    +0.000 C 
ATOM     20  C   UNL     1      38.961   7.608  19.274  0.00  0.00    +0.000 C 
ATOM     21  C   UNL     1      38.420   6.591  18.457  0.00  0.00    +0.000 C 
BRANCH  20  22
ATOM     22  O   UNL     1      38.626   7.763  20.587  0.00  0.00    +0.000 OA
ATOM     23  H   UNL     1      38.796   8.668  20.912  0.00  0.00    +0.000 HD
ENDBRANCH  20  22
ENDBRANCH  14  15
ENDBRANCH   2  13
BRANCH   3  24
ATOM     24  O   UNL     1      39.630   3.383  13.452  0.00  0.00    +0.000 OA
BRANCH  24  25
ATOM     25  C   UNL     1      40.251   4.607  13.617  0.00  0.00    +0.000 C 
ATOM     26  O   UNL     1      39.671   5.687  13.494  0.00  0.00    +0.000 OA
BRANCH  25  27
ATOM     27  C   UNL     1      41.772   4.423  13.955  0.00  0.00    +0.000 C 
ATOM     28  C   UNL     1      42.472   3.623  12.793  0.00  0.00    +0.000 C 
ATOM     29  C   UNL     1      41.961   3.622  15.306  0.00  0.00    +0.000 C 
BRANCH  27  30
ATOM     30  C   UNL     1      42.360   5.785  14.099  0.00  0.00    +0.000 C 
ATOM     31  C   UNL     1      42.995   7.202  14.205  0.00  0.00    +0.000 C 
ENDBRANCH  27  30
ENDBRANCH  25  27
ENDBRANCH  24  25
ENDBRANCH   3  24
TORSDOF 7
ENDMDL
MODEL 8
REMARK VINA RESULT:      -6.5     21.725     25.200
REMARK  Name = Simvastatin.pdbqt.pdb
REMARK  7 active torsions:
REMARK  status: ('A' for Active; 'I' for Inactive)
REMARK    1  A    between atoms: C_2  and  C_13
REMARK    2  A    between atoms: C_3  and  O_24
REMARK    3  A    between atoms: C_14  and  C_15
REMARK    4  A    between atoms: C_20  and  O_22
REMARK    5  A    between atoms: O_24  and  C_25
REMARK    6  A    between atoms: C_25  and  C_27
REMARK    7  A    between atoms: C_27  and  C_30
REMARK                            x       y       z     vdW  Elec       q    Type
REMARK                         _______ _______ _______ _____ _____    ______ ____
ROOT
ATOM      1  C   UNL     1      19.100   7.738  19.963  0.00  0.00    +0.000 A 
ATOM      2  C   UNL     1      19.510   9.130  19.533  0.00  0.00    +0.000 A 
ATOM      3  C   UNL     1      18.047   7.417  20.991  0.00  0.00    +0.000 A 
ATOM      4  C   UNL     1      20.340   9.312  18.312  0.00  0.00    +0.000 A 
ATOM      5  C   UNL     1      19.765   6.557  19.224  0.00  0.00    +0.000 A 
ATOM      6  C   UNL     1      17.818   6.001  21.095  0.00  0.00    +0.000 A 
ATOM      7  C   UNL     1      18.343   4.859  20.412  0.00  0.00    +0.000 A 
ATOM      8  C   UNL     1      19.313   5.370  19.497  0.00  0.00    +0.000 A 
ATOM      9  C   UNL     1      20.734   8.070  17.736  0.00  0.00    +0.000 A 
ATOM     10  C   UNL     1      20.512   6.945  18.089  0.00  0.00    +0.000 A 
ATOM     11  C   UNL     1      20.804  10.614  17.734  0.00  0.00    +0.000 C 
ATOM     12  C   UNL     1      17.426   3.752  19.999  0.00  0.00    +0.000 C 
ENDROOT
BRANCH   2  13
ATOM     13  C   UNL     1      19.281  10.224  20.417  0.00  0.00    +0.000 C 
ATOM     14  C   UNL     1      18.973  11.415  21.334  0.00  0.00    +0.000 C 
BRANCH  14  15
ATOM     15  C   UNL     1      18.626  12.509  22.163  0.00  0.00    +0.000 C 
ATOM     16  O   UNL     1      18.794  13.838  21.628  0.00  0.00    +0.000 OA
ATOM     17  C   UNL     1      18.519  14.959  22.417  0.00  0.00    +0.000 C 
ATOM     18  O   UNL     1      18.638  16.113  22.032  0.00  0.00    +0.000 OA
ATOM     19  C   UNL     1      18.081  14.644  23.754  0.00  0.00    +0.000 C 
ATOM     20  C   UNL     1      17.872  13.431  24.445  0.00  0.00    +0.000 C 
ATOM     21  C   UNL     1      18.189  12.420  23.511  0.00  0.00    +0.000 C 
BRANCH  20  22
ATOM     22  O   UNL     1      18.135  13.318  25.779  0.00  0.00    +0.000 OA
ATOM     23  H   UNL     1      17.350  13.048  26.293  0.00  0.00    +0.000 HD
ENDBRANCH  20  22
ENDBRANCH  14  15
ENDBRANCH   2  13
BRANCH   3  24
ATOM     24  O   UNL     1      16.937   8.267  20.988  0.00  0.00    +0.000 OA
BRANCH  24  25
ATOM     25  C   UNL     1      16.173   8.134  19.843  0.00  0.00    +0.000 C 
ATOM     26  O   UNL     1      16.147   7.110  19.157  0.00  0.00    +0.000 OA
BRANCH  25  27
ATOM     27  C   UNL     1      15.383   9.454  19.539  0.00  0.00    +0.000 C 
ATOM     28  C   UNL     1      15.209  10.276  20.871  0.00  0.00    +0.000 C 
ATOM     29  C   UNL     1      13.949   9.134  18.951  0.00  0.00    +0.000 C 
BRANCH  27  30
ATOM     30  C   UNL     1      16.172  10.220  18.534  0.00  0.00    +0.000 C 
ATOM     31  C   UNL     1      17.038  11.010  17.509  0.00  0.00    +0.000 C 
ENDBRANCH  27  30
ENDBRANCH  25  27
ENDBRANCH  24  25
ENDBRANCH   3  24
TORSDOF 7
ENDMDL
MODEL 9
REMARK VINA RESULT:      -6.3      3.367      7.067
REMARK  Name = Simvastatin.pdbqt.pdb
REMARK  7 active torsions:
REMARK  status: ('A' for Active; 'I' for Inactive)
REMARK    1  A    between atoms: C_2  and  C_13
REMARK    2  A    between atoms: C_3  and  O_24
REMARK    3  A    between atoms: C_14  and  C_15
REMARK    4  A    between atoms: C_20  and  O_22
REMARK    5  A    between atoms: O_24  and  C_25
REMARK    6  A    between atoms: C_25  and  C_27
REMARK    7  A    between atoms: C_27  and  C_30
REMARK                            x       y       z     vdW  Elec       q    Type
REMARK                         _______ _______ _______ _____ _____    ______ ____
ROOT
ATOM      1  C   UNL     1      40.683  -0.965   8.614  0.00  0.00    +0.000 A 
ATOM      2  C   UNL     1      42.192  -0.908   8.515  0.00  0.00    +0.000 A 
ATOM      3  C   UNL     1      39.905  -1.392   9.831  0.00  0.00    +0.000 A 
ATOM      4  C   UNL     1      42.831  -0.197   7.375  0.00  0.00    +0.000 A 
ATOM      5  C   UNL     1      39.886  -0.468   7.390  0.00  0.00    +0.000 A 
ATOM      6  C   UNL     1      38.489  -1.234   9.640  0.00  0.00    +0.000 A 
ATOM      7  C   UNL     1      37.682  -0.729   8.571  0.00  0.00    +0.000 A 
ATOM      8  C   UNL     1      38.596  -0.389   7.528  0.00  0.00    +0.000 A 
ATOM      9  C   UNL     1      41.876   0.279   6.431  0.00  0.00    +0.000 A 
ATOM     10  C   UNL     1      40.681   0.181   6.419  0.00  0.00    +0.000 A 
ATOM     11  C   UNL     1      44.301  -0.021   7.143  0.00  0.00    +0.000 C 
ATOM     12  C   UNL     1      36.516   0.156   8.873  0.00  0.00    +0.000 C 
ENDROOT
BRANCH   2  13
ATOM     13  C   UNL     1      42.977  -1.716   9.389  0.00  0.00    +0.000 C 
ATOM     14  C   UNL     1      43.879  -2.572  10.286  0.00  0.00    +0.000 C 
BRANCH  14  15
ATOM     15  C   UNL     1      44.762  -3.332  11.090  0.00  0.00    +0.000 C 
ATOM     16  O   UNL     1      44.203  -4.405  11.875  0.00  0.00    +0.000 OA
ATOM     17  C   UNL     1      45.017  -5.157  12.728  0.00  0.00    +0.000 C 
ATOM     18  O   UNL     1      44.614  -6.079  13.422  0.00  0.00    +0.000 OA
ATOM     19  C   UNL     1      46.399  -4.748  12.734  0.00  0.00    +0.000 C 
ATOM     20  C   UNL     1      47.114  -3.736  12.057  0.00  0.00    +0.000 C 
ATOM     21  C   UNL     1      46.152  -3.089  11.249  0.00  0.00    +0.000 C 
BRANCH  20  22
ATOM     22  O   UNL     1      48.149  -3.076  12.652  0.00  0.00    +0.000 OA
ATOM     23  H   UNL     1      48.983  -3.583  12.621  0.00  0.00    +0.000 HD
ENDBRANCH  20  22
ENDBRANCH  14  15
ENDBRANCH   2  13
BRANCH   3  24
ATOM     24  O   UNL     1      40.455  -0.997  11.054  0.00  0.00    +0.000 OA
BRANCH  24  25
ATOM     25  C   UNL     1      39.733   0.020  11.654  0.00  0.00    +0.000 C 
ATOM     26  O   UNL     1      38.625  -0.144  12.169  0.00  0.00    +0.000 OA
BRANCH  25  27
ATOM     27  C   UNL     1      40.504   1.382  11.564  0.00  0.00    +0.000 C 
ATOM     28  C   UNL     1      42.054   1.105  11.535  0.00  0.00    +0.000 C 
ATOM     29  C   UNL     1      40.178   2.302  12.810  0.00  0.00    +0.000 C 
BRANCH  27  30
ATOM     30  C   UNL     1      40.057   2.061  10.315  0.00  0.00    +0.000 C 
ATOM     31  C   UNL     1      39.565   2.803   9.038  0.00  0.00    +0.000 C 
ENDBRANCH  27  30
ENDBRANCH  25  27
ENDBRANCH  24  25
ENDBRANCH   3  24
TORSDOF 7
ENDMDL
