MODEL 1
REMARK VINA RESULT:      -8.6      0.000      0.000
REMARK  Name = Staurosporine.pdbqt.pdb
REMARK  2 active torsions:
REMARK  status: ('A' for Active; 'I' for Inactive)
REMARK    1  A    between atoms: C_3  and  O_11
REMARK    2  A    between atoms: C_5  and  N_8
REMARK                            x       y       z     vdW  Elec       q    Type
REMARK                         _______ _______ _______ _____ _____    ______ ____
ROOT
ATOM      1  O   UNL     1      51.046 -21.365  18.997  0.00  0.00    +0.000 OA
ATOM      2  C   UNL     1      49.671 -21.587  18.579  0.00  0.00    +0.000 C 
ATOM      3  C   UNL     1      48.622 -21.461  19.702  0.00  0.00    +0.000 C 
ATOM      4  C   UNL     1      51.213 -20.208  19.740  0.00  0.00    +0.000 C 
ATOM      5  C   UNL     1      48.957 -20.676  20.888  0.00  0.00    +0.000 C 
ATOM      6  C   UNL     1      50.260 -20.156  20.779  0.00  0.00    +0.000 C 
ATOM      7  C   UNL     1      49.673 -23.086  18.124  0.00  0.00    +0.000 C 
ATOM      8  N   UNL     1      49.400 -20.672  17.447  0.00  0.00    +0.000 N 
ATOM      9  C   UNL     1      49.976 -19.481  17.082  0.00  0.00    +0.000 A 
ATOM     10  C   UNL     1      50.926 -18.736  17.789  0.00  0.00    +0.000 A 
ATOM     11  C   UNL     1      49.546 -18.855  15.904  0.00  0.00    +0.000 A 
ATOM     12  N   UNL     1      51.425 -19.054  19.015  0.00  0.00    +0.000 N 
ATOM     13  C   UNL     1      51.251 -17.495  17.222  0.00  0.00    +0.000 A 
ATOM     14  C   UNL     1      52.091 -17.854  19.335  0.00  0.00    +0.000 A 
ATOM     15  C   UNL     1      52.031 -16.911  18.244  0.00  0.00    +0.000 A 
ATOM     16  C   UNL     1      52.780 -17.539  20.517  0.00  0.00    +0.000 A 
ATOM     17  C   UNL     1      52.671 -15.666  18.411  0.00  0.00    +0.000 A 
ATOM     18  C   UNL     1      53.349 -15.373  19.593  0.00  0.00    +0.000 A 
ATOM     19  C   UNL     1      53.399 -16.295  20.627  0.00  0.00    +0.000 A 
ATOM     20  C   UNL     1      50.834 -16.863  16.034  0.00  0.00    +0.000 A 
ATOM     21  C   UNL     1      49.889 -17.637  15.303  0.00  0.00    +0.000 A 
ATOM     22  C   UNL     1      51.080 -15.605  15.368  0.00  0.00    +0.000 C 
ATOM     23  C   UNL     1      49.512 -16.835  14.108  0.00  0.00    +0.000 C 
ATOM     24  N   UNL     1      50.244 -15.708  14.247  0.00  0.00    +0.000 N 
ATOM     25  H   UNL     1      50.208 -14.955  13.575  0.00  0.00    +0.000 HD
ATOM     26  O   UNL     1      51.792 -14.642  15.610  0.00  0.00    +0.000 OA
ATOM     27  C   UNL     1      48.545 -19.728  15.449  0.00  0.00    +0.000 A 
ATOM     28  C   UNL     1      48.452 -20.813  16.397  0.00  0.00    +0.000 A 
ATOM     29  C   UNL     1      47.670 -19.725  14.342  0.00  0.00    +0.000 A 
ATOM     30  C   UNL     1      47.506 -21.833  16.195  0.00  0.00    +0.000 A 
ATOM     31  C   UNL     1      46.665 -21.787  15.083  0.00  0.00    +0.000 A 
ATOM     32  C   UNL     1      46.745 -20.751  14.169  0.00  0.00    +0.000 A 
ENDROOT
BRANCH   5  33
ATOM     33  N   UNL     1      48.020 -20.309  21.892  0.00  0.00    +0.000 N 
ATOM     34  C   UNL     1      48.095 -21.083  23.112  0.00  0.00    +0.000 C 
ATOM     35  H   UNL     1      47.078 -20.108  21.551  0.00  0.00    +0.000 HD
ENDBRANCH   5  33
BRANCH   3  36
ATOM     36  O   UNL     1      47.308 -21.617  19.314  0.00  0.00    +0.000 OA
ATOM     37  C   UNL     1      46.813 -22.887  19.643  0.00  0.00    +0.000 C 
ENDBRANCH   3  36
TORSDOF 2
ENDMDL
MODEL 2
REMARK VINA RESULT:      -8.3     31.866     34.476
REMARK  Name = Staurosporine.pdbqt.pdb
REMARK  2 active torsions:
REMARK  status: ('A' for Active; 'I' for Inactive)
REMARK    1  A    between atoms: C_3  and  O_11
REMARK    2  A    between atoms: C_5  and  N_8
REMARK                            x       y       z     vdW  Elec       q    Type
REMARK                         _______ _______ _______ _____ _____    ______ ____
ROOT
ATOM      1  O   UNL     1      25.379  -1.972   5.023  0.00  0.00    +0.000 OA
ATOM      2  C   UNL     1      24.041  -1.618   4.580  0.00  0.00    +0.000 C 
ATOM      3  C   UNL     1      23.413  -0.411   5.306  0.00  0.00    +0.000 C 
ATOM      4  C   UNL     1      26.242  -0.890   5.079  0.00  0.00    +0.000 C 
ATOM      5  C   UNL     1      24.299   0.554   5.952  0.00  0.00    +0.000 C 
ATOM      6  C   UNL     1      25.643   0.173   5.788  0.00  0.00    +0.000 C 
ATOM      7  C   UNL     1      23.191  -2.875   4.968  0.00  0.00    +0.000 C 
ATOM      8  N   UNL     1      24.098  -1.428   3.112  0.00  0.00    +0.000 N 
ATOM      9  C   UNL     1      25.137  -1.101   2.277  0.00  0.00    +0.000 A 
ATOM     10  C   UNL     1      26.437  -0.728   2.632  0.00  0.00    +0.000 A 
ATOM     11  C   UNL     1      24.903  -1.049   0.896  0.00  0.00    +0.000 A 
ATOM     12  N   UNL     1      26.897  -0.582   3.905  0.00  0.00    +0.000 N 
ATOM     13  C   UNL     1      27.258  -0.339   1.563  0.00  0.00    +0.000 A 
ATOM     14  C   UNL     1      28.130   0.054   3.656  0.00  0.00    +0.000 A 
ATOM     15  C   UNL     1      28.385   0.174   2.241  0.00  0.00    +0.000 A 
ATOM     16  C   UNL     1      29.068   0.511   4.596  0.00  0.00    +0.000 A 
ATOM     17  C   UNL     1      29.594   0.775   1.837  0.00  0.00    +0.000 A 
ATOM     18  C   UNL     1      30.512   1.223   2.785  0.00  0.00    +0.000 A 
ATOM     19  C   UNL     1      30.250   1.094   4.140  0.00  0.00    +0.000 A 
ATOM     20  C   UNL     1      27.036  -0.295   0.172  0.00  0.00    +0.000 A 
ATOM     21  C   UNL     1      25.721  -0.702  -0.187  0.00  0.00    +0.000 A 
ATOM     22  C   UNL     1      27.783   0.097  -1.001  0.00  0.00    +0.000 C 
ATOM     23  C   UNL     1      25.620  -0.566  -1.665  0.00  0.00    +0.000 C 
ATOM     24  N   UNL     1      26.840  -0.107  -2.019  0.00  0.00    +0.000 N 
ATOM     25  H   UNL     1      27.087   0.084  -2.979  0.00  0.00    +0.000 HD
ATOM     26  O   UNL     1      28.919   0.507  -1.187  0.00  0.00    +0.000 OA
ATOM     27  C   UNL     1      23.535  -1.354   0.812  0.00  0.00    +0.000 A 
ATOM     28  C   UNL     1      23.055  -1.564   2.156  0.00  0.00    +0.000 A 
ATOM     29  C   UNL     1      22.618  -1.459  -0.255  0.00  0.00    +0.000 A 
ATOM     30  C   UNL     1      21.699  -1.870   2.370  0.00  0.00    +0.000 A 
ATOM     31  C   UNL     1      20.831  -1.965   1.282  0.00  0.00    +0.000 A 
ATOM     32  C   UNL     1      21.281  -1.765  -0.012  0.00  0.00    +0.000 A 
ENDROOT
BRANCH   5  33
ATOM     33  N   UNL     1      23.870   1.806   6.471  0.00  0.00    +0.000 N 
ATOM     34  C   UNL     1      23.787   2.877   5.501  0.00  0.00    +0.000 C 
ATOM     35  H   UNL     1      24.271   2.057   7.377  0.00  0.00    +0.000 HD
ENDBRANCH   5  33
BRANCH   3  36
ATOM     36  O   UNL     1      22.166  -0.029   4.862  0.00  0.00    +0.000 OA
ATOM     37  C   UNL     1      21.188  -0.182   5.855  0.00  0.00    +0.000 C 
ENDBRANCH   3  36
TORSDOF 2
ENDMDL
MODEL 3
REMARK VINA RESULT:      -8.2     31.885     35.256
REMARK  Name = Staurosporine.pdbqt.pdb
REMARK  2 active torsions:
REMARK  status: ('A' for Active; 'I' for Inactive)
REMARK    1  A    between atoms: C_3  and  O_11
REMARK    2  A    between atoms: C_5  and  N_8
REMARK                            x       y       z     vdW  Elec       q    Type
REMARK                         _______ _______ _______ _____ _____    ______ ____
ROOT
ATOM      1  O   UNL     1      25.547  -1.569  -0.076  0.00  0.00    +0.000 OA
ATOM      2  C   UNL     1      26.542  -0.532   0.145  0.00  0.00    +0.000 C 
ATOM      3  C   UNL     1      26.194   0.843  -0.460  0.00  0.00    +0.000 C 
ATOM      4  C   UNL     1      24.259  -1.169   0.241  0.00  0.00    +0.000 C 
ATOM      5  C   UNL     1      24.792   1.155  -0.727  0.00  0.00    +0.000 C 
ATOM      6  C   UNL     1      23.971   0.071  -0.367  0.00  0.00    +0.000 C 
ATOM      7  C   UNL     1      27.794  -1.067  -0.629  0.00  0.00    +0.000 C 
ATOM      8  N   UNL     1      26.789  -0.462   1.603  0.00  0.00    +0.000 N 
ATOM      9  C   UNL     1      26.010  -0.815   2.676  0.00  0.00    +0.000 A 
ATOM     10  C   UNL     1      24.676  -1.237   2.666  0.00  0.00    +0.000 A 
ATOM     11  C   UNL     1      26.540  -0.690   3.967  0.00  0.00    +0.000 A 
ATOM     12  N   UNL     1      23.888  -1.331   1.560  0.00  0.00    +0.000 N 
ATOM     13  C   UNL     1      24.100  -1.423   3.931  0.00  0.00    +0.000 A 
ATOM     14  C   UNL     1      22.628  -1.520   2.164  0.00  0.00    +0.000 A 
ATOM     15  C   UNL     1      22.742  -1.619   3.599  0.00  0.00    +0.000 A 
ATOM     16  C   UNL     1      21.380  -1.645   1.533  0.00  0.00    +0.000 A 
ATOM     17  C   UNL     1      21.562  -1.828   4.341  0.00  0.00    +0.000 A 
ATOM     18  C   UNL     1      20.332  -1.948   3.697  0.00  0.00    +0.000 A 
ATOM     19  C   UNL     1      20.246  -1.855   2.316  0.00  0.00    +0.000 A 
ATOM     20  C   UNL     1      24.628  -1.311   5.232  0.00  0.00    +0.000 A 
ATOM     21  C   UNL     1      25.993  -0.910   5.239  0.00  0.00    +0.000 A 
ATOM     22  C   UNL     1      24.138  -1.457   6.583  0.00  0.00    +0.000 C 
ATOM     23  C   UNL     1      26.399  -0.794   6.665  0.00  0.00    +0.000 C 
ATOM     24  N   UNL     1      25.273  -1.125   7.335  0.00  0.00    +0.000 N 
ATOM     25  H   UNL     1      25.232  -1.144   8.344  0.00  0.00    +0.000 HD
ATOM     26  O   UNL     1      23.060  -1.774   7.066  0.00  0.00    +0.000 OA
ATOM     27  C   UNL     1      27.818  -0.165   3.717  0.00  0.00    +0.000 A 
ATOM     28  C   UNL     1      27.952  -0.015   2.288  0.00  0.00    +0.000 A 
ATOM     29  C   UNL     1      28.893   0.232   4.539  0.00  0.00    +0.000 A 
ATOM     30  C   UNL     1      29.140   0.514   1.753  0.00  0.00    +0.000 A 
ATOM     31  C   UNL     1      30.177   0.890   2.607  0.00  0.00    +0.000 A 
ATOM     32  C   UNL     1      30.059   0.751   3.979  0.00  0.00    +0.000 A 
ENDROOT
BRANCH   5  33
ATOM     33  N   UNL     1      24.317   2.447  -1.084  0.00  0.00    +0.000 N 
ATOM     34  C   UNL     1      23.824   3.245   0.016  0.00  0.00    +0.000 C 
ATOM     35  H   UNL     1      23.762   2.480  -1.942  0.00  0.00    +0.000 HD
ENDBRANCH   5  33
BRANCH   3  36
ATOM     36  O   UNL     1      27.102   1.851  -0.215  0.00  0.00    +0.000 OA
ATOM     37  C   UNL     1      27.705   2.309  -1.395  0.00  0.00    +0.000 C 
ENDBRANCH   3  36
TORSDOF 2
ENDMDL
MODEL 4
REMARK VINA RESULT:      -7.8     31.158     34.185
REMARK  Name = Staurosporine.pdbqt.pdb
REMARK  2 active torsions:
REMARK  status: ('A' for Active; 'I' for Inactive)
REMARK    1  A    between atoms: C_3  and  O_11
REMARK    2  A    between atoms: C_5  and  N_8
REMARK                            x       y       z     vdW  Elec       q    Type
REMARK                         _______ _______ _______ _____ _____    ______ ____
ROOT
ATOM      1  O   UNL     1      45.687  -0.337  47.845  0.00  0.00    +0.000 OA
ATOM      2  C   UNL     1      45.707  -1.407  46.860  0.00  0.00    +0.000 C 
ATOM      3  C   UNL     1      44.357  -1.675  46.164  0.00  0.00    +0.000 C 
ATOM      4  C   UNL     1      45.101   0.828  47.376  0.00  0.00    +0.000 C 
ATOM      5  C   UNL     1      43.364  -0.604  46.129  0.00  0.00    +0.000 C 
ATOM      6  C   UNL     1      43.853   0.540  46.786  0.00  0.00    +0.000 C 
ATOM      7  C   UNL     1      46.036  -2.676  47.718  0.00  0.00    +0.000 C 
ATOM      8  N   UNL     1      46.789  -1.101  45.897  0.00  0.00    +0.000 N 
ATOM      9  C   UNL     1      47.379   0.084  45.538  0.00  0.00    +0.000 A 
ATOM     10  C   UNL     1      47.007   1.377  45.920  0.00  0.00    +0.000 A 
ATOM     11  C   UNL     1      48.443   0.061  44.626  0.00  0.00    +0.000 A 
ATOM     12  N   UNL     1      45.938   1.692  46.703  0.00  0.00    +0.000 N 
ATOM     13  C   UNL     1      47.729   2.411  45.305  0.00  0.00    +0.000 A 
ATOM     14  C   UNL     1      45.895   3.089  46.520  0.00  0.00    +0.000 A 
ATOM     15  C   UNL     1      46.996   3.549  45.708  0.00  0.00    +0.000 A 
ATOM     16  C   UNL     1      44.964   3.998  47.047  0.00  0.00    +0.000 A 
ATOM     17  C   UNL     1      47.095   4.931  45.452  0.00  0.00    +0.000 A 
ATOM     18  C   UNL     1      46.161   5.818  45.985  0.00  0.00    +0.000 A 
ATOM     19  C   UNL     1      45.113   5.356  46.767  0.00  0.00    +0.000 A 
ATOM     20  C   UNL     1      48.805   2.397  44.396  0.00  0.00    +0.000 A 
ATOM     21  C   UNL     1      49.201   1.080  44.033  0.00  0.00    +0.000 A 
ATOM     22  C   UNL     1      49.602   3.376  43.693  0.00  0.00    +0.000 C 
ATOM     23  C   UNL     1      50.307   1.221  43.048  0.00  0.00    +0.000 C 
ATOM     24  N   UNL     1      50.449   2.559  42.932  0.00  0.00    +0.000 N 
ATOM     25  H   UNL     1      51.140   2.977  42.325  0.00  0.00    +0.000 HD
ATOM     26  O   UNL     1      49.629   4.598  43.680  0.00  0.00    +0.000 OA
ATOM     27  C   UNL     1      48.551  -1.307  44.326  0.00  0.00    +0.000 A 
ATOM     28  C   UNL     1      47.537  -1.998  45.086  0.00  0.00    +0.000 A 
ATOM     29  C   UNL     1      49.382  -2.060  43.471  0.00  0.00    +0.000 A 
ATOM     30  C   UNL     1      47.405  -3.392  44.961  0.00  0.00    +0.000 A 
ATOM     31  C   UNL     1      48.253  -4.094  44.105  0.00  0.00    +0.000 A 
ATOM     32  C   UNL     1      49.229  -3.441  43.371  0.00  0.00    +0.000 A 
ENDROOT
BRANCH   5  33
ATOM     33  N   UNL     1      42.176  -0.644  45.349  0.00  0.00    +0.000 N 
ATOM     34  C   UNL     1      41.006  -1.142  46.039  0.00  0.00    +0.000 C 
ATOM     35  H   UNL     1      42.300  -0.975  44.390  0.00  0.00    +0.000 HD
ENDBRANCH   5  33
BRANCH   3  36
ATOM     36  O   UNL     1      44.370  -2.650  45.190  0.00  0.00    +0.000 OA
ATOM     37  C   UNL     1      43.680  -3.803  45.596  0.00  0.00    +0.000 C 
ENDBRANCH   3  36
TORSDOF 2
ENDMDL
MODEL 5
REMARK VINA RESULT:      -7.8     30.181     33.308
REMARK  Name = Staurosporine.pdbqt.pdb
REMARK  2 active torsions:
REMARK  status: ('A' for Active; 'I' for Inactive)
REMARK    1  A    between atoms: C_3  and  O_11
REMARK    2  A    between atoms: C_5  and  N_8
REMARK                            x       y       z     vdW  Elec       q    Type
REMARK                         _______ _______ _______ _____ _____    ______ ____
ROOT
ATOM      1  O   UNL     1      43.681  -2.420  48.153  0.00  0.00    +0.000 OA
ATOM      2  C   UNL     1      43.454  -3.508  47.216  0.00  0.00    +0.000 C 
ATOM      3  C   UNL     1      42.156  -3.396  46.392  0.00  0.00    +0.000 C 
ATOM      4  C   UNL     1      43.531  -1.166  47.584  0.00  0.00    +0.000 C 
ATOM      5  C   UNL     1      41.552  -2.077  46.213  0.00  0.00    +0.000 C 
ATOM      6  C   UNL     1      42.312  -1.096  46.877  0.00  0.00    +0.000 C 
ATOM      7  C   UNL     1      43.295  -4.756  48.148  0.00  0.00    +0.000 C 
ATOM      8  N   UNL     1      44.659  -3.613  46.361  0.00  0.00    +0.000 N 
ATOM      9  C   UNL     1      45.618  -2.692  46.023  0.00  0.00    +0.000 A 
ATOM     10  C   UNL     1      45.634  -1.324  46.317  0.00  0.00    +0.000 A 
ATOM     11  C   UNL     1      46.698  -3.100  45.229  0.00  0.00    +0.000 A 
ATOM     12  N   UNL     1      44.652  -0.646  46.971  0.00  0.00    +0.000 N 
ATOM     13  C   UNL     1      46.693  -0.605  45.744  0.00  0.00    +0.000 A 
ATOM     14  C   UNL     1      45.061   0.682  46.734  0.00  0.00    +0.000 A 
ATOM     15  C   UNL     1      46.318   0.727  46.026  0.00  0.00    +0.000 A 
ATOM     16  C   UNL     1      44.417   1.866  47.128  0.00  0.00    +0.000 A 
ATOM     17  C   UNL     1      46.865   1.992  45.733  0.00  0.00    +0.000 A 
ATOM     18  C   UNL     1      46.210   3.156  46.132  0.00  0.00    +0.000 A 
ATOM     19  C   UNL     1      45.005   3.090  46.816  0.00  0.00    +0.000 A 
ATOM     20  C   UNL     1      47.788  -1.008  44.954  0.00  0.00    +0.000 A 
ATOM     21  C   UNL     1      47.784  -2.404  44.682  0.00  0.00    +0.000 A 
ATOM     22  C   UNL     1      48.909  -0.369  44.304  0.00  0.00    +0.000 C 
ATOM     23  C   UNL     1      48.962  -2.675  43.815  0.00  0.00    +0.000 C 
ATOM     24  N   UNL     1      49.524  -1.455  43.666  0.00  0.00    +0.000 N 
ATOM     25  H   UNL     1      50.361  -1.310  43.120  0.00  0.00    +0.000 HD
ATOM     26  O   UNL     1      49.316   0.782  44.249  0.00  0.00    +0.000 OA
ATOM     27  C   UNL     1      46.401  -4.452  44.992  0.00  0.00    +0.000 A 
ATOM     28  C   UNL     1      45.159  -4.748  45.665  0.00  0.00    +0.000 A 
ATOM     29  C   UNL     1      47.029  -5.479  44.257  0.00  0.00    +0.000 A 
ATOM     30  C   UNL     1      44.612  -6.039  45.578  0.00  0.00    +0.000 A 
ATOM     31  C   UNL     1      45.271  -7.023  44.841  0.00  0.00    +0.000 A 
ATOM     32  C   UNL     1      46.463  -6.750  44.191  0.00  0.00    +0.000 A 
ENDROOT
BRANCH   5  33
ATOM     33  N   UNL     1      40.484  -1.804  45.316  0.00  0.00    +0.000 N 
ATOM     34  C   UNL     1      39.161  -1.876  45.896  0.00  0.00    +0.000 C 
ATOM     35  H   UNL     1      40.585  -2.218  44.386  0.00  0.00    +0.000 HD
ENDBRANCH   5  33
BRANCH   3  36
ATOM     36  O   UNL     1      41.950  -4.391  45.461  0.00  0.00    +0.000 OA
ATOM     37  C   UNL     1      40.839  -5.184  45.781  0.00  0.00    +0.000 C 
ENDBRANCH   3  36
TORSDOF 2
ENDMDL
MODEL 6
REMARK VINA RESULT:      -7.7     41.576     43.239
REMARK  Name = Staurosporine.pdbqt.pdb
REMARK  2 active torsions:
REMARK  status: ('A' for Active; 'I' for Inactive)
REMARK    1  A    between atoms: C_3  and  O_11
REMARK    2  A    between atoms: C_5  and  N_8
REMARK                            x       y       z     vdW  Elec       q    Type
REMARK                         _______ _______ _______ _____ _____    ______ ____
ROOT
ATOM      1  O   UNL     1      14.030   8.232  18.760  0.00  0.00    +0.000 OA
ATOM      2  C   UNL     1      15.051   8.874  19.572  0.00  0.00    +0.000 C 
ATOM      3  C   UNL     1      14.590   9.301  20.979  0.00  0.00    +0.000 C 
ATOM      4  C   UNL     1      13.363   7.214  19.423  0.00  0.00    +0.000 C 
ATOM      5  C   UNL     1      13.436   8.629  21.572  0.00  0.00    +0.000 C 
ATOM      6  C   UNL     1      12.924   7.663  20.686  0.00  0.00    +0.000 C 
ATOM      7  C   UNL     1      15.365  10.187  18.777  0.00  0.00    +0.000 C 
ATOM      8  N   UNL     1      16.219   7.965  19.610  0.00  0.00    +0.000 N 
ATOM      9  C   UNL     1      16.322   6.607  19.443  0.00  0.00    +0.000 A 
ATOM     10  C   UNL     1      15.284   5.679  19.306  0.00  0.00    +0.000 A 
ATOM     11  C   UNL     1      17.592   6.016  19.474  0.00  0.00    +0.000 A 
ATOM     12  N   UNL     1      13.955   5.969  19.360  0.00  0.00    +0.000 N 
ATOM     13  C   UNL     1      15.687   4.337  19.262  0.00  0.00    +0.000 A 
ATOM     14  C   UNL     1      13.417   4.670  19.445  0.00  0.00    +0.000 A 
ATOM     15  C   UNL     1      14.448   3.665  19.347  0.00  0.00    +0.000 A 
ATOM     16  C   UNL     1      12.067   4.302  19.573  0.00  0.00    +0.000 A 
ATOM     17  C   UNL     1      14.058   2.312  19.398  0.00  0.00    +0.000 A 
ATOM     18  C   UNL     1      12.714   1.967  19.526  0.00  0.00    +0.000 A 
ATOM     19  C   UNL     1      11.737   2.948  19.614  0.00  0.00    +0.000 A 
ATOM     20  C   UNL     1      16.960   3.734  19.281  0.00  0.00    +0.000 A 
ATOM     21  C   UNL     1      18.015   4.682  19.391  0.00  0.00    +0.000 A 
ATOM     22  C   UNL     1      17.489   2.390  19.260  0.00  0.00    +0.000 C 
ATOM     23  C   UNL     1      19.284   3.908  19.441  0.00  0.00    +0.000 C 
ATOM     24  N   UNL     1      18.867   2.625  19.361  0.00  0.00    +0.000 N 
ATOM     25  H   UNL     1      19.511   1.847  19.366  0.00  0.00    +0.000 HD
ATOM     26  O   UNL     1      16.983   1.280  19.180  0.00  0.00    +0.000 OA
ATOM     27  C   UNL     1      18.429   7.116  19.719  0.00  0.00    +0.000 A 
ATOM     28  C   UNL     1      17.589   8.286  19.817  0.00  0.00    +0.000 A 
ATOM     29  C   UNL     1      19.820   7.269  19.897  0.00  0.00    +0.000 A 
ATOM     30  C   UNL     1      18.170   9.539  20.080  0.00  0.00    +0.000 A 
ATOM     31  C   UNL     1      19.552   9.640  20.246  0.00  0.00    +0.000 A 
ATOM     32  C   UNL     1      20.367   8.524  20.155  0.00  0.00    +0.000 A 
ENDROOT
BRANCH   5  33
ATOM     33  N   UNL     1      13.037   8.776  22.928  0.00  0.00    +0.000 N 
ATOM     34  C   UNL     1      12.358   7.632  23.496  0.00  0.00    +0.000 C 
ATOM     35  H   UNL     1      12.643   9.690  23.165  0.00  0.00    +0.000 HD
ENDBRANCH   5  33
BRANCH   3  36
ATOM     36  O   UNL     1      15.560   9.864  21.781  0.00  0.00    +0.000 OA
ATOM     37  C   UNL     1      15.272  11.202  22.089  0.00  0.00    +0.000 C 
ENDBRANCH   3  36
TORSDOF 2
ENDMDL
MODEL 7
REMARK VINA RESULT:      -7.6      1.899      5.792
REMARK  Name = Staurosporine.pdbqt.pdb
REMARK  2 active torsions:
REMARK  status: ('A' for Active; 'I' for Inactive)
REMARK    1  A    between atoms: C_3  and  O_11
REMARK    2  A    between atoms: C_5  and  N_8
REMARK                            x       y       z     vdW  Elec       q    Type
REMARK                         _______ _______ _______ _____ _____    ______ ____
ROOT
ATOM      1  O   UNL     1      48.065 -21.621  19.545  0.00  0.00    +0.000 OA
ATOM      2  C   UNL     1      49.409 -21.183  19.884  0.00  0.00    +0.000 C 
ATOM      3  C   UNL     1      50.457 -22.311  19.977  0.00  0.00    +0.000 C 
ATOM      4  C   UNL     1      48.024 -22.463  18.445  0.00  0.00    +0.000 C 
ATOM      5  C   UNL     1      50.203 -23.561  19.265  0.00  0.00    +0.000 C 
ATOM      6  C   UNL     1      48.968 -23.501  18.594  0.00  0.00    +0.000 C 
ATOM      7  C   UNL     1      49.241 -20.598  21.327  0.00  0.00    +0.000 C 
ATOM      8  N   UNL     1      49.791 -20.135  18.910  0.00  0.00    +0.000 N 
ATOM      9  C   UNL     1      49.357 -19.877  17.634  0.00  0.00    +0.000 A 
ATOM     10  C   UNL     1      48.492 -20.648  16.851  0.00  0.00    +0.000 A 
ATOM     11  C   UNL     1      49.864 -18.757  16.961  0.00  0.00    +0.000 A 
ATOM     12  N   UNL     1      47.950 -21.842  17.216  0.00  0.00    +0.000 N 
ATOM     13  C   UNL     1      48.313 -20.192  15.536  0.00  0.00    +0.000 A 
ATOM     14  C   UNL     1      47.422 -22.268  15.980  0.00  0.00    +0.000 A 
ATOM     15  C   UNL     1      47.597 -21.263  14.959  0.00  0.00    +0.000 A 
ATOM     16  C   UNL     1      46.764 -23.475  15.694  0.00  0.00    +0.000 A 
ATOM     17  C   UNL     1      47.101 -21.541  13.669  0.00  0.00    +0.000 A 
ATOM     18  C   UNL     1      46.451 -22.745  13.405  0.00  0.00    +0.000 A 
ATOM     19  C   UNL     1      46.288 -23.695  14.402  0.00  0.00    +0.000 A 
ATOM     20  C   UNL     1      48.809 -19.064  14.855  0.00  0.00    +0.000 A 
ATOM     21  C   UNL     1      49.666 -18.266  15.664  0.00  0.00    +0.000 A 
ATOM     22  C   UNL     1      48.712 -18.511  13.523  0.00  0.00    +0.000 C 
ATOM     23  C   UNL     1      50.141 -17.145  14.809  0.00  0.00    +0.000 C 
ATOM     24  N   UNL     1      49.541 -17.385  13.622  0.00  0.00    +0.000 N 
ATOM     25  H   UNL     1      49.667 -16.781  12.823  0.00  0.00    +0.000 HD
ATOM     26  O   UNL     1      48.112 -18.838  12.510  0.00  0.00    +0.000 OA
ATOM     27  C   UNL     1      50.763 -18.225  17.899  0.00  0.00    +0.000 A 
ATOM     28  C   UNL     1      50.725 -19.074  19.066  0.00  0.00    +0.000 A 
ATOM     29  C   UNL     1      51.641 -17.122  17.898  0.00  0.00    +0.000 A 
ATOM     30  C   UNL     1      51.551 -18.782  20.165  0.00  0.00    +0.000 A 
ATOM     31  C   UNL     1      52.401 -17.677  20.118  0.00  0.00    +0.000 A 
ATOM     32  C   UNL     1      52.446 -16.857  19.004  0.00  0.00    +0.000 A 
ENDROOT
BRANCH   5  33
ATOM     33  N   UNL     1      51.167 -24.592  19.096  0.00  0.00    +0.000 N 
ATOM     34  C   UNL     1      51.765 -24.664  17.781  0.00  0.00    +0.000 C 
ATOM     35  H   UNL     1      50.920 -25.488  19.522  0.00  0.00    +0.000 HD
ENDBRANCH   5  33
BRANCH   3  36
ATOM     36  O   UNL     1      51.747 -21.908  20.246  0.00  0.00    +0.000 OA
ATOM     37  C   UNL     1      52.197 -22.388  21.485  0.00  0.00    +0.000 C 
ENDBRANCH   3  36
TORSDOF 2
ENDMDL
MODEL 8
REMARK VINA RESULT:      -7.6     43.175     45.295
REMARK  Name = Staurosporine.pdbqt.pdb
REMARK  2 active torsions:
REMARK  status: ('A' for Active; 'I' for Inactive)
REMARK    1  A    between atoms: C_3  and  O_11
REMARK    2  A    between atoms: C_5  and  N_8
REMARK                            x       y       z     vdW  Elec       q    Type
REMARK                         _______ _______ _______ _____ _____    ______ ____
ROOT
ATOM      1  O   UNL     1      18.978   5.010  40.948  0.00  0.00    +0.000 OA
ATOM      2  C   UNL     1      17.803   4.199  40.673  0.00  0.00    +0.000 C 
ATOM      3  C   UNL     1      16.478   4.771  41.215  0.00  0.00    +0.000 C 
ATOM      4  C   UNL     1      18.812   6.346  40.618  0.00  0.00    +0.000 C 
ATOM      5  C   UNL     1      16.388   6.206  41.473  0.00  0.00    +0.000 C 
ATOM      6  C   UNL     1      17.609   6.836  41.168  0.00  0.00    +0.000 C 
ATOM      7  C   UNL     1      18.087   2.879  41.466  0.00  0.00    +0.000 C 
ATOM      8  N   UNL     1      17.763   3.963  39.212  0.00  0.00    +0.000 N 
ATOM      9  C   UNL     1      18.289   4.670  38.161  0.00  0.00    +0.000 A 
ATOM     10  C   UNL     1      18.924   5.915  38.197  0.00  0.00    +0.000 A 
ATOM     11  C   UNL     1      18.140   4.163  36.863  0.00  0.00    +0.000 A 
ATOM     12  N   UNL     1      19.096   6.681  39.310  0.00  0.00    +0.000 N 
ATOM     13  C   UNL     1      19.263   6.448  36.945  0.00  0.00    +0.000 A 
ATOM     14  C   UNL     1      19.518   7.890  38.722  0.00  0.00    +0.000 A 
ATOM     15  C   UNL     1      19.664   7.757  37.292  0.00  0.00    +0.000 A 
ATOM     16  C   UNL     1      19.817   9.103  39.364  0.00  0.00    +0.000 A 
ATOM     17  C   UNL     1      20.100   8.883  36.566  0.00  0.00    +0.000 A 
ATOM     18  C   UNL     1      20.390  10.079  37.221  0.00  0.00    +0.000 A 
ATOM     19  C   UNL     1      20.248  10.184  38.596  0.00  0.00    +0.000 A 
ATOM     20  C   UNL     1      19.127   5.942  35.637  0.00  0.00    +0.000 A 
ATOM     21  C   UNL     1      18.507   4.662  35.606  0.00  0.00    +0.000 A 
ATOM     22  C   UNL     1      19.415   6.397  34.297  0.00  0.00    +0.000 C 
ATOM     23  C   UNL     1      18.393   4.276  34.174  0.00  0.00    +0.000 C 
ATOM     24  N   UNL     1      18.936   5.329  33.525  0.00  0.00    +0.000 N 
ATOM     25  H   UNL     1      19.009   5.364  32.519  0.00  0.00    +0.000 HD
ATOM     26  O   UNL     1      19.928   7.406  33.835  0.00  0.00    +0.000 OA
ATOM     27  C   UNL     1      17.400   2.989  37.082  0.00  0.00    +0.000 A 
ATOM     28  C   UNL     1      17.162   2.887  38.502  0.00  0.00    +0.000 A 
ATOM     29  C   UNL     1      16.870   1.992  36.237  0.00  0.00    +0.000 A 
ATOM     30  C   UNL     1      16.420   1.804  39.006  0.00  0.00    +0.000 A 
ATOM     31  C   UNL     1      15.919   0.841  38.131  0.00  0.00    +0.000 A 
ATOM     32  C   UNL     1      16.140   0.930  36.767  0.00  0.00    +0.000 A 
ENDROOT
BRANCH   5  33
ATOM     33  N   UNL     1      15.178   6.889  41.771  0.00  0.00    +0.000 N 
ATOM     34  C   UNL     1      14.533   7.518  40.639  0.00  0.00    +0.000 C 
ATOM     35  H   UNL     1      15.193   7.436  42.635  0.00  0.00    +0.000 HD
ENDBRANCH   5  33
BRANCH   3  36
ATOM     36  O   UNL     1      15.346   4.042  40.918  0.00  0.00    +0.000 OA
ATOM     37  C   UNL     1      14.735   3.533  42.073  0.00  0.00    +0.000 C 
ENDBRANCH   3  36
TORSDOF 2
ENDMDL
MODEL 9
REMARK VINA RESULT:      -7.5      2.005      5.875
REMARK  Name = Staurosporine.pdbqt.pdb
REMARK  2 active torsions:
REMARK  status: ('A' for Active; 'I' for Inactive)
REMARK    1  A    between atoms: C_3  and  O_11
REMARK    2  A    between atoms: C_5  and  N_8
REMARK                            x       y       z     vdW  Elec       q    Type
REMARK                         _______ _______ _______ _____ _____    ______ ____
ROOT
ATOM      1  O   UNL     1      50.251 -20.575  19.074  0.00  0.00    +0.000 OA
ATOM      2  C   UNL     1      51.652 -20.347  19.388  0.00  0.00    +0.000 C 
ATOM      3  C   UNL     1      52.635 -21.335  18.729  0.00  0.00    +0.000 C 
ATOM      4  C   UNL     1      50.010 -20.725  17.718  0.00  0.00    +0.000 C 
ATOM      5  C   UNL     1      52.214 -22.040  17.520  0.00  0.00    +0.000 C 
ATOM      6  C   UNL     1      50.904 -21.668  17.167  0.00  0.00    +0.000 C 
ATOM      7  C   UNL     1      51.719 -20.600  20.932  0.00  0.00    +0.000 C 
ATOM      8  N   UNL     1      51.955 -18.938  19.050  0.00  0.00    +0.000 N 
ATOM      9  C   UNL     1      51.365 -18.065  18.171  0.00  0.00    +0.000 A 
ATOM     10  C   UNL     1      50.357 -18.336  17.240  0.00  0.00    +0.000 A 
ATOM     11  C   UNL     1      51.838 -16.747  18.106  0.00  0.00    +0.000 A 
ATOM     12  N   UNL     1      49.802 -19.559  17.012  0.00  0.00    +0.000 N 
ATOM     13  C   UNL     1      50.026 -17.269  16.393  0.00  0.00    +0.000 A 
ATOM     14  C   UNL     1      49.085 -19.293  15.828  0.00  0.00    +0.000 A 
ATOM     15  C   UNL     1      49.176 -17.900  15.459  0.00  0.00    +0.000 A 
ATOM     16  C   UNL     1      48.325 -20.191  15.061  0.00  0.00    +0.000 A 
ATOM     17  C   UNL     1      48.491 -17.479  14.301  0.00  0.00    +0.000 A 
ATOM     18  C   UNL     1      47.743 -18.386  13.553  0.00  0.00    +0.000 A 
ATOM     19  C   UNL     1      47.664 -19.718  13.928  0.00  0.00    +0.000 A 
ATOM     20  C   UNL     1      50.487 -15.940  16.327  0.00  0.00    +0.000 A 
ATOM     21  C   UNL     1      51.492 -15.659  17.295  0.00  0.00    +0.000 A 
ATOM     22  C   UNL     1      50.240 -14.779  15.503  0.00  0.00    +0.000 C 
ATOM     23  C   UNL     1      51.909 -14.247  17.081  0.00  0.00    +0.000 C 
ATOM     24  N   UNL     1      51.138 -13.849  16.046  0.00  0.00    +0.000 N 
ATOM     25  H   UNL     1      51.188 -12.915  15.664  0.00  0.00    +0.000 HD
ATOM     26  O   UNL     1      49.488 -14.546  14.569  0.00  0.00    +0.000 OA
ATOM     27  C   UNL     1      52.888 -16.759  19.039  0.00  0.00    +0.000 A 
ATOM     28  C   UNL     1      52.962 -18.091  19.591  0.00  0.00    +0.000 A 
ATOM     29  C   UNL     1      53.820 -15.796  19.478  0.00  0.00    +0.000 A 
ATOM     30  C   UNL     1      53.947 -18.393  20.547  0.00  0.00    +0.000 A 
ATOM     31  C   UNL     1      54.845 -17.406  20.952  0.00  0.00    +0.000 A 
ATOM     32  C   UNL     1      54.784 -16.125  20.428  0.00  0.00    +0.000 A 
ENDROOT
BRANCH   5  33
ATOM     33  N   UNL     1      53.084 -22.812  16.703  0.00  0.00    +0.000 N 
ATOM     34  C   UNL     1      53.553 -22.147  15.507  0.00  0.00    +0.000 C 
ATOM     35  H   UNL     1      52.814 -23.792  16.591  0.00  0.00    +0.000 HD
ENDBRANCH   5  33
BRANCH   3  36
ATOM     36  O   UNL     1      53.971 -21.102  18.973  0.00  0.00    +0.000 OA
ATOM     37  C   UNL     1      54.576 -22.177  19.641  0.00  0.00    +0.000 C 
ENDBRANCH   3  36
TORSDOF 2
ENDMDL
