MODEL 1
REMARK VINA RESULT:      -6.6      0.000      0.000
REMARK  Name = Testosterone.pdbqt.pdb
REMARK  1 active torsions:
REMARK  status: ('A' for Active; 'I' for Inactive)
REMARK    1  A    between atoms: C_9  and  O_21
REMARK                            x       y       z     vdW  Elec       q    Type
REMARK                         _______ _______ _______ _____ _____    ______ ____
ROOT
ATOM      1  O   UNL     1      40.624 -20.216  -6.174  0.00  0.00    +0.000 OA
ATOM      2  C   UNL     1      40.136 -14.144  -1.537  0.00  0.00    +0.000 C 
ATOM      3  C   UNL     1      39.444 -14.232  -0.094  0.00  0.00    +0.000 C 
ATOM      4  C   UNL     1      40.759 -15.325  -2.167  0.00  0.00    +0.000 C 
ATOM      5  C   UNL     1      40.572 -16.757  -1.745  0.00  0.00    +0.000 C 
ATOM      6  C   UNL     1      41.319 -17.948  -2.383  0.00  0.00    +0.000 C 
ATOM      7  C   UNL     1      39.172 -15.652   0.133  0.00  0.00    +0.000 C 
ATOM      8  C   UNL     1      39.713 -16.847  -0.615  0.00  0.00    +0.000 C 
ATOM      9  C   UNL     1      38.146 -13.406  -0.262  0.00  0.00    +0.000 C 
ATOM     10  C   UNL     1      39.325 -13.266  -2.326  0.00  0.00    +0.000 C 
ATOM     11  C   UNL     1      41.499 -15.206  -3.366  0.00  0.00    +0.000 C 
ATOM     12  C   UNL     1      38.084 -12.858  -1.572  0.00  0.00    +0.000 C 
ATOM     13  C   UNL     1      41.945 -17.664  -3.890  0.00  0.00    +0.000 C 
ATOM     14  C   UNL     1      42.082 -16.292  -4.218  0.00  0.00    +0.000 C 
ATOM     15  C   UNL     1      40.362 -13.599   0.982  0.00  0.00    +0.000 C 
ATOM     16  C   UNL     1      40.372 -19.087  -2.627  0.00  0.00    +0.000 C 
ATOM     17  C   UNL     1      42.504 -18.372  -1.473  0.00  0.00    +0.000 C 
ATOM     18  C   UNL     1      40.069 -19.950  -3.873  0.00  0.00    +0.000 C 
ATOM     19  C   UNL     1      41.623 -18.500  -4.854  0.00  0.00    +0.000 C 
ATOM     20  C   UNL     1      40.764 -19.647  -5.108  0.00  0.00    +0.000 C 
ENDROOT
BRANCH   9  21
ATOM     21  O   UNL     1      37.549 -12.747   0.797  0.00  0.00    +0.000 OA
ATOM     22  H   UNL     1      37.731 -13.199   1.644  0.00  0.00    +0.000 HD
ENDBRANCH   9  21
TORSDOF 1
ENDMDL
MODEL 2
REMARK VINA RESULT:      -6.3     14.462     17.682
REMARK  Name = Testosterone.pdbqt.pdb
REMARK  1 active torsions:
REMARK  status: ('A' for Active; 'I' for Inactive)
REMARK    1  A    between atoms: C_9  and  O_21
REMARK                            x       y       z     vdW  Elec       q    Type
REMARK                         _______ _______ _______ _____ _____    ______ ____
ROOT
ATOM      1  O   UNL     1      46.638  -6.520   3.922  0.00  0.00    +0.000 OA
ATOM      2  C   UNL     1      46.192  -4.299  11.235  0.00  0.00    +0.000 C 
ATOM      3  C   UNL     1      47.087  -4.971  12.382  0.00  0.00    +0.000 C 
ATOM      4  C   UNL     1      46.641  -4.260   9.828  0.00  0.00    +0.000 C 
ATOM      5  C   UNL     1      47.761  -5.069   9.234  0.00  0.00    +0.000 C 
ATOM      6  C   UNL     1      48.249  -4.924   7.776  0.00  0.00    +0.000 C 
ATOM      7  C   UNL     1      48.032  -5.848  11.688  0.00  0.00    +0.000 C 
ATOM      8  C   UNL     1      48.378  -5.888  10.220  0.00  0.00    +0.000 C 
ATOM      9  C   UNL     1      46.061  -5.765  13.226  0.00  0.00    +0.000 C 
ATOM     10  C   UNL     1      44.830  -4.628  11.534  0.00  0.00    +0.000 C 
ATOM     11  C   UNL     1      45.919  -3.534   8.853  0.00  0.00    +0.000 C 
ATOM     12  C   UNL     1      44.751  -5.565  12.714  0.00  0.00    +0.000 C 
ATOM     13  C   UNL     1      47.167  -4.223   6.736  0.00  0.00    +0.000 C 
ATOM     14  C   UNL     1      46.136  -3.487   7.371  0.00  0.00    +0.000 C 
ATOM     15  C   UNL     1      47.774  -3.877  13.238  0.00  0.00    +0.000 C 
ATOM     16  C   UNL     1      48.470  -6.276   7.163  0.00  0.00    +0.000 C 
ATOM     17  C   UNL     1      49.539  -4.059   7.738  0.00  0.00    +0.000 C 
ATOM     18  C   UNL     1      47.988  -6.920   5.843  0.00  0.00    +0.000 C 
ATOM     19  C   UNL     1      46.870  -4.875   5.631  0.00  0.00    +0.000 C 
ATOM     20  C   UNL     1      47.116  -6.152   4.978  0.00  0.00    +0.000 C 
ENDROOT
BRANCH   9  21
ATOM     21  O   UNL     1      46.252  -6.016  14.572  0.00  0.00    +0.000 OA
ATOM     22  H   UNL     1      45.922  -5.278  15.122  0.00  0.00    +0.000 HD
ENDBRANCH   9  21
TORSDOF 1
ENDMDL
MODEL 3
REMARK VINA RESULT:      -6.0     18.019     20.462
REMARK  Name = Testosterone.pdbqt.pdb
REMARK  1 active torsions:
REMARK  status: ('A' for Active; 'I' for Inactive)
REMARK    1  A    between atoms: C_9  and  O_21
REMARK                            x       y       z     vdW  Elec       q    Type
REMARK                         _______ _______ _______ _____ _____    ______ ____
ROOT
ATOM      1  O   UNL     1      51.159 -13.320  17.292  0.00  0.00    +0.000 OA
ATOM      2  C   UNL     1      48.870 -20.326  15.220  0.00  0.00    +0.000 C 
ATOM      3  C   UNL     1      47.621 -20.556  14.242  0.00  0.00    +0.000 C 
ATOM      4  C   UNL     1      49.674 -19.088  15.167  0.00  0.00    +0.000 C 
ATOM      5  C   UNL     1      49.287 -17.810  14.477  0.00  0.00    +0.000 C 
ATOM      6  C   UNL     1      50.206 -16.572  14.375  0.00  0.00    +0.000 C 
ATOM      7  C   UNL     1      47.243 -19.227  13.759  0.00  0.00    +0.000 C 
ATOM      8  C   UNL     1      48.023 -17.937  13.838  0.00  0.00    +0.000 C 
ATOM      9  C   UNL     1      46.544 -21.172  15.167  0.00  0.00    +0.000 C 
ATOM     10  C   UNL     1      48.501 -20.876  16.490  0.00  0.00    +0.000 C 
ATOM     11  C   UNL     1      50.862 -18.958  15.924  0.00  0.00    +0.000 C 
ATOM     12  C   UNL     1      47.067 -21.343  16.478  0.00  0.00    +0.000 C 
ATOM     13  C   UNL     1      51.428 -16.508  15.491  0.00  0.00    +0.000 C 
ATOM     14  C   UNL     1      51.728 -17.749  16.105  0.00  0.00    +0.000 C 
ATOM     15  C   UNL     1      48.000 -21.541  13.108  0.00  0.00    +0.000 C 
ATOM     16  C   UNL     1      49.429 -15.321  14.660  0.00  0.00    +0.000 C 
ATOM     17  C   UNL     1      50.871 -16.527  12.972  0.00  0.00    +0.000 C 
ATOM     18  C   UNL     1      49.672 -14.132  15.618  0.00  0.00    +0.000 C 
ATOM     19  C   UNL     1      51.533 -15.417  16.221  0.00  0.00    +0.000 C 
ATOM     20  C   UNL     1      50.840 -14.163  16.476  0.00  0.00    +0.000 C 
ENDROOT
BRANCH   9  21
ATOM     21  O   UNL     1      45.565 -22.025  14.691  0.00  0.00    +0.000 OA
ATOM     22  H   UNL     1      45.654 -22.918  15.078  0.00  0.00    +0.000 HD
ENDBRANCH   9  21
TORSDOF 1
ENDMDL
MODEL 4
REMARK VINA RESULT:      -5.7     46.694     50.108
REMARK  Name = Testosterone.pdbqt.pdb
REMARK  1 active torsions:
REMARK  status: ('A' for Active; 'I' for Inactive)
REMARK    1  A    between atoms: C_9  and  O_21
REMARK                            x       y       z     vdW  Elec       q    Type
REMARK                         _______ _______ _______ _____ _____    ______ ____
ROOT
ATOM      1  O   UNL     1      17.480 -10.652  47.681  0.00  0.00    +0.000 OA
ATOM      2  C   UNL     1      19.781 -10.268  40.390  0.00  0.00    +0.000 C 
ATOM      3  C   UNL     1      19.844  -8.880  39.591  0.00  0.00    +0.000 C 
ATOM      4  C   UNL     1      19.925 -10.322  41.858  0.00  0.00    +0.000 C 
ATOM      5  C   UNL     1      19.829  -9.154  42.801  0.00  0.00    +0.000 C 
ATOM      6  C   UNL     1      20.077  -9.251  44.322  0.00  0.00    +0.000 C 
ATOM      7  C   UNL     1      19.584  -7.837  40.585  0.00  0.00    +0.000 C 
ATOM      8  C   UNL     1      19.599  -7.943  42.090  0.00  0.00    +0.000 C 
ATOM      9  C   UNL     1      18.700  -9.003  38.557  0.00  0.00    +0.000 C 
ATOM     10  C   UNL     1      18.778 -11.064  39.747  0.00  0.00    +0.000 C 
ATOM     11  C   UNL     1      20.022 -11.559  42.537  0.00  0.00    +0.000 C 
ATOM     12  C   UNL     1      18.079 -10.277  38.666  0.00  0.00    +0.000 C 
ATOM     13  C   UNL     1      19.945 -10.772  44.963  0.00  0.00    +0.000 C 
ATOM     14  C   UNL     1      20.035 -11.819  44.012  0.00  0.00    +0.000 C 
ATOM     15  C   UNL     1      21.213  -8.729  38.882  0.00  0.00    +0.000 C 
ATOM     16  C   UNL     1      19.028  -8.482  45.071  0.00  0.00    +0.000 C 
ATOM     17  C   UNL     1      21.507  -8.743  44.653  0.00  0.00    +0.000 C 
ATOM     18  C   UNL     1      18.098  -8.853  46.249  0.00  0.00    +0.000 C 
ATOM     19  C   UNL     1      19.133 -10.936  45.986  0.00  0.00    +0.000 C 
ATOM     20  C   UNL     1      18.155 -10.202  46.776  0.00  0.00    +0.000 C 
ENDROOT
BRANCH   9  21
ATOM     21  O   UNL     1      18.734  -8.347  37.339  0.00  0.00    +0.000 OA
ATOM     22  H   UNL     1      19.478  -8.660  36.788  0.00  0.00    +0.000 HD
ENDBRANCH   9  21
TORSDOF 1
ENDMDL
MODEL 5
REMARK VINA RESULT:      -5.7     18.537     19.813
REMARK  Name = Testosterone.pdbqt.pdb
REMARK  1 active torsions:
REMARK  status: ('A' for Active; 'I' for Inactive)
REMARK    1  A    between atoms: C_9  and  O_21
REMARK                            x       y       z     vdW  Elec       q    Type
REMARK                         _______ _______ _______ _____ _____    ______ ____
ROOT
ATOM      1  O   UNL     1      46.526  -2.972   8.796  0.00  0.00    +0.000 OA
ATOM      2  C   UNL     1      39.762   0.614   8.868  0.00  0.00    +0.000 C 
ATOM      3  C   UNL     1      38.474  -0.019   9.580  0.00  0.00    +0.000 C 
ATOM      4  C   UNL     1      41.131   0.286   9.315  0.00  0.00    +0.000 C 
ATOM      5  C   UNL     1      41.519  -0.852  10.217  0.00  0.00    +0.000 C 
ATOM      6  C   UNL     1      42.956  -1.097  10.728  0.00  0.00    +0.000 C 
ATOM      7  C   UNL     1      38.954  -1.202  10.296  0.00  0.00    +0.000 C 
ATOM      8  C   UNL     1      40.375  -1.592  10.625  0.00  0.00    +0.000 C 
ATOM      9  C   UNL     1      37.547  -0.387   8.396  0.00  0.00    +0.000 C 
ATOM     10  C   UNL     1      39.470   0.666   7.466  0.00  0.00    +0.000 C 
ATOM     11  C   UNL     1      42.253   0.964   8.784  0.00  0.00    +0.000 C 
ATOM     12  C   UNL     1      38.145   0.008   7.169  0.00  0.00    +0.000 C 
ATOM     13  C   UNL     1      44.152  -0.373   9.841  0.00  0.00    +0.000 C 
ATOM     14  C   UNL     1      43.708   0.683   9.008  0.00  0.00    +0.000 C 
ATOM     15  C   UNL     1      37.800   1.028  10.501  0.00  0.00    +0.000 C 
ATOM     16  C   UNL     1      43.303  -2.554  10.629  0.00  0.00    +0.000 C 
ATOM     17  C   UNL     1      43.091  -0.572  12.184  0.00  0.00    +0.000 C 
ATOM     18  C   UNL     1      44.506  -3.305  10.013  0.00  0.00    +0.000 C 
ATOM     19  C   UNL     1      45.134  -1.134   9.402  0.00  0.00    +0.000 C 
ATOM     20  C   UNL     1      45.534  -2.532   9.345  0.00  0.00    +0.000 C 
ENDROOT
BRANCH   9  21
ATOM     21  O   UNL     1      36.170  -0.420   8.521  0.00  0.00    +0.000 OA
ATOM     22  H   UNL     1      35.901  -0.653   9.431  0.00  0.00    +0.000 HD
ENDBRANCH   9  21
TORSDOF 1
ENDMDL
MODEL 6
REMARK VINA RESULT:      -5.6      2.372      3.966
REMARK  Name = Testosterone.pdbqt.pdb
REMARK  1 active torsions:
REMARK  status: ('A' for Active; 'I' for Inactive)
REMARK    1  A    between atoms: C_9  and  O_21
REMARK                            x       y       z     vdW  Elec       q    Type
REMARK                         _______ _______ _______ _____ _____    ______ ____
ROOT
ATOM      1  O   UNL     1      39.144 -22.381  -7.975  0.00  0.00    +0.000 OA
ATOM      2  C   UNL     1      42.192 -16.843  -3.656  0.00  0.00    +0.000 C 
ATOM      3  C   UNL     1      42.341 -16.990  -2.068  0.00  0.00    +0.000 C 
ATOM      4  C   UNL     1      42.182 -18.023  -4.544  0.00  0.00    +0.000 C 
ATOM      5  C   UNL     1      41.992 -19.452  -4.116  0.00  0.00    +0.000 C 
ATOM      6  C   UNL     1      42.080 -20.659  -5.075  0.00  0.00    +0.000 C 
ATOM      7  C   UNL     1      41.981 -18.376  -1.760  0.00  0.00    +0.000 C 
ATOM      8  C   UNL     1      41.840 -19.545  -2.704  0.00  0.00    +0.000 C 
ATOM      9  C   UNL     1      41.311 -15.980  -1.510  0.00  0.00    +0.000 C 
ATOM     10  C   UNL     1      41.259 -15.779  -3.882  0.00  0.00    +0.000 C 
ATOM     11  C   UNL     1      42.204 -17.877  -5.951  0.00  0.00    +0.000 C 
ATOM     12  C   UNL     1      40.679 -15.288  -2.579  0.00  0.00    +0.000 C 
ATOM     13  C   UNL     1      41.877 -20.301  -6.679  0.00  0.00    +0.000 C 
ATOM     14  C   UNL     1      42.063 -18.934  -7.003  0.00  0.00    +0.000 C 
ATOM     15  C   UNL     1      43.777 -16.613  -1.625  0.00  0.00    +0.000 C 
ATOM     16  C   UNL     1      40.961 -21.622  -4.805  0.00  0.00    +0.000 C 
ATOM     17  C   UNL     1      43.469 -21.339  -4.935  0.00  0.00    +0.000 C 
ATOM     18  C   UNL     1      39.912 -22.293  -5.722  0.00  0.00    +0.000 C 
ATOM     19  C   UNL     1      40.963 -20.974  -7.346  0.00  0.00    +0.000 C 
ATOM     20  C   UNL     1      39.911 -21.957  -7.132  0.00  0.00    +0.000 C 
ENDROOT
BRANCH   9  21
ATOM     21  O   UNL     1      41.473 -15.364  -0.282  0.00  0.00    +0.000 OA
ATOM     22  H   UNL     1      40.778 -14.695  -0.126  0.00  0.00    +0.000 HD
ENDBRANCH   9  21
TORSDOF 1
ENDMDL
MODEL 7
REMARK VINA RESULT:      -5.5     15.510     17.864
REMARK  Name = Testosterone.pdbqt.pdb
REMARK  1 active torsions:
REMARK  status: ('A' for Active; 'I' for Inactive)
REMARK    1  A    between atoms: C_9  and  O_21
REMARK                            x       y       z     vdW  Elec       q    Type
REMARK                         _______ _______ _______ _____ _____    ______ ____
ROOT
ATOM      1  O   UNL     1      50.074  -4.179   3.672  0.00  0.00    +0.000 OA
ATOM      2  C   UNL     1      46.672  -5.501  10.401  0.00  0.00    +0.000 C 
ATOM      3  C   UNL     1      46.299  -4.314  11.411  0.00  0.00    +0.000 C 
ATOM      4  C   UNL     1      46.759  -5.276   8.944  0.00  0.00    +0.000 C 
ATOM      5  C   UNL     1      46.834  -3.941   8.257  0.00  0.00    +0.000 C 
ATOM      6  C   UNL     1      46.834  -3.758   6.723  0.00  0.00    +0.000 C 
ATOM      7  C   UNL     1      46.560  -3.072  10.681  0.00  0.00    +0.000 C 
ATOM      8  C   UNL     1      46.786  -2.878   9.202  0.00  0.00    +0.000 C 
ATOM      9  C   UNL     1      47.281  -4.518  12.590  0.00  0.00    +0.000 C 
ATOM     10  C   UNL     1      47.667  -6.298  11.055  0.00  0.00    +0.000 C 
ATOM     11  C   UNL     1      46.937  -6.357   8.049  0.00  0.00    +0.000 C 
ATOM     12  C   UNL     1      48.080  -5.672  12.364  0.00  0.00    +0.000 C 
ATOM     13  C   UNL     1      47.269  -5.099   5.854  0.00  0.00    +0.000 C 
ATOM     14  C   UNL     1      47.182  -6.317   6.571  0.00  0.00    +0.000 C 
ATOM     15  C   UNL     1      44.832  -4.454  11.887  0.00  0.00    +0.000 C 
ATOM     16  C   UNL     1      47.868  -2.749   6.318  0.00  0.00    +0.000 C 
ATOM     17  C   UNL     1      45.414  -3.350   6.245  0.00  0.00    +0.000 C 
ATOM     18  C   UNL     1      49.007  -2.777   5.273  0.00  0.00    +0.000 C 
ATOM     19  C   UNL     1      48.241  -4.969   4.974  0.00  0.00    +0.000 C 
ATOM     20  C   UNL     1      49.215  -3.992   4.511  0.00  0.00    +0.000 C 
ENDROOT
BRANCH   9  21
ATOM     21  O   UNL     1      46.974  -4.126  13.880  0.00  0.00    +0.000 OA
ATOM     22  H   UNL     1      46.015  -4.194  14.054  0.00  0.00    +0.000 HD
ENDBRANCH   9  21
TORSDOF 1
ENDMDL
MODEL 8
REMARK VINA RESULT:      -5.3     47.172     50.454
REMARK  Name = Testosterone.pdbqt.pdb
REMARK  1 active torsions:
REMARK  status: ('A' for Active; 'I' for Inactive)
REMARK    1  A    between atoms: C_9  and  O_21
REMARK                            x       y       z     vdW  Elec       q    Type
REMARK                         _______ _______ _______ _____ _____    ______ ____
ROOT
ATOM      1  O   UNL     1      40.716  29.228  27.870  0.00  0.00    +0.000 OA
ATOM      2  C   UNL     1      42.595  21.890  26.761  0.00  0.00    +0.000 C 
ATOM      3  C   UNL     1      43.306  21.014  27.899  0.00  0.00    +0.000 C 
ATOM      4  C   UNL     1      41.722  23.032  27.097  0.00  0.00    +0.000 C 
ATOM      5  C   UNL     1      41.630  23.712  28.436  0.00  0.00    +0.000 C 
ATOM      6  C   UNL     1      40.633  24.847  28.760  0.00  0.00    +0.000 C 
ATOM      7  C   UNL     1      43.291  21.842  29.107  0.00  0.00    +0.000 C 
ATOM      8  C   UNL     1      42.492  23.092  29.383  0.00  0.00    +0.000 C 
ATOM      9  C   UNL     1      44.738  20.801  27.353  0.00  0.00    +0.000 C 
ATOM     10  C   UNL     1      43.539  22.011  25.690  0.00  0.00    +0.000 C 
ATOM     11  C   UNL     1      40.980  23.702  26.097  0.00  0.00    +0.000 C 
ATOM     12  C   UNL     1      44.863  21.397  26.069  0.00  0.00    +0.000 C 
ATOM     13  C   UNL     1      40.025  25.647  27.444  0.00  0.00    +0.000 C 
ATOM     14  C   UNL     1      40.158  24.949  26.219  0.00  0.00    +0.000 C 
ATOM     15  C   UNL     1      42.575  19.659  28.071  0.00  0.00    +0.000 C 
ATOM     16  C   UNL     1      41.320  25.939  29.526  0.00  0.00    +0.000 C 
ATOM     17  C   UNL     1      39.420  24.272  29.541  0.00  0.00    +0.000 C 
ATOM     18  C   UNL     1      41.396  27.471  29.327  0.00  0.00    +0.000 C 
ATOM     19  C   UNL     1      40.135  26.959  27.422  0.00  0.00    +0.000 C 
ATOM     20  C   UNL     1      40.733  28.051  28.176  0.00  0.00    +0.000 C 
ENDROOT
BRANCH   9  21
ATOM     21  O   UNL     1      45.494  19.690  27.682  0.00  0.00    +0.000 OA
ATOM     22  H   UNL     1      45.699  19.670  28.637  0.00  0.00    +0.000 HD
ENDBRANCH   9  21
TORSDOF 1
ENDMDL
MODEL 9
REMARK VINA RESULT:      -5.3     16.945     18.899
REMARK  Name = Testosterone.pdbqt.pdb
REMARK  1 active torsions:
REMARK  status: ('A' for Active; 'I' for Inactive)
REMARK    1  A    between atoms: C_9  and  O_21
REMARK                            x       y       z     vdW  Elec       q    Type
REMARK                         _______ _______ _______ _____ _____    ______ ____
ROOT
ATOM      1  O   UNL     1      48.598  -0.690   5.402  0.00  0.00    +0.000 OA
ATOM      2  C   UNL     1      46.909  -5.788  10.858  0.00  0.00    +0.000 C 
ATOM      3  C   UNL     1      46.267  -5.349  12.260  0.00  0.00    +0.000 C 
ATOM      4  C   UNL     1      46.702  -4.992   9.631  0.00  0.00    +0.000 C 
ATOM      5  C   UNL     1      46.178  -3.584   9.567  0.00  0.00    +0.000 C 
ATOM      6  C   UNL     1      45.895  -2.828   8.250  0.00  0.00    +0.000 C 
ATOM      7  C   UNL     1      45.943  -3.928  12.123  0.00  0.00    +0.000 C 
ATOM      8  C   UNL     1      45.871  -3.094  10.867  0.00  0.00    +0.000 C 
ATOM      9  C   UNL     1      47.409  -5.595  13.275  0.00  0.00    +0.000 C 
ATOM     10  C   UNL     1      48.210  -6.312  11.150  0.00  0.00    +0.000 C 
ATOM     11  C   UNL     1      47.141  -5.465   8.373  0.00  0.00    +0.000 C 
ATOM     12  C   UNL     1      48.539  -6.146  12.613  0.00  0.00    +0.000 C 
ATOM     13  C   UNL     1      46.671  -3.424   6.914  0.00  0.00    +0.000 C 
ATOM     14  C   UNL     1      47.144  -4.752   7.055  0.00  0.00    +0.000 C 
ATOM     15  C   UNL     1      45.039  -6.234  12.589  0.00  0.00    +0.000 C 
ATOM     16  C   UNL     1      46.411  -1.422   8.335  0.00  0.00    +0.000 C 
ATOM     17  C   UNL     1      44.373  -2.863   7.943  0.00  0.00    +0.000 C 
ATOM     18  C   UNL     1      47.321  -0.582   7.409  0.00  0.00    +0.000 C 
ATOM     19  C   UNL     1      47.391  -2.585   6.200  0.00  0.00    +0.000 C 
ATOM     20  C   UNL     1      47.858  -1.206   6.216  0.00  0.00    +0.000 C 
ENDROOT
BRANCH   9  21
ATOM     21  O   UNL     1      47.162  -5.899  14.602  0.00  0.00    +0.000 OA
ATOM     22  H   UNL     1      47.087  -5.090  15.144  0.00  0.00    +0.000 HD
ENDBRANCH   9  21
TORSDOF 1
ENDMDL
