MODEL 1
REMARK VINA RESULT:      -3.5      0.000      0.000
REMARK  Name = Tetrachloroethylene.pdbqt.pdb
REMARK  0 active torsions:
REMARK  status: ('A' for Active; 'I' for Inactive)
REMARK                            x       y       z     vdW  Elec       q    Type
REMARK                         _______ _______ _______ _____ _____    ______ ____
ROOT
ATOM      1 CL   UNL     1      36.891  -0.703  14.619  0.00  0.00    +0.000 Cl
ATOM      2 CL   UNL     1      36.089  -2.205  17.001  0.00  0.00    +0.000 Cl
ATOM      3 CL   UNL     1      33.067  -1.160  16.643  0.00  0.00    +0.000 Cl
ATOM      4 CL   UNL     1      33.869   0.342  14.260  0.00  0.00    +0.000 Cl
ATOM      5  C   UNL     1      35.610  -1.150  15.705  0.00  0.00    +0.000 C 
ATOM      6  C   UNL     1      34.348  -0.713  15.556  0.00  0.00    +0.000 C 
ENDROOT
TORSDOF 0
ENDMDL
MODEL 2
REMARK VINA RESULT:      -3.5      2.312      3.622
REMARK  Name = Tetrachloroethylene.pdbqt.pdb
REMARK  0 active torsions:
REMARK  status: ('A' for Active; 'I' for Inactive)
REMARK                            x       y       z     vdW  Elec       q    Type
REMARK                         _______ _______ _______ _____ _____    ______ ____
ROOT
ATOM      1 CL   UNL     1      34.272  -0.719  17.244  0.00  0.00    +0.000 Cl
ATOM      2 CL   UNL     1      33.347  -0.275  14.501  0.00  0.00    +0.000 Cl
ATOM      3 CL   UNL     1      34.369   2.772  14.650  0.00  0.00    +0.000 Cl
ATOM      4 CL   UNL     1      35.293   2.329  17.392  0.00  0.00    +0.000 Cl
ATOM      5  C   UNL     1      34.107   0.390  15.916  0.00  0.00    +0.000 C 
ATOM      6  C   UNL     1      34.534   1.663  15.978  0.00  0.00    +0.000 C 
ENDROOT
TORSDOF 0
ENDMDL
MODEL 3
REMARK VINA RESULT:      -3.5      0.182      2.398
REMARK  Name = Tetrachloroethylene.pdbqt.pdb
REMARK  0 active torsions:
REMARK  status: ('A' for Active; 'I' for Inactive)
REMARK                            x       y       z     vdW  Elec       q    Type
REMARK                         _______ _______ _______ _____ _____    ______ ____
ROOT
ATOM      1 CL   UNL     1      36.276  -2.100  17.052  0.00  0.00    +0.000 Cl
ATOM      2 CL   UNL     1      37.057  -0.618  14.650  0.00  0.00    +0.000 Cl
ATOM      3 CL   UNL     1      34.015   0.356  14.263  0.00  0.00    +0.000 Cl
ATOM      4 CL   UNL     1      33.234  -1.126  16.664  0.00  0.00    +0.000 Cl
ATOM      5  C   UNL     1      35.781  -1.076  15.738  0.00  0.00    +0.000 C 
ATOM      6  C   UNL     1      34.510  -0.668  15.576  0.00  0.00    +0.000 C 
ENDROOT
TORSDOF 0
ENDMDL
MODEL 4
REMARK VINA RESULT:      -3.5      0.663      2.687
REMARK  Name = Tetrachloroethylene.pdbqt.pdb
REMARK  0 active torsions:
REMARK  status: ('A' for Active; 'I' for Inactive)
REMARK                            x       y       z     vdW  Elec       q    Type
REMARK                         _______ _______ _______ _____ _____    ______ ____
ROOT
ATOM      1 CL   UNL     1      35.682  -2.340  16.887  0.00  0.00    +0.000 Cl
ATOM      2 CL   UNL     1      33.079  -1.039  16.565  0.00  0.00    +0.000 Cl
ATOM      3 CL   UNL     1      34.335   0.926  14.348  0.00  0.00    +0.000 Cl
ATOM      4 CL   UNL     1      36.938  -0.375  14.670  0.00  0.00    +0.000 Cl
ATOM      5  C   UNL     1      34.746  -1.117  16.080  0.00  0.00    +0.000 C 
ATOM      6  C   UNL     1      35.271  -0.296  15.155  0.00  0.00    +0.000 C 
ENDROOT
TORSDOF 0
ENDMDL
MODEL 5
REMARK VINA RESULT:      -2.9     23.954     24.743
REMARK  Name = Tetrachloroethylene.pdbqt.pdb
REMARK  0 active torsions:
REMARK  status: ('A' for Active; 'I' for Inactive)
REMARK                            x       y       z     vdW  Elec       q    Type
REMARK                         _______ _______ _______ _____ _____    ______ ____
ROOT
ATOM      1 CL   UNL     1      43.908 -16.964  -1.352  0.00  0.00    +0.000 Cl
ATOM      2 CL   UNL     1      41.475 -15.395  -0.914  0.00  0.00    +0.000 Cl
ATOM      3 CL   UNL     1      39.706 -18.073  -1.151  0.00  0.00    +0.000 Cl
ATOM      4 CL   UNL     1      42.139 -19.642  -1.589  0.00  0.00    +0.000 Cl
ATOM      5  C   UNL     1      42.177 -16.959  -1.202  0.00  0.00    +0.000 C 
ATOM      6  C   UNL     1      41.438 -18.077  -1.301  0.00  0.00    +0.000 C 
ENDROOT
TORSDOF 0
ENDMDL
MODEL 6
REMARK VINA RESULT:      -2.9     23.020     24.023
REMARK  Name = Tetrachloroethylene.pdbqt.pdb
REMARK  0 active torsions:
REMARK  status: ('A' for Active; 'I' for Inactive)
REMARK                            x       y       z     vdW  Elec       q    Type
REMARK                         _______ _______ _______ _____ _____    ______ ____
ROOT
ATOM      1 CL   UNL     1      42.012 -13.551  -0.839  0.00  0.00    +0.000 Cl
ATOM      2 CL   UNL     1      42.742 -16.380  -1.037  0.00  0.00    +0.000 Cl
ATOM      3 CL   UNL     1      45.115 -15.625  -3.075  0.00  0.00    +0.000 Cl
ATOM      4 CL   UNL     1      44.385 -12.796  -2.877  0.00  0.00    +0.000 Cl
ATOM      5  C   UNL     1      43.068 -14.746  -1.531  0.00  0.00    +0.000 C 
ATOM      6  C   UNL     1      44.059 -14.430  -2.382  0.00  0.00    +0.000 C 
ENDROOT
TORSDOF 0
ENDMDL
MODEL 7
REMARK VINA RESULT:      -2.9     16.583     17.738
REMARK  Name = Tetrachloroethylene.pdbqt.pdb
REMARK  0 active torsions:
REMARK  status: ('A' for Active; 'I' for Inactive)
REMARK                            x       y       z     vdW  Elec       q    Type
REMARK                         _______ _______ _______ _____ _____    ______ ____
ROOT
ATOM      1 CL   UNL     1      22.711   9.678  16.794  0.00  0.00    +0.000 Cl
ATOM      2 CL   UNL     1      21.130   7.338  17.568  0.00  0.00    +0.000 Cl
ATOM      3 CL   UNL     1      18.974   9.262  18.984  0.00  0.00    +0.000 Cl
ATOM      4 CL   UNL     1      20.555  11.602  18.209  0.00  0.00    +0.000 Cl
ATOM      5  C   UNL     1      21.293   9.068  17.593  0.00  0.00    +0.000 C 
ATOM      6  C   UNL     1      20.392   9.872  18.184  0.00  0.00    +0.000 C 
ENDROOT
TORSDOF 0
ENDMDL
MODEL 8
REMARK VINA RESULT:      -2.9     10.945     11.472
REMARK  Name = Tetrachloroethylene.pdbqt.pdb
REMARK  0 active torsions:
REMARK  status: ('A' for Active; 'I' for Inactive)
REMARK                            x       y       z     vdW  Elec       q    Type
REMARK                         _______ _______ _______ _____ _____    ______ ____
ROOT
ATOM      1 CL   UNL     1      40.035   7.720  22.274  0.00  0.00    +0.000 Cl
ATOM      2 CL   UNL     1      42.646   7.378  20.994  0.00  0.00    +0.000 Cl
ATOM      3 CL   UNL     1      41.238   7.463  18.101  0.00  0.00    +0.000 Cl
ATOM      4 CL   UNL     1      38.627   7.805  19.381  0.00  0.00    +0.000 Cl
ATOM      5  C   UNL     1      40.930   7.574  20.792  0.00  0.00    +0.000 C 
ATOM      6  C   UNL     1      40.343   7.609  19.584  0.00  0.00    +0.000 C 
ENDROOT
TORSDOF 0
ENDMDL
MODEL 9
REMARK VINA RESULT:      -2.9     23.917     24.749
REMARK  Name = Tetrachloroethylene.pdbqt.pdb
REMARK  0 active torsions:
REMARK  status: ('A' for Active; 'I' for Inactive)
REMARK                            x       y       z     vdW  Elec       q    Type
REMARK                         _______ _______ _______ _____ _____    ______ ____
ROOT
ATOM      1 CL   UNL     1      40.804 -15.557  -0.896  0.00  0.00    +0.000 Cl
ATOM      2 CL   UNL     1      39.350 -18.096  -1.023  0.00  0.00    +0.000 Cl
ATOM      3 CL   UNL     1      42.118 -19.654  -1.539  0.00  0.00    +0.000 Cl
ATOM      4 CL   UNL     1      43.571 -17.116  -1.412  0.00  0.00    +0.000 Cl
ATOM      5  C   UNL     1      40.883 -17.280  -1.110  0.00  0.00    +0.000 C 
ATOM      6  C   UNL     1      42.039 -17.931  -1.325  0.00  0.00    +0.000 C 
ENDROOT
TORSDOF 0
ENDMDL
