MODEL 1
REMARK VINA RESULT:      -6.5      0.000      0.000
REMARK  Name = Thalidomide.pdbqt.pdb
REMARK  1 active torsions:
REMARK  status: ('A' for Active; 'I' for Inactive)
REMARK    1  A    between atoms: N_3  and  C_12
REMARK                            x       y       z     vdW  Elec       q    Type
REMARK                         _______ _______ _______ _____ _____    ______ ____
ROOT
ATOM      1  O   UNL     1      19.186  11.839  19.256  0.00  0.00    +0.000 OA
ATOM      2  O   UNL     1      22.771  11.118  16.464  0.00  0.00    +0.000 OA
ATOM      3  N   UNL     1      21.169  11.935  17.986  0.00  0.00    +0.000 N 
ATOM      4  C   UNL     1      20.108  11.344  18.634  0.00  0.00    +0.000 C 
ATOM      5  C   UNL     1      21.921  10.989  17.324  0.00  0.00    +0.000 C 
ATOM      6  C   UNL     1      20.266   9.903  18.476  0.00  0.00    +0.000 A 
ATOM      7  C   UNL     1      21.381   9.686  17.695  0.00  0.00    +0.000 A 
ATOM      8  C   UNL     1      19.491   8.867  18.954  0.00  0.00    +0.000 A 
ATOM      9  C   UNL     1      21.788   8.421  17.328  0.00  0.00    +0.000 A 
ATOM     10  C   UNL     1      19.891   7.574  18.610  0.00  0.00    +0.000 A 
ATOM     11  C   UNL     1      21.024   7.354  17.807  0.00  0.00    +0.000 A 
ENDROOT
BRANCH   3  12
ATOM     12  C   UNL     1      21.376  13.290  17.901  0.00  0.00    +0.000 C 
ATOM     13  C   UNL     1      22.078  14.028  18.880  0.00  0.00    +0.000 C 
ATOM     14  C   UNL     1      22.149  15.523  18.851  0.00  0.00    +0.000 C 
ATOM     15  C   UNL     1      21.555  16.297  17.801  0.00  0.00    +0.000 C 
ATOM     16  O   UNL     1      21.679  17.509  17.738  0.00  0.00    +0.000 OA
ATOM     17  N   UNL     1      20.893  15.515  16.859  0.00  0.00    +0.000 N 
ATOM     18  C   UNL     1      20.896  14.119  16.714  0.00  0.00    +0.000 C 
ATOM     19  H   UNL     1      20.584  16.019  16.041  0.00  0.00    +0.000 HD
ATOM     20  O   UNL     1      20.646  13.616  15.623  0.00  0.00    +0.000 OA
ENDBRANCH   3  12
TORSDOF 1
ENDMDL
MODEL 2
REMARK VINA RESULT:      -6.4      3.650      4.737
REMARK  Name = Thalidomide.pdbqt.pdb
REMARK  1 active torsions:
REMARK  status: ('A' for Active; 'I' for Inactive)
REMARK    1  A    between atoms: N_3  and  C_12
REMARK                            x       y       z     vdW  Elec       q    Type
REMARK                         _______ _______ _______ _____ _____    ______ ____
ROOT
ATOM      1  O   UNL     1      17.578   8.435  22.224  0.00  0.00    +0.000 OA
ATOM      2  O   UNL     1      20.161   8.710  18.427  0.00  0.00    +0.000 OA
ATOM      3  N   UNL     1      19.067   9.013  20.493  0.00  0.00    +0.000 N 
ATOM      4  C   UNL     1      18.287   8.185  21.267  0.00  0.00    +0.000 C 
ATOM      5  C   UNL     1      19.624   8.313  19.444  0.00  0.00    +0.000 C 
ATOM      6  C   UNL     1      18.458   6.833  20.747  0.00  0.00    +0.000 A 
ATOM      7  C   UNL     1      19.289   6.909  19.649  0.00  0.00    +0.000 A 
ATOM      8  C   UNL     1      17.919   5.640  21.180  0.00  0.00    +0.000 A 
ATOM      9  C   UNL     1      19.624   5.799  18.902  0.00  0.00    +0.000 A 
ATOM     10  C   UNL     1      18.256   4.499  20.450  0.00  0.00    +0.000 A 
ATOM     11  C   UNL     1      19.097   4.577  19.326  0.00  0.00    +0.000 A 
ENDROOT
BRANCH   3  12
ATOM     12  C   UNL     1      19.173  10.372  20.661  0.00  0.00    +0.000 C 
ATOM     13  C   UNL     1      18.386  11.303  19.947  0.00  0.00    +0.000 C 
ATOM     14  C   UNL     1      18.632  12.778  20.024  0.00  0.00    +0.000 C 
ATOM     15  C   UNL     1      19.645  13.341  20.865  0.00  0.00    +0.000 C 
ATOM     16  O   UNL     1      19.794  14.546  20.985  0.00  0.00    +0.000 OA
ATOM     17  N   UNL     1      20.376  12.377  21.555  0.00  0.00    +0.000 N 
ATOM     18  C   UNL     1      20.130  11.001  21.668  0.00  0.00    +0.000 C 
ATOM     19  H   UNL     1      21.001  12.749  22.255  0.00  0.00    +0.000 HD
ATOM     20  O   UNL     1      20.574  10.376  22.627  0.00  0.00    +0.000 OA
ENDBRANCH   3  12
TORSDOF 1
ENDMDL
MODEL 3
REMARK VINA RESULT:      -6.4     29.223     31.916
REMARK  Name = Thalidomide.pdbqt.pdb
REMARK  1 active torsions:
REMARK  status: ('A' for Active; 'I' for Inactive)
REMARK    1  A    between atoms: N_3  and  C_12
REMARK                            x       y       z     vdW  Elec       q    Type
REMARK                         _______ _______ _______ _____ _____    ______ ____
ROOT
ATOM      1  O   UNL     1      19.460 -11.303  41.645  0.00  0.00    +0.000 OA
ATOM      2  O   UNL     1      20.712  -6.919  42.264  0.00  0.00    +0.000 OA
ATOM      3  N   UNL     1      19.727  -8.962  41.622  0.00  0.00    +0.000 N 
ATOM      4  C   UNL     1      19.823 -10.242  42.118  0.00  0.00    +0.000 C 
ATOM      5  C   UNL     1      20.367  -8.070  42.455  0.00  0.00    +0.000 C 
ATOM      6  C   UNL     1      20.464 -10.143  43.425  0.00  0.00    +0.000 A 
ATOM      7  C   UNL     1      20.777  -8.817  43.638  0.00  0.00    +0.000 A 
ATOM      8  C   UNL     1      20.767 -11.128  44.342  0.00  0.00    +0.000 A 
ATOM      9  C   UNL     1      21.428  -8.389  44.776  0.00  0.00    +0.000 A 
ATOM     10  C   UNL     1      21.412 -10.717  45.510  0.00  0.00    +0.000 A 
ATOM     11  C   UNL     1      21.739  -9.367  45.725  0.00  0.00    +0.000 A 
ENDROOT
BRANCH   3  12
ATOM     12  C   UNL     1      19.186  -8.634  40.404  0.00  0.00    +0.000 C 
ATOM     13  C   UNL     1      17.859  -8.173  40.246  0.00  0.00    +0.000 C 
ATOM     14  C   UNL     1      17.238  -7.980  38.897  0.00  0.00    +0.000 C 
ATOM     15  C   UNL     1      17.965  -8.199  37.682  0.00  0.00    +0.000 C 
ATOM     16  O   UNL     1      17.482  -7.969  36.586  0.00  0.00    +0.000 OA
ATOM     17  N   UNL     1      19.269  -8.636  37.901  0.00  0.00    +0.000 N 
ATOM     18  C   UNL     1      19.984  -8.702  39.106  0.00  0.00    +0.000 C 
ATOM     19  H   UNL     1      19.844  -8.667  37.072  0.00  0.00    +0.000 HD
ATOM     20  O   UNL     1      21.212  -8.681  39.092  0.00  0.00    +0.000 OA
ENDBRANCH   3  12
TORSDOF 1
ENDMDL
MODEL 4
REMARK VINA RESULT:      -6.3      3.426      7.024
REMARK  Name = Thalidomide.pdbqt.pdb
REMARK  1 active torsions:
REMARK  status: ('A' for Active; 'I' for Inactive)
REMARK    1  A    between atoms: N_3  and  C_12
REMARK                            x       y       z     vdW  Elec       q    Type
REMARK                         _______ _______ _______ _____ _____    ______ ____
ROOT
ATOM      1  O   UNL     1      18.864  10.378  19.936  0.00  0.00    +0.000 OA
ATOM      2  O   UNL     1      21.775   7.547  17.774  0.00  0.00    +0.000 OA
ATOM      3  N   UNL     1      19.992   8.576  18.921  0.00  0.00    +0.000 N 
ATOM      4  C   UNL     1      19.680   9.892  19.176  0.00  0.00    +0.000 C 
ATOM      5  C   UNL     1      21.059   8.490  18.052  0.00  0.00    +0.000 C 
ATOM      6  C   UNL     1      20.530  10.703  18.311  0.00  0.00    +0.000 A 
ATOM      7  C   UNL     1      21.355   9.848  17.612  0.00  0.00    +0.000 A 
ATOM      8  C   UNL     1      20.594  12.073  18.161  0.00  0.00    +0.000 A 
ATOM      9  C   UNL     1      22.310  10.305  16.728  0.00  0.00    +0.000 A 
ATOM     10  C   UNL     1      21.541  12.560  17.259  0.00  0.00    +0.000 A 
ATOM     11  C   UNL     1      22.388  11.688  16.552  0.00  0.00    +0.000 A 
ENDROOT
BRANCH   3  12
ATOM     12  C   UNL     1      19.410   7.499  19.543  0.00  0.00    +0.000 C 
ATOM     13  C   UNL     1      18.928   6.370  18.845  0.00  0.00    +0.000 C 
ATOM     14  C   UNL     1      18.149   5.286  19.525  0.00  0.00    +0.000 C 
ATOM     15  C   UNL     1      17.890   5.299  20.934  0.00  0.00    +0.000 C 
ATOM     16  O   UNL     1      17.322   4.378  21.498  0.00  0.00    +0.000 OA
ATOM     17  N   UNL     1      18.402   6.427  21.569  0.00  0.00    +0.000 N 
ATOM     18  C   UNL     1      19.263   7.410  21.059  0.00  0.00    +0.000 C 
ATOM     19  H   UNL     1      18.353   6.396  22.577  0.00  0.00    +0.000 HD
ATOM     20  O   UNL     1      19.961   8.070  21.824  0.00  0.00    +0.000 OA
ENDBRANCH   3  12
TORSDOF 1
ENDMDL
MODEL 5
REMARK VINA RESULT:      -6.0     38.983     41.673
REMARK  Name = Thalidomide.pdbqt.pdb
REMARK  1 active torsions:
REMARK  status: ('A' for Active; 'I' for Inactive)
REMARK    1  A    between atoms: N_3  and  C_12
REMARK                            x       y       z     vdW  Elec       q    Type
REMARK                         _______ _______ _______ _____ _____    ______ ____
ROOT
ATOM      1  O   UNL     1      41.903 -16.307  -4.560  0.00  0.00    +0.000 OA
ATOM      2  O   UNL     1      41.956 -19.698  -1.451  0.00  0.00    +0.000 OA
ATOM      3  N   UNL     1      41.563 -17.765  -2.741  0.00  0.00    +0.000 N 
ATOM      4  C   UNL     1      41.957 -17.389  -4.004  0.00  0.00    +0.000 C 
ATOM      5  C   UNL     1      41.908 -19.077  -2.496  0.00  0.00    +0.000 C 
ATOM      6  C   UNL     1      42.480 -18.583  -4.658  0.00  0.00    +0.000 A 
ATOM      7  C   UNL     1      42.431 -19.616  -3.746  0.00  0.00    +0.000 A 
ATOM      8  C   UNL     1      42.976 -18.752  -5.934  0.00  0.00    +0.000 A 
ATOM      9  C   UNL     1      42.889 -20.882  -4.043  0.00  0.00    +0.000 A 
ATOM     10  C   UNL     1      43.431 -20.029  -6.265  0.00  0.00    +0.000 A 
ATOM     11  C   UNL     1      43.389 -21.081  -5.332  0.00  0.00    +0.000 A 
ENDROOT
BRANCH   3  12
ATOM     12  C   UNL     1      41.021 -16.919  -1.805  0.00  0.00    +0.000 C 
ATOM     13  C   UNL     1      39.680 -17.003  -1.371  0.00  0.00    +0.000 C 
ATOM     14  C   UNL     1      39.065 -15.970  -0.477  0.00  0.00    +0.000 C 
ATOM     15  C   UNL     1      39.812 -14.860   0.035  0.00  0.00    +0.000 C 
ATOM     16  O   UNL     1      39.332 -14.062   0.823  0.00  0.00    +0.000 OA
ATOM     17  N   UNL     1      41.130 -14.839  -0.414  0.00  0.00    +0.000 N 
ATOM     18  C   UNL     1      41.835 -15.826  -1.120  0.00  0.00    +0.000 C 
ATOM     19  H   UNL     1      41.714 -14.150   0.036  0.00  0.00    +0.000 HD
ATOM     20  O   UNL     1      43.061 -15.863  -1.061  0.00  0.00    +0.000 OA
ENDBRANCH   3  12
TORSDOF 1
ENDMDL
MODEL 6
REMARK VINA RESULT:      -5.8      3.143      6.879
REMARK  Name = Thalidomide.pdbqt.pdb
REMARK  1 active torsions:
REMARK  status: ('A' for Active; 'I' for Inactive)
REMARK    1  A    between atoms: N_3  and  C_12
REMARK                            x       y       z     vdW  Elec       q    Type
REMARK                         _______ _______ _______ _____ _____    ______ ____
ROOT
ATOM      1  O   UNL     1      19.414  10.300  21.888  0.00  0.00    +0.000 OA
ATOM      2  O   UNL     1      20.311   9.830  17.401  0.00  0.00    +0.000 OA
ATOM      3  N   UNL     1      19.514   9.692  19.614  0.00  0.00    +0.000 N 
ATOM      4  C   UNL     1      19.672  10.501  20.716  0.00  0.00    +0.000 C 
ATOM      5  C   UNL     1      20.038  10.295  18.491  0.00  0.00    +0.000 C 
ATOM      6  C   UNL     1      20.226  11.763  20.239  0.00  0.00    +0.000 A 
ATOM      7  C   UNL     1      20.430  11.644  18.880  0.00  0.00    +0.000 A 
ATOM      8  C   UNL     1      20.546  12.912  20.933  0.00  0.00    +0.000 A 
ATOM      9  C   UNL     1      20.981  12.660  18.128  0.00  0.00    +0.000 A 
ATOM     10  C   UNL     1      21.090  13.961  20.190  0.00  0.00    +0.000 A 
ATOM     11  C   UNL     1      21.306  13.837  18.806  0.00  0.00    +0.000 A 
ENDROOT
BRANCH   3  12
ATOM     12  C   UNL     1      19.022   8.411  19.649  0.00  0.00    +0.000 C 
ATOM     13  C   UNL     1      19.844   7.265  19.568  0.00  0.00    +0.000 C 
ATOM     14  C   UNL     1      19.276   5.885  19.440  0.00  0.00    +0.000 C 
ATOM     15  C   UNL     1      17.865   5.635  19.444  0.00  0.00    +0.000 C 
ATOM     16  O   UNL     1      17.406   4.505  19.417  0.00  0.00    +0.000 OA
ATOM     17  N   UNL     1      17.108   6.800  19.542  0.00  0.00    +0.000 N 
ATOM     18  C   UNL     1      17.536   8.107  19.815  0.00  0.00    +0.000 C 
ATOM     19  H   UNL     1      16.121   6.645  19.685  0.00  0.00    +0.000 HD
ATOM     20  O   UNL     1      16.752   8.921  20.295  0.00  0.00    +0.000 OA
ENDBRANCH   3  12
TORSDOF 1
ENDMDL
MODEL 7
REMARK VINA RESULT:      -5.7     39.340     41.141
REMARK  Name = Thalidomide.pdbqt.pdb
REMARK  1 active torsions:
REMARK  status: ('A' for Active; 'I' for Inactive)
REMARK    1  A    between atoms: N_3  and  C_12
REMARK                            x       y       z     vdW  Elec       q    Type
REMARK                         _______ _______ _______ _____ _____    ______ ____
ROOT
ATOM      1  O   UNL     1      51.492 -15.004  30.816  0.00  0.00    +0.000 OA
ATOM      2  O   UNL     1      47.176 -14.542  32.339  0.00  0.00    +0.000 OA
ATOM      3  N   UNL     1      49.357 -14.270  31.489  0.00  0.00    +0.000 N 
ATOM      4  C   UNL     1      50.311 -15.164  31.060  0.00  0.00    +0.000 C 
ATOM      5  C   UNL     1      48.164 -14.915  31.735  0.00  0.00    +0.000 C 
ATOM      6  C   UNL     1      49.644 -16.452  30.903  0.00  0.00    +0.000 A 
ATOM      7  C   UNL     1      48.331 -16.294  31.296  0.00  0.00    +0.000 A 
ATOM      8  C   UNL     1      50.143 -17.664  30.474  0.00  0.00    +0.000 A 
ATOM      9  C   UNL     1      47.434 -17.342  31.300  0.00  0.00    +0.000 A 
ATOM     10  C   UNL     1      49.250 -18.737  30.454  0.00  0.00    +0.000 A 
ATOM     11  C   UNL     1      47.913 -18.579  30.862  0.00  0.00    +0.000 A 
ENDROOT
BRANCH   3  12
ATOM     12  C   UNL     1      49.593 -12.945  31.760  0.00  0.00    +0.000 C 
ATOM     13  C   UNL     1      49.604 -11.942  30.765  0.00  0.00    +0.000 C 
ATOM     14  C   UNL     1      50.026 -10.535  31.057  0.00  0.00    +0.000 C 
ATOM     15  C   UNL     1      50.394 -10.104  32.372  0.00  0.00    +0.000 C 
ATOM     16  O   UNL     1      50.664  -8.942  32.623  0.00  0.00    +0.000 OA
ATOM     17  N   UNL     1      50.349 -11.131  33.312  0.00  0.00    +0.000 N 
ATOM     18  C   UNL     1      49.830 -12.427  33.175  0.00  0.00    +0.000 C 
ATOM     19  H   UNL     1      50.471 -10.828  34.267  0.00  0.00    +0.000 HD
ATOM     20  O   UNL     1      49.464 -13.048  34.169  0.00  0.00    +0.000 OA
ENDBRANCH   3  12
TORSDOF 1
ENDMDL
MODEL 8
REMARK VINA RESULT:      -5.7     17.772     19.803
REMARK  Name = Thalidomide.pdbqt.pdb
REMARK  1 active torsions:
REMARK  status: ('A' for Active; 'I' for Inactive)
REMARK    1  A    between atoms: N_3  and  C_12
REMARK                            x       y       z     vdW  Elec       q    Type
REMARK                         _______ _______ _______ _____ _____    ______ ____
ROOT
ATOM      1  O   UNL     1      19.170   8.068  35.852  0.00  0.00    +0.000 OA
ATOM      2  O   UNL     1      18.249   3.704  36.980  0.00  0.00    +0.000 OA
ATOM      3  N   UNL     1      18.765   5.749  35.927  0.00  0.00    +0.000 N 
ATOM      4  C   UNL     1      19.105   6.990  36.413  0.00  0.00    +0.000 C 
ATOM      5  C   UNL     1      18.727   4.822  36.947  0.00  0.00    +0.000 C 
ATOM      6  C   UNL     1      19.429   6.818  37.825  0.00  0.00    +0.000 A 
ATOM      7  C   UNL     1      19.217   5.494  38.144  0.00  0.00    +0.000 A 
ATOM      8  C   UNL     1      19.851   7.742  38.758  0.00  0.00    +0.000 A 
ATOM      9  C   UNL     1      19.400   5.007  39.422  0.00  0.00    +0.000 A 
ATOM     10  C   UNL     1      20.059   7.270  40.055  0.00  0.00    +0.000 A 
ATOM     11  C   UNL     1      19.837   5.921  40.384  0.00  0.00    +0.000 A 
ENDROOT
BRANCH   3  12
ATOM     12  C   UNL     1      18.387   5.492  34.632  0.00  0.00    +0.000 C 
ATOM     13  C   UNL     1      17.038   5.380  34.227  0.00  0.00    +0.000 C 
ATOM     14  C   UNL     1      16.654   4.937  32.849  0.00  0.00    +0.000 C 
ATOM     15  C   UNL     1      17.629   4.649  31.839  0.00  0.00    +0.000 C 
ATOM     16  O   UNL     1      17.313   4.362  30.696  0.00  0.00    +0.000 OA
ATOM     17  N   UNL     1      18.938   4.793  32.292  0.00  0.00    +0.000 N 
ATOM     18  C   UNL     1      19.397   5.340  33.499  0.00  0.00    +0.000 C 
ATOM     19  H   UNL     1      19.638   4.729  31.568  0.00  0.00    +0.000 HD
ATOM     20  O   UNL     1      20.535   5.794  33.571  0.00  0.00    +0.000 OA
ENDBRANCH   3  12
TORSDOF 1
ENDMDL
MODEL 9
REMARK VINA RESULT:      -5.5     16.509     18.628
REMARK  Name = Thalidomide.pdbqt.pdb
REMARK  1 active torsions:
REMARK  status: ('A' for Active; 'I' for Inactive)
REMARK    1  A    between atoms: N_3  and  C_12
REMARK                            x       y       z     vdW  Elec       q    Type
REMARK                         _______ _______ _______ _____ _____    ______ ____
ROOT
ATOM      1  O   UNL     1      17.621   8.638  33.084  0.00  0.00    +0.000 OA
ATOM      2  O   UNL     1      20.473   8.497  36.692  0.00  0.00    +0.000 OA
ATOM      3  N   UNL     1      19.067   8.058  34.852  0.00  0.00    +0.000 N 
ATOM      4  C   UNL     1      18.497   8.869  33.897  0.00  0.00    +0.000 C 
ATOM      5  C   UNL     1      19.959   8.771  35.624  0.00  0.00    +0.000 C 
ATOM      6  C   UNL     1      19.166  10.162  33.985  0.00  0.00    +0.000 A 
ATOM      7  C   UNL     1      20.070  10.096  35.024  0.00  0.00    +0.000 A 
ATOM      8  C   UNL     1      18.988  11.307  33.238  0.00  0.00    +0.000 A 
ATOM      9  C   UNL     1      20.846  11.174  35.395  0.00  0.00    +0.000 A 
ATOM     10  C   UNL     1      19.773  12.409  33.583  0.00  0.00    +0.000 A 
ATOM     11  C   UNL     1      20.689  12.344  34.647  0.00  0.00    +0.000 A 
ENDROOT
BRANCH   3  12
ATOM     12  C   UNL     1      18.703   6.756  35.091  0.00  0.00    +0.000 C 
ATOM     13  C   UNL     1      17.654   6.394  35.965  0.00  0.00    +0.000 C 
ATOM     14  C   UNL     1      17.384   4.968  36.338  0.00  0.00    +0.000 C 
ATOM     15  C   UNL     1      18.138   3.879  35.791  0.00  0.00    +0.000 C 
ATOM     16  O   UNL     1      17.868   2.715  36.036  0.00  0.00    +0.000 OA
ATOM     17  N   UNL     1      19.145   4.297  34.925  0.00  0.00    +0.000 N 
ATOM     18  C   UNL     1      19.380   5.576  34.400  0.00  0.00    +0.000 C 
ATOM     19  H   UNL     1      19.600   3.549  34.423  0.00  0.00    +0.000 HD
ATOM     20  O   UNL     1      20.000   5.702  33.348  0.00  0.00    +0.000 OA
ENDBRANCH   3  12
TORSDOF 1
ENDMDL
