MODEL 1
REMARK VINA RESULT:      -8.6      0.000      0.000
REMARK  Name = Thapsigargin.pdbqt.pdb
REMARK  10 active torsions:
REMARK  status: ('A' for Active; 'I' for Inactive)
REMARK    1  A    between atoms: O_2  and  C_24
REMARK    2  A    between atoms: C_17  and  O_43
REMARK    3  A    between atoms: C_19  and  C_24
REMARK    4  A    between atoms: C_19  and  O_47
REMARK    5  A    between atoms: C_27  and  C_35
REMARK    6  A    between atoms: C_35  and  C_36
REMARK    7  A    between atoms: C_37  and  C_38
REMARK    8  A    between atoms: C_39  and  C_40
REMARK    9  A    between atoms: C_42  and  O_43
REMARK   10  A    between atoms: C_42  and  C_44
REMARK                            x       y       z     vdW  Elec       q    Type
REMARK                         _______ _______ _______ _____ _____    ______ ____
ROOT
ATOM      1  O   UNL     1      36.919   2.711  14.578  0.00  0.00    +0.000 OA
ATOM      2  O   UNL     1      40.634   1.347   9.990  0.00  0.00    +0.000 OA
ATOM      3  O   UNL     1      42.206   1.425  12.007  0.00  0.00    +0.000 OA
ATOM      4  O   UNL     1      40.551   5.251  11.772  0.00  0.00    +0.000 OA
ATOM      5  O   UNL     1      35.430   2.105  16.203  0.00  0.00    +0.000 OA
ATOM      6  O   UNL     1      41.591   0.094  11.863  0.00  0.00    +0.000 OA
ATOM      7  O   UNL     1      44.182   2.615  11.185  0.00  0.00    +0.000 OA
ATOM      8  O   UNL     1      40.081   5.597  14.193  0.00  0.00    +0.000 OA
ATOM      9  C   UNL     1      38.578   2.409  11.038  0.00  0.00    +0.000 C 
ATOM     10  C   UNL     1      36.633   0.897  13.155  0.00  0.00    +0.000 C 
ATOM     11  C   UNL     1      37.269   2.165  13.349  0.00  0.00    +0.000 C 
ATOM     12  C   UNL     1      38.183   1.160  10.325  0.00  0.00    +0.000 C 
ATOM     13  C   UNL     1      38.067   2.791  12.457  0.00  0.00    +0.000 C 
ATOM     14  C   UNL     1      36.762   0.326  12.003  0.00  0.00    +0.000 C 
ATOM     15  C   UNL     1      37.261   0.248  10.685  0.00  0.00    +0.000 C 
ATOM     16  C   UNL     1      39.162   3.630  10.530  0.00  0.00    +0.000 C 
ATOM     17  C   UNL     1      35.823   0.567  14.341  0.00  0.00    +0.000 C 
ATOM     18  C   UNL     1      39.371   4.518  11.604  0.00  0.00    +0.000 C 
ATOM     19  C   UNL     1      38.640   4.125  12.668  0.00  0.00    +0.000 C 
ATOM     20  C   UNL     1      39.531   1.269  10.914  0.00  0.00    +0.000 C 
ATOM     21  C   UNL     1      36.022   1.845  15.159  0.00  0.00    +0.000 C 
ATOM     22  C   UNL     1      39.095   4.791  13.814  0.00  0.00    +0.000 C 
ATOM     23  C   UNL     1      40.573   0.185  10.828  0.00  0.00    +0.000 C 
ATOM     24  C   UNL     1      43.446   1.449  11.359  0.00  0.00    +0.000 C 
ATOM     25  C   UNL     1      41.015   5.453  13.125  0.00  0.00    +0.000 C 
ATOM     26  C   UNL     1      40.373  -1.115  10.039  0.00  0.00    +0.000 C 
ATOM     27  C   UNL     1      42.318   5.244  13.408  0.00  0.00    +0.000 C 
ATOM     28  C   UNL     1      42.860   5.395  14.811  0.00  0.00    +0.000 C 
ATOM     29  C   UNL     1      43.134   4.501  12.508  0.00  0.00    +0.000 C 
ATOM     30  C   UNL     1      43.666   3.645  11.854  0.00  0.00    +0.000 C 
ENDROOT
BRANCH  17  31
ATOM     31  O   UNL     1      34.470   0.344  13.982  0.00  0.00    +0.000 OA
ATOM     32  H   UNL     1      34.452  -0.537  13.564  0.00  0.00    +0.000 HD
ENDBRANCH  17  31
BRANCH  17  33
ATOM     33  C   UNL     1      36.359  -0.624  15.025  0.00  0.00    +0.000 C 
BRANCH  33  34
ATOM     34  O   UNL     1      36.832  -1.715  15.626  0.00  0.00    +0.000 OA
ATOM     35  H   UNL     1      36.528  -1.766  16.551  0.00  0.00    +0.000 HD
ENDBRANCH  33  34
ENDBRANCH  17  33
BRANCH  24  36
ATOM     36  C   UNL     1      43.895   0.414  10.715  0.00  0.00    +0.000 C 
BRANCH  36  37
ATOM     37  C   UNL     1      44.471  -0.788   9.960  0.00  0.00    +0.000 C 
ATOM     38  C   UNL     1      44.955  -1.712   9.365  0.00  0.00    +0.000 C 
BRANCH  38  39
ATOM     39  C   UNL     1      45.596  -2.878   8.606  0.00  0.00    +0.000 C 
ATOM     40  C   UNL     1      46.089  -3.801   8.018  0.00  0.00    +0.000 C 
BRANCH  40  41
ATOM     41  C   UNL     1      46.712  -4.984   7.270  0.00  0.00    +0.000 C 
ATOM     42  C   UNL     1      47.253  -6.011   6.617  0.00  0.00    +0.000 C 
ENDBRANCH  40  41
ENDBRANCH  38  39
ENDBRANCH  36  37
ENDBRANCH  24  36
BRANCH  15  43
ATOM     43  O   UNL     1      36.623  -0.542   9.721  0.00  0.00    +0.000 OA
BRANCH  43  45
ATOM     44  O   UNL     1      35.553   0.610   8.003  0.00  0.00    +0.000 OA
ATOM     45  C   UNL     1      36.523   0.049   8.491  0.00  0.00    +0.000 C 
BRANCH  45  46
ATOM     46  C   UNL     1      37.746  -0.055   7.755  0.00  0.00    +0.000 C 
ATOM     47  C   UNL     1      38.765  -0.145   7.134  0.00  0.00    +0.000 C 
ATOM     48  C   UNL     1      40.076  -0.256   6.353  0.00  0.00    +0.000 C 
ENDBRANCH  45  46
ENDBRANCH  43  45
ENDBRANCH  15  43
TORSDOF 10
ENDMDL
MODEL 2
REMARK VINA RESULT:      -7.7      6.230     10.942
REMARK  Name = Thapsigargin.pdbqt.pdb
REMARK  10 active torsions:
REMARK  status: ('A' for Active; 'I' for Inactive)
REMARK    1  A    between atoms: O_2  and  C_24
REMARK    2  A    between atoms: C_17  and  O_43
REMARK    3  A    between atoms: C_19  and  C_24
REMARK    4  A    between atoms: C_19  and  O_47
REMARK    5  A    between atoms: C_27  and  C_35
REMARK    6  A    between atoms: C_35  and  C_36
REMARK    7  A    between atoms: C_37  and  C_38
REMARK    8  A    between atoms: C_39  and  C_40
REMARK    9  A    between atoms: C_42  and  O_43
REMARK   10  A    between atoms: C_42  and  C_44
REMARK                            x       y       z     vdW  Elec       q    Type
REMARK                         _______ _______ _______ _____ _____    ______ ____
ROOT
ATOM      1  O   UNL     1      45.916   8.393  18.370  0.00  0.00    +0.000 OA
ATOM      2  O   UNL     1      40.447   7.500  15.920  0.00  0.00    +0.000 OA
ATOM      3  O   UNL     1      41.951   5.932  14.570  0.00  0.00    +0.000 OA
ATOM      4  O   UNL     1      43.502   9.753  13.916  0.00  0.00    +0.000 OA
ATOM      5  O   UNL     1      47.494   7.965  19.967  0.00  0.00    +0.000 OA
ATOM      6  O   UNL     1      41.471   5.280  15.801  0.00  0.00    +0.000 OA
ATOM      7  O   UNL     1      41.205   6.224  12.256  0.00  0.00    +0.000 OA
ATOM      8  O   UNL     1      45.922   9.212  14.151  0.00  0.00    +0.000 OA
ATOM      9  C   UNL     1      42.238   8.864  17.097  0.00  0.00    +0.000 C 
ATOM     10  C   UNL     1      44.031   7.759  19.570  0.00  0.00    +0.000 C 
ATOM     11  C   UNL     1      44.528   8.331  18.355  0.00  0.00    +0.000 C 
ATOM     12  C   UNL     1      41.224   8.411  18.093  0.00  0.00    +0.000 C 
ATOM     13  C   UNL     1      43.774   8.799  17.337  0.00  0.00    +0.000 C 
ATOM     14  C   UNL     1      42.751   7.753  19.755  0.00  0.00    +0.000 C 
ATOM     15  C   UNL     1      41.421   8.013  19.364  0.00  0.00    +0.000 C 
ATOM     16  C   UNL     1      42.095   9.726  15.945  0.00  0.00    +0.000 C 
ATOM     17  C   UNL     1      45.162   7.396  20.442  0.00  0.00    +0.000 C 
ATOM     18  C   UNL     1      43.344   9.842  15.302  0.00  0.00    +0.000 C 
ATOM     19  C   UNL     1      44.325   9.446  16.141  0.00  0.00    +0.000 C 
ATOM     20  C   UNL     1      41.498   7.585  16.902  0.00  0.00    +0.000 C 
ATOM     21  C   UNL     1      46.324   7.924  19.597  0.00  0.00    +0.000 C 
ATOM     22  C   UNL     1      45.503   9.241  15.411  0.00  0.00    +0.000 C 
ATOM     23  C   UNL     1      40.794   6.287  16.602  0.00  0.00    +0.000 C 
ATOM     24  C   UNL     1      41.100   5.622  13.504  0.00  0.00    +0.000 C 
ATOM     25  C   UNL     1      44.696   9.103  13.428  0.00  0.00    +0.000 C 
ATOM     26  C   UNL     1      39.649   5.732  17.460  0.00  0.00    +0.000 C 
ATOM     27  C   UNL     1      44.588   8.187  12.443  0.00  0.00    +0.000 C 
ATOM     28  C   UNL     1      45.792   7.438  11.918  0.00  0.00    +0.000 C 
ATOM     29  C   UNL     1      43.322   7.607  12.143  0.00  0.00    +0.000 C 
ATOM     30  C   UNL     1      42.300   6.975  12.147  0.00  0.00    +0.000 C 
ENDROOT
BRANCH  17  31
ATOM     31  O   UNL     1      45.055   8.040  21.700  0.00  0.00    +0.000 OA
ATOM     32  H   UNL     1      44.239   7.691  22.105  0.00  0.00    +0.000 HD
ENDBRANCH  17  31
BRANCH  17  33
ATOM     33  C   UNL     1      45.227   5.936  20.634  0.00  0.00    +0.000 C 
BRANCH  33  34
ATOM     34  O   UNL     1      45.309   4.617  20.801  0.00  0.00    +0.000 OA
ATOM     35  H   UNL     1      45.836   4.206  20.091  0.00  0.00    +0.000 HD
ENDBRANCH  33  34
ENDBRANCH  17  33
BRANCH  24  36
ATOM     36  C   UNL     1      40.040   4.889  13.674  0.00  0.00    +0.000 C 
BRANCH  36  37
ATOM     37  C   UNL     1      38.768   4.050  13.836  0.00  0.00    +0.000 C 
ATOM     38  C   UNL     1      37.793   3.363  13.962  0.00  0.00    +0.000 C 
BRANCH  38  39
ATOM     39  C   UNL     1      36.563   2.463  14.126  0.00  0.00    +0.000 C 
ATOM     40  C   UNL     1      35.607   1.747  14.247  0.00  0.00    +0.000 C 
BRANCH  40  41
ATOM     41  C   UNL     1      34.393   0.827  14.400  0.00  0.00    +0.000 C 
ATOM     42  C   UNL     1      33.337   0.025  14.532  0.00  0.00    +0.000 C 
ENDBRANCH  40  41
ENDBRANCH  38  39
ENDBRANCH  36  37
ENDBRANCH  24  36
BRANCH  15  43
ATOM     43  O   UNL     1      40.402   8.134  20.316  0.00  0.00    +0.000 OA
BRANCH  43  45
ATOM     44  O   UNL     1      41.550   7.029  22.015  0.00  0.00    +0.000 OA
ATOM     45  C   UNL     1      40.535   7.292  21.386  0.00  0.00    +0.000 C 
BRANCH  45  46
ATOM     46  C   UNL     1      39.287   6.686  21.739  0.00  0.00    +0.000 C 
ATOM     47  C   UNL     1      38.244   6.183  22.039  0.00  0.00    +0.000 C 
ATOM     48  C   UNL     1      36.912   5.528  22.413  0.00  0.00    +0.000 C 
ENDBRANCH  45  46
ENDBRANCH  43  45
ENDBRANCH  15  43
TORSDOF 10
ENDMDL
MODEL 3
REMARK VINA RESULT:      -7.7      2.976      8.487
REMARK  Name = Thapsigargin.pdbqt.pdb
REMARK  10 active torsions:
REMARK  status: ('A' for Active; 'I' for Inactive)
REMARK    1  A    between atoms: O_2  and  C_24
REMARK    2  A    between atoms: C_17  and  O_43
REMARK    3  A    between atoms: C_19  and  C_24
REMARK    4  A    between atoms: C_19  and  O_47
REMARK    5  A    between atoms: C_27  and  C_35
REMARK    6  A    between atoms: C_35  and  C_36
REMARK    7  A    between atoms: C_37  and  C_38
REMARK    8  A    between atoms: C_39  and  C_40
REMARK    9  A    between atoms: C_42  and  O_43
REMARK   10  A    between atoms: C_42  and  C_44
REMARK                            x       y       z     vdW  Elec       q    Type
REMARK                         _______ _______ _______ _____ _____    ______ ____
ROOT
ATOM      1  O   UNL     1      39.452  -0.722  11.580  0.00  0.00    +0.000 OA
ATOM      2  O   UNL     1      38.831   5.062  13.270  0.00  0.00    +0.000 OA
ATOM      3  O   UNL     1      39.218   3.848  15.488  0.00  0.00    +0.000 OA
ATOM      4  O   UNL     1      35.740   2.155  13.917  0.00  0.00    +0.000 OA
ATOM      5  O   UNL     1      40.716  -2.463  10.807  0.00  0.00    +0.000 OA
ATOM      6  O   UNL     1      40.495   4.205  14.847  0.00  0.00    +0.000 OA
ATOM      7  O   UNL     1      37.606   4.867  17.023  0.00  0.00    +0.000 OA
ATOM      8  O   UNL     1      36.245  -0.236  14.400  0.00  0.00    +0.000 OA
ATOM      9  C   UNL     1      38.409   3.052  11.776  0.00  0.00    +0.000 C 
ATOM     10  C   UNL     1      40.736   1.029  10.754  0.00  0.00    +0.000 C 
ATOM     11  C   UNL     1      39.531   0.657  11.433  0.00  0.00    +0.000 C 
ATOM     12  C   UNL     1      39.401   3.955  11.125  0.00  0.00    +0.000 C 
ATOM     13  C   UNL     1      38.563   1.505  11.844  0.00  0.00    +0.000 C 
ATOM     14  C   UNL     1      40.888   2.271  10.431  0.00  0.00    +0.000 C 
ATOM     15  C   UNL     1      40.482   3.622  10.395  0.00  0.00    +0.000 C 
ATOM     16  C   UNL     1      37.030   3.287  12.140  0.00  0.00    +0.000 C 
ATOM     17  C   UNL     1      41.521  -0.181  10.448  0.00  0.00    +0.000 C 
ATOM     18  C   UNL     1      36.514   2.127  12.752  0.00  0.00    +0.000 C 
ATOM     19  C   UNL     1      37.309   1.073  12.471  0.00  0.00    +0.000 C 
ATOM     20  C   UNL     1      39.329   3.890  12.597  0.00  0.00    +0.000 C 
ATOM     21  C   UNL     1      40.557  -1.255  10.957  0.00  0.00    +0.000 C 
ATOM     22  C   UNL     1      36.996   0.015  13.334  0.00  0.00    +0.000 C 
ATOM     23  C   UNL     1      40.199   4.708  13.515  0.00  0.00    +0.000 C 
ATOM     24  C   UNL     1      38.843   4.848  16.392  0.00  0.00    +0.000 C 
ATOM     25  C   UNL     1      35.929   1.077  14.860  0.00  0.00    +0.000 C 
ATOM     26  C   UNL     1      41.192   5.765  13.015  0.00  0.00    +0.000 C 
ATOM     27  C   UNL     1      36.063   1.370  16.170  0.00  0.00    +0.000 C 
ATOM     28  C   UNL     1      36.307   0.294  17.204  0.00  0.00    +0.000 C 
ATOM     29  C   UNL     1      36.378   2.698  16.576  0.00  0.00    +0.000 C 
ATOM     30  C   UNL     1      36.912   3.750  16.811  0.00  0.00    +0.000 C 
ENDROOT
BRANCH  17  31
ATOM     31  O   UNL     1      41.774  -0.278   9.057  0.00  0.00    +0.000 OA
ATOM     32  H   UNL     1      42.643  -0.713   8.979  0.00  0.00    +0.000 HD
ENDBRANCH  17  31
BRANCH  17  33
ATOM     33  C   UNL     1      42.796  -0.177  11.187  0.00  0.00    +0.000 C 
BRANCH  33  34
ATOM     34  O   UNL     1      43.955  -0.152  11.842  0.00  0.00    +0.000 OA
ATOM     35  H   UNL     1      44.121  -1.001  12.294  0.00  0.00    +0.000 HD
ENDBRANCH  33  34
ENDBRANCH  17  33
BRANCH  24  36
ATOM     36  C   UNL     1      39.558   5.921  16.551  0.00  0.00    +0.000 C 
BRANCH  36  37
ATOM     37  C   UNL     1      40.422   7.179  16.693  0.00  0.00    +0.000 C 
ATOM     38  C   UNL     1      41.100   8.166  16.768  0.00  0.00    +0.000 C 
BRANCH  38  39
ATOM     39  C   UNL     1      41.964   9.430  16.836  0.00  0.00    +0.000 C 
ATOM     40  C   UNL     1      42.642  10.419  16.875  0.00  0.00    +0.000 C 
BRANCH  40  41
ATOM     41  C   UNL     1      43.507  11.682  16.916  0.00  0.00    +0.000 C 
ATOM     42  C   UNL     1      44.261  12.780  16.950  0.00  0.00    +0.000 C 
ENDBRANCH  40  41
ENDBRANCH  38  39
ENDBRANCH  36  37
ENDBRANCH  24  36
BRANCH  15  43
ATOM     43  O   UNL     1      40.991   4.499   9.430  0.00  0.00    +0.000 OA
BRANCH  43  45
ATOM     44  O   UNL     1      39.675   3.762   7.655  0.00  0.00    +0.000 OA
ATOM     45  C   UNL     1      40.193   4.642   8.328  0.00  0.00    +0.000 C 
BRANCH  45  46
ATOM     46  C   UNL     1      39.999   6.019   7.992  0.00  0.00    +0.000 C 
ATOM     47  C   UNL     1      39.841   7.173   7.715  0.00  0.00    +0.000 C 
ATOM     48  C   UNL     1      39.626   8.644   7.352  0.00  0.00    +0.000 C 
ENDBRANCH  45  46
ENDBRANCH  43  45
ENDBRANCH  15  43
TORSDOF 10
ENDMDL
MODEL 4
REMARK VINA RESULT:      -7.6      5.927     10.838
REMARK  Name = Thapsigargin.pdbqt.pdb
REMARK  10 active torsions:
REMARK  status: ('A' for Active; 'I' for Inactive)
REMARK    1  A    between atoms: O_2  and  C_24
REMARK    2  A    between atoms: C_17  and  O_43
REMARK    3  A    between atoms: C_19  and  C_24
REMARK    4  A    between atoms: C_19  and  O_47
REMARK    5  A    between atoms: C_27  and  C_35
REMARK    6  A    between atoms: C_35  and  C_36
REMARK    7  A    between atoms: C_37  and  C_38
REMARK    8  A    between atoms: C_39  and  C_40
REMARK    9  A    between atoms: C_42  and  O_43
REMARK   10  A    between atoms: C_42  and  C_44
REMARK                            x       y       z     vdW  Elec       q    Type
REMARK                         _______ _______ _______ _____ _____    ______ ____
ROOT
ATOM      1  O   UNL     1      45.476   9.293  19.526  0.00  0.00    +0.000 OA
ATOM      2  O   UNL     1      41.148   8.233  15.421  0.00  0.00    +0.000 OA
ATOM      3  O   UNL     1      43.285   7.520  14.210  0.00  0.00    +0.000 OA
ATOM      4  O   UNL     1      43.837  11.563  15.091  0.00  0.00    +0.000 OA
ATOM      5  O   UNL     1      46.714   8.670  21.344  0.00  0.00    +0.000 OA
ATOM      6  O   UNL     1      42.741   6.418  15.022  0.00  0.00    +0.000 OA
ATOM      7  O   UNL     1      43.022   8.413  11.945  0.00  0.00    +0.000 OA
ATOM      8  O   UNL     1      46.197  11.448  15.879  0.00  0.00    +0.000 OA
ATOM      9  C   UNL     1      42.189   9.446  17.396  0.00  0.00    +0.000 C 
ATOM     10  C   UNL     1      43.618   7.948  19.899  0.00  0.00    +0.000 C 
ATOM     11  C   UNL     1      44.198   8.975  19.085  0.00  0.00    +0.000 C 
ATOM     12  C   UNL     1      41.143   8.503  17.887  0.00  0.00    +0.000 C 
ATOM     13  C   UNL     1      43.590   9.600  18.054  0.00  0.00    +0.000 C 
ATOM     14  C   UNL     1      42.382   7.637  19.688  0.00  0.00    +0.000 C 
ATOM     15  C   UNL     1      41.153   7.752  19.004  0.00  0.00    +0.000 C 
ATOM     16  C   UNL     1      42.075  10.596  16.528  0.00  0.00    +0.000 C 
ATOM     17  C   UNL     1      44.582   7.541  20.937  0.00  0.00    +0.000 C 
ATOM     18  C   UNL     1      43.355  11.156  16.340  0.00  0.00    +0.000 C 
ATOM     19  C   UNL     1      44.195  10.699  17.293  0.00  0.00    +0.000 C 
ATOM     20  C   UNL     1      41.890   8.187  16.656  0.00  0.00    +0.000 C 
ATOM     21  C   UNL     1      45.713   8.531  20.647  0.00  0.00    +0.000 C 
ATOM     22  C   UNL     1      45.516  10.978  16.918  0.00  0.00    +0.000 C 
ATOM     23  C   UNL     1      41.653   6.953  15.825  0.00  0.00    +0.000 C 
ATOM     24  C   UNL     1      42.810   7.423  12.897  0.00  0.00    +0.000 C 
ATOM     25  C   UNL     1      45.240  11.352  14.825  0.00  0.00    +0.000 C 
ATOM     26  C   UNL     1      40.543   5.936  16.124  0.00  0.00    +0.000 C 
ATOM     27  C   UNL     1      45.608  10.812  13.644  0.00  0.00    +0.000 C 
ATOM     28  C   UNL     1      47.057  10.525  13.319  0.00  0.00    +0.000 C 
ATOM     29  C   UNL     1      44.650  10.134  12.839  0.00  0.00    +0.000 C 
ATOM     30  C   UNL     1      43.865   9.353  12.370  0.00  0.00    +0.000 C 
ENDROOT
BRANCH  17  31
ATOM     31  O   UNL     1      44.026   7.698  22.231  0.00  0.00    +0.000 OA
ATOM     32  H   UNL     1      44.784   7.678  22.845  0.00  0.00    +0.000 HD
ENDBRANCH  17  31
BRANCH  17  33
ATOM     33  C   UNL     1      45.000   6.141  20.741  0.00  0.00    +0.000 C 
BRANCH  33  34
ATOM     34  O   UNL     1      45.353   4.869  20.565  0.00  0.00    +0.000 OA
ATOM     35  H   UNL     1      45.982   4.580  21.252  0.00  0.00    +0.000 HD
ENDBRANCH  33  34
ENDBRANCH  17  33
BRANCH  24  36
ATOM     36  C   UNL     1      41.982   6.487  12.542  0.00  0.00    +0.000 C 
BRANCH  36  37
ATOM     37  C   UNL     1      40.991   5.412  12.085  0.00  0.00    +0.000 C 
ATOM     38  C   UNL     1      40.234   4.566  11.694  0.00  0.00    +0.000 C 
BRANCH  38  39
ATOM     39  C   UNL     1      39.283   3.484  11.174  0.00  0.00    +0.000 C 
ATOM     40  C   UNL     1      38.538   2.629  10.780  0.00  0.00    +0.000 C 
BRANCH  40  41
ATOM     41  C   UNL     1      37.585   1.537  10.284  0.00  0.00    +0.000 C 
ATOM     42  C   UNL     1      36.754   0.589   9.852  0.00  0.00    +0.000 C 
ENDBRANCH  40  41
ENDBRANCH  38  39
ENDBRANCH  36  37
ENDBRANCH  24  36
BRANCH  15  43
ATOM     43  O   UNL     1      39.955   7.353  19.608  0.00  0.00    +0.000 OA
BRANCH  43  45
ATOM     44  O   UNL     1      40.737   8.101  21.671  0.00  0.00    +0.000 OA
ATOM     45  C   UNL     1      39.941   7.493  20.969  0.00  0.00    +0.000 C 
BRANCH  45  46
ATOM     46  C   UNL     1      38.833   6.808  21.559  0.00  0.00    +0.000 C 
ATOM     47  C   UNL     1      37.908   6.235  22.059  0.00  0.00    +0.000 C 
ATOM     48  C   UNL     1      36.721   5.498  22.684  0.00  0.00    +0.000 C 
ENDBRANCH  45  46
ENDBRANCH  43  45
ENDBRANCH  15  43
TORSDOF 10
ENDMDL
MODEL 5
REMARK VINA RESULT:      -7.5     21.716     26.140
REMARK  Name = Thapsigargin.pdbqt.pdb
REMARK  10 active torsions:
REMARK  status: ('A' for Active; 'I' for Inactive)
REMARK    1  A    between atoms: O_2  and  C_24
REMARK    2  A    between atoms: C_17  and  O_43
REMARK    3  A    between atoms: C_19  and  C_24
REMARK    4  A    between atoms: C_19  and  O_47
REMARK    5  A    between atoms: C_27  and  C_35
REMARK    6  A    between atoms: C_35  and  C_36
REMARK    7  A    between atoms: C_37  and  C_38
REMARK    8  A    between atoms: C_39  and  C_40
REMARK    9  A    between atoms: C_42  and  O_43
REMARK   10  A    between atoms: C_42  and  C_44
REMARK                            x       y       z     vdW  Elec       q    Type
REMARK                         _______ _______ _______ _____ _____    ______ ____
ROOT
ATOM      1  O   UNL     1      20.143  14.513  14.957  0.00  0.00    +0.000 OA
ATOM      2  O   UNL     1      20.547  13.582  20.930  0.00  0.00    +0.000 OA
ATOM      3  O   UNL     1      18.571  15.194  20.726  0.00  0.00    +0.000 OA
ATOM      4  O   UNL     1      21.823  17.250  19.104  0.00  0.00    +0.000 OA
ATOM      5  O   UNL     1      19.415  13.909  12.876  0.00  0.00    +0.000 OA
ATOM      6  O   UNL     1      18.135  13.796  20.569  0.00  0.00    +0.000 OA
ATOM      7  O   UNL     1      18.914  16.801  22.542  0.00  0.00    +0.000 OA
ATOM      8  O   UNL     1      20.693  18.199  17.097  0.00  0.00    +0.000 OA
ATOM      9  C   UNL     1      21.469  13.772  18.571  0.00  0.00    +0.000 C 
ATOM     10  C   UNL     1      20.083  12.420  15.963  0.00  0.00    +0.000 C 
ATOM     11  C   UNL     1      20.438  13.799  16.111  0.00  0.00    +0.000 C 
ATOM     12  C   UNL     1      21.348  12.333  18.942  0.00  0.00    +0.000 C 
ATOM     13  C   UNL     1      21.026  14.350  17.196  0.00  0.00    +0.000 C 
ATOM     14  C   UNL     1      20.416  11.605  16.910  0.00  0.00    +0.000 C 
ATOM     15  C   UNL     1      20.985  11.296  18.163  0.00  0.00    +0.000 C 
ATOM     16  C   UNL     1      22.273  14.822  19.155  0.00  0.00    +0.000 C 
ATOM     17  C   UNL     1      19.492  12.205  14.630  0.00  0.00    +0.000 C 
ATOM     18  C   UNL     1      22.028  16.025  18.462  0.00  0.00    +0.000 C 
ATOM     19  C   UNL     1      21.441  15.754  17.276  0.00  0.00    +0.000 C 
ATOM     20  C   UNL     1      20.414  13.317  19.520  0.00  0.00    +0.000 C 
ATOM     21  C   UNL     1      19.655  13.609  14.042  0.00  0.00    +0.000 C 
ATOM     22  C   UNL     1      20.901  16.934  16.748  0.00  0.00    +0.000 C 
ATOM     23  C   UNL     1      19.326  12.964  20.500  0.00  0.00    +0.000 C 
ATOM     24  C   UNL     1      18.431  15.590  22.060  0.00  0.00    +0.000 C 
ATOM     25  C   UNL     1      20.862  18.152  18.513  0.00  0.00    +0.000 C 
ATOM     26  C   UNL     1      19.132  11.554  21.072  0.00  0.00    +0.000 C 
ATOM     27  C   UNL     1      19.951  18.751  19.308  0.00  0.00    +0.000 C 
ATOM     28  C   UNL     1      18.889  19.671  18.749  0.00  0.00    +0.000 C 
ATOM     29  C   UNL     1      19.699  18.242  20.614  0.00  0.00    +0.000 C 
ATOM     30  C   UNL     1      19.351  17.595  21.566  0.00  0.00    +0.000 C 
ENDROOT
BRANCH  17  31
ATOM     31  O   UNL     1      20.211  11.217  13.913  0.00  0.00    +0.000 OA
ATOM     32  H   UNL     1      20.744  10.746  14.580  0.00  0.00    +0.000 HD
ENDBRANCH  17  31
BRANCH  17  33
ATOM     33  C   UNL     1      18.077  11.806  14.744  0.00  0.00    +0.000 C 
BRANCH  33  34
ATOM     34  O   UNL     1      16.798  11.444  14.822  0.00  0.00    +0.000 OA
ATOM     35  H   UNL     1      16.708  10.473  14.850  0.00  0.00    +0.000 HD
ENDBRANCH  33  34
ENDBRANCH  17  33
BRANCH  24  36
ATOM     36  C   UNL     1      18.005  14.767  22.971  0.00  0.00    +0.000 C 
BRANCH  36  37
ATOM     37  C   UNL     1      17.546  13.802  24.069  0.00  0.00    +0.000 C 
ATOM     38  C   UNL     1      17.219  13.030  24.928  0.00  0.00    +0.000 C 
BRANCH  38  39
ATOM     39  C   UNL     1      16.827  12.033  26.023  0.00  0.00    +0.000 C 
ATOM     40  C   UNL     1      16.516  11.242  26.871  0.00  0.00    +0.000 C 
BRANCH  40  41
ATOM     41  C   UNL     1      16.119  10.227  27.947  0.00  0.00    +0.000 C 
ATOM     42  C   UNL     1      15.773   9.346  28.885  0.00  0.00    +0.000 C 
ENDBRANCH  40  41
ENDBRANCH  38  39
ENDBRANCH  36  37
ENDBRANCH  24  36
BRANCH  15  43
ATOM     43  O   UNL     1      21.418   9.997  18.455  0.00  0.00    +0.000 OA
BRANCH  43  45
ATOM     44  O   UNL     1      21.556   9.251  16.253  0.00  0.00    +0.000 OA
ATOM     45  C   UNL     1      21.250   9.109  17.429  0.00  0.00    +0.000 C 
BRANCH  45  46
ATOM     46  C   UNL     1      20.631   7.898  17.874  0.00  0.00    +0.000 C 
ATOM     47  C   UNL     1      20.110   6.884  18.240  0.00  0.00    +0.000 C 
ATOM     48  C   UNL     1      19.447   5.592  18.724  0.00  0.00    +0.000 C 
ENDBRANCH  45  46
ENDBRANCH  43  45
ENDBRANCH  15  43
TORSDOF 10
ENDMDL
MODEL 6
REMARK VINA RESULT:      -7.1     16.220     20.836
REMARK  Name = Thapsigargin.pdbqt.pdb
REMARK  10 active torsions:
REMARK  status: ('A' for Active; 'I' for Inactive)
REMARK    1  A    between atoms: O_2  and  C_24
REMARK    2  A    between atoms: C_17  and  O_43
REMARK    3  A    between atoms: C_19  and  C_24
REMARK    4  A    between atoms: C_19  and  O_47
REMARK    5  A    between atoms: C_27  and  C_35
REMARK    6  A    between atoms: C_35  and  C_36
REMARK    7  A    between atoms: C_37  and  C_38
REMARK    8  A    between atoms: C_39  and  C_40
REMARK    9  A    between atoms: C_42  and  O_43
REMARK   10  A    between atoms: C_42  and  C_44
REMARK                            x       y       z     vdW  Elec       q    Type
REMARK                         _______ _______ _______ _____ _____    ______ ____
ROOT
ATOM      1  O   UNL     1      17.690  -2.869   1.993  0.00  0.00    +0.000 OA
ATOM      2  O   UNL     1      22.761   0.112   3.440  0.00  0.00    +0.000 OA
ATOM      3  O   UNL     1      22.845  -1.947   4.956  0.00  0.00    +0.000 OA
ATOM      4  O   UNL     1      19.337   0.048   6.028  0.00  0.00    +0.000 OA
ATOM      5  O   UNL     1      16.525  -4.323   0.669  0.00  0.00    +0.000 OA
ATOM      6  O   UNL     1      23.429  -2.235   3.634  0.00  0.00    +0.000 OA
ATOM      7  O   UNL     1      23.584  -1.073   7.120  0.00  0.00    +0.000 OA
ATOM      8  O   UNL     1      17.826  -1.925   6.183  0.00  0.00    +0.000 OA
ATOM      9  C   UNL     1      20.356  -0.070   2.643  0.00  0.00    +0.000 C 
ATOM     10  C   UNL     1      19.324  -2.247   0.464  0.00  0.00    +0.000 C 
ATOM     11  C   UNL     1      18.775  -2.032   1.770  0.00  0.00    +0.000 C 
ATOM     12  C   UNL     1      21.252   0.152   1.472  0.00  0.00    +0.000 C 
ATOM     13  C   UNL     1      19.204  -1.115   2.664  0.00  0.00    +0.000 C 
ATOM     14  C   UNL     1      20.261  -1.451   0.065  0.00  0.00    +0.000 C 
ATOM     15  C   UNL     1      21.159  -0.375   0.236  0.00  0.00    +0.000 C 
ATOM     16  C   UNL     1      20.094   0.770   3.790  0.00  0.00    +0.000 C 
ATOM     17  C   UNL     1      18.567  -3.311  -0.219  0.00  0.00    +0.000 C 
ATOM     18  C   UNL     1      19.181   0.113   4.640  0.00  0.00    +0.000 C 
ATOM     19  C   UNL     1      18.564  -0.880   3.963  0.00  0.00    +0.000 C 
ATOM     20  C   UNL     1      21.761  -0.566   2.655  0.00  0.00    +0.000 C 
ATOM     21  C   UNL     1      17.489  -3.582   0.833  0.00  0.00    +0.000 C 
ATOM     22  C   UNL     1      17.924  -1.731   4.873  0.00  0.00    +0.000 C 
ATOM     23  C   UNL     1      23.168  -1.091   2.775  0.00  0.00    +0.000 C 
ATOM     24  C   UNL     1      23.852  -1.562   5.848  0.00  0.00    +0.000 C 
ATOM     25  C   UNL     1      18.932  -1.174   6.682  0.00  0.00    +0.000 C 
ATOM     26  C   UNL     1      24.250  -0.854   1.712  0.00  0.00    +0.000 C 
ATOM     27  C   UNL     1      19.754  -1.733   7.594  0.00  0.00    +0.000 C 
ATOM     28  C   UNL     1      19.410  -3.034   8.283  0.00  0.00    +0.000 C 
ATOM     29  C   UNL     1      21.124  -1.350   7.650  0.00  0.00    +0.000 C 
ATOM     30  C   UNL     1      22.298  -1.185   7.446  0.00  0.00    +0.000 C 
ENDROOT
BRANCH  17  31
ATOM     31  O   UNL     1      18.038  -2.844  -1.447  0.00  0.00    +0.000 OA
ATOM     32  H   UNL     1      17.072  -2.965  -1.380  0.00  0.00    +0.000 HD
ENDBRANCH  17  31
BRANCH  17  33
ATOM     33  C   UNL     1      19.422  -4.487  -0.460  0.00  0.00    +0.000 C 
BRANCH  33  34
ATOM     34  O   UNL     1      20.213  -5.535  -0.686  0.00  0.00    +0.000 OA
ATOM     35  H   UNL     1      21.123  -5.361  -0.382  0.00  0.00    +0.000 HD
ENDBRANCH  33  34
ENDBRANCH  17  33
BRANCH  24  36
ATOM     36  C   UNL     1      25.091  -1.463   5.470  0.00  0.00    +0.000 C 
BRANCH  36  37
ATOM     37  C   UNL     1      26.564  -1.387   5.053  0.00  0.00    +0.000 C 
ATOM     38  C   UNL     1      27.726  -1.348   4.755  0.00  0.00    +0.000 C 
BRANCH  38  39
ATOM     39  C   UNL     1      29.215  -1.315   4.396  0.00  0.00    +0.000 C 
ATOM     40  C   UNL     1      30.383  -1.302   4.121  0.00  0.00    +0.000 C 
BRANCH  40  41
ATOM     41  C   UNL     1      31.874  -1.294   3.772  0.00  0.00    +0.000 C 
ATOM     42  C   UNL     1      33.172  -1.289   3.470  0.00  0.00    +0.000 C 
ENDBRANCH  40  41
ENDBRANCH  38  39
ENDBRANCH  36  37
ENDBRANCH  24  36
BRANCH  15  43
ATOM     43  O   UNL     1      21.697   0.294  -0.868  0.00  0.00    +0.000 OA
BRANCH  43  45
ATOM     44  O   UNL     1      21.180  -0.874  -2.816  0.00  0.00    +0.000 OA
ATOM     45  C   UNL     1      21.955  -0.515  -1.941  0.00  0.00    +0.000 C 
BRANCH  45  46
ATOM     46  C   UNL     1      23.318  -0.951  -1.958  0.00  0.00    +0.000 C 
ATOM     47  C   UNL     1      24.459  -1.313  -1.977  0.00  0.00    +0.000 C 
ATOM     48  C   UNL     1      25.914  -1.787  -1.992  0.00  0.00    +0.000 C 
ENDBRANCH  45  46
ENDBRANCH  43  45
ENDBRANCH  15  43
TORSDOF 10
ENDMDL
MODEL 7
REMARK VINA RESULT:      -6.9     38.314     43.207
REMARK  Name = Thapsigargin.pdbqt.pdb
REMARK  10 active torsions:
REMARK  status: ('A' for Active; 'I' for Inactive)
REMARK    1  A    between atoms: O_2  and  C_24
REMARK    2  A    between atoms: C_17  and  O_43
REMARK    3  A    between atoms: C_19  and  C_24
REMARK    4  A    between atoms: C_19  and  O_47
REMARK    5  A    between atoms: C_27  and  C_35
REMARK    6  A    between atoms: C_35  and  C_36
REMARK    7  A    between atoms: C_37  and  C_38
REMARK    8  A    between atoms: C_39  and  C_40
REMARK    9  A    between atoms: C_42  and  O_43
REMARK   10  A    between atoms: C_42  and  C_44
REMARK                            x       y       z     vdW  Elec       q    Type
REMARK                         _______ _______ _______ _____ _____    ______ ____
ROOT
ATOM      1  O   UNL     1      39.171   9.918  53.142  0.00  0.00    +0.000 OA
ATOM      2  O   UNL     1      34.176  12.882  51.420  0.00  0.00    +0.000 OA
ATOM      3  O   UNL     1      34.495  13.641  53.842  0.00  0.00    +0.000 OA
ATOM      4  O   UNL     1      34.023   9.498  54.056  0.00  0.00    +0.000 OA
ATOM      5  O   UNL     1      41.444   9.722  53.271  0.00  0.00    +0.000 OA
ATOM      6  O   UNL     1      35.274  14.479  52.914  0.00  0.00    +0.000 OA
ATOM      7  O   UNL     1      32.239  13.592  54.792  0.00  0.00    +0.000 OA
ATOM      8  O   UNL     1      35.834   9.007  55.693  0.00  0.00    +0.000 OA
ATOM      9  C   UNL     1      35.824  10.950  51.381  0.00  0.00    +0.000 C 
ATOM     10  C   UNL     1      39.050  11.316  51.291  0.00  0.00    +0.000 C 
ATOM     11  C   UNL     1      38.314  10.543  52.246  0.00  0.00    +0.000 C 
ATOM     12  C   UNL     1      36.048  11.818  50.189  0.00  0.00    +0.000 C 
ATOM     13  C   UNL     1      36.972  10.387  52.267  0.00  0.00    +0.000 C 
ATOM     14  C   UNL     1      38.396  11.854  50.315  0.00  0.00    +0.000 C 
ATOM     15  C   UNL     1      37.214  12.149  49.602  0.00  0.00    +0.000 C 
ATOM     16  C   UNL     1      34.665  10.179  51.770  0.00  0.00    +0.000 C 
ATOM     17  C   UNL     1      40.491  11.215  51.584  0.00  0.00    +0.000 C 
ATOM     18  C   UNL     1      34.933   9.535  52.995  0.00  0.00    +0.000 C 
ATOM     19  C   UNL     1      36.265   9.526  53.221  0.00  0.00    +0.000 C 
ATOM     20  C   UNL     1      35.538  12.411  51.439  0.00  0.00    +0.000 C 
ATOM     21  C   UNL     1      40.453  10.225  52.751  0.00  0.00    +0.000 C 
ATOM     22  C   UNL     1      36.503   9.200  54.562  0.00  0.00    +0.000 C 
ATOM     23  C   UNL     1      35.200  13.871  51.596  0.00  0.00    +0.000 C 
ATOM     24  C   UNL     1      33.251  14.232  54.087  0.00  0.00    +0.000 C 
ATOM     25  C   UNL     1      34.563   9.581  55.393  0.00  0.00    +0.000 C 
ATOM     26  C   UNL     1      35.265  14.880  50.442  0.00  0.00    +0.000 C 
ATOM     27  C   UNL     1      33.990  10.422  56.279  0.00  0.00    +0.000 C 
ATOM     28  C   UNL     1      34.533  10.590  57.681  0.00  0.00    +0.000 C 
ATOM     29  C   UNL     1      33.126  11.458  55.825  0.00  0.00    +0.000 C 
ATOM     30  C   UNL     1      32.651  12.454  55.349  0.00  0.00    +0.000 C 
ENDROOT
BRANCH  17  31
ATOM     31  O   UNL     1      41.201  10.721  50.461  0.00  0.00    +0.000 OA
ATOM     32  H   UNL     1      42.050  10.394  50.811  0.00  0.00    +0.000 HD
ENDBRANCH  17  31
BRANCH  17  33
ATOM     33  C   UNL     1      41.037  12.526  51.980  0.00  0.00    +0.000 C 
BRANCH  33  34
ATOM     34  O   UNL     1      41.550  13.706  52.325  0.00  0.00    +0.000 OA
ATOM     35  H   UNL     1      41.939  13.671  53.219  0.00  0.00    +0.000 HD
ENDBRANCH  33  34
ENDBRANCH  17  33
BRANCH  24  36
ATOM     36  C   UNL     1      32.901  15.341  53.507  0.00  0.00    +0.000 C 
BRANCH  36  37
ATOM     37  C   UNL     1      32.483  16.624  52.781  0.00  0.00    +0.000 C 
ATOM     38  C   UNL     1      32.146  17.609  52.182  0.00  0.00    +0.000 C 
BRANCH  38  39
ATOM     39  C   UNL     1      31.709  18.849  51.398  0.00  0.00    +0.000 C 
ATOM     40  C   UNL     1      31.366  19.814  50.771  0.00  0.00    +0.000 C 
BRANCH  40  41
ATOM     41  C   UNL     1      30.925  21.039  49.964  0.00  0.00    +0.000 C 
ATOM     42  C   UNL     1      30.540  22.105  49.264  0.00  0.00    +0.000 C 
ENDBRANCH  40  41
ENDBRANCH  38  39
ENDBRANCH  36  37
ENDBRANCH  24  36
BRANCH  15  43
ATOM     43  O   UNL     1      37.259  12.493  48.247  0.00  0.00    +0.000 OA
BRANCH  43  45
ATOM     44  O   UNL     1      37.459  10.587  46.923  0.00  0.00    +0.000 OA
ATOM     45  C   UNL     1      37.916  11.585  47.461  0.00  0.00    +0.000 C 
BRANCH  45  46
ATOM     46  C   UNL     1      39.299  11.920  47.311  0.00  0.00    +0.000 C 
ATOM     47  C   UNL     1      40.458  12.194  47.187  0.00  0.00    +0.000 C 
ATOM     48  C   UNL     1      41.935  12.559  47.027  0.00  0.00    +0.000 C 
ENDBRANCH  45  46
ENDBRANCH  43  45
ENDBRANCH  15  43
TORSDOF 10
ENDMDL
MODEL 8
REMARK VINA RESULT:      -6.9     21.692     25.322
REMARK  Name = Thapsigargin.pdbqt.pdb
REMARK  10 active torsions:
REMARK  status: ('A' for Active; 'I' for Inactive)
REMARK    1  A    between atoms: O_2  and  C_24
REMARK    2  A    between atoms: C_17  and  O_43
REMARK    3  A    between atoms: C_19  and  C_24
REMARK    4  A    between atoms: C_19  and  O_47
REMARK    5  A    between atoms: C_27  and  C_35
REMARK    6  A    between atoms: C_35  and  C_36
REMARK    7  A    between atoms: C_37  and  C_38
REMARK    8  A    between atoms: C_39  and  C_40
REMARK    9  A    between atoms: C_42  and  O_43
REMARK   10  A    between atoms: C_42  and  C_44
REMARK                            x       y       z     vdW  Elec       q    Type
REMARK                         _______ _______ _______ _____ _____    ______ ____
ROOT
ATOM      1  O   UNL     1      51.491   5.982  34.040  0.00  0.00    +0.000 OA
ATOM      2  O   UNL     1      49.489   0.427  32.685  0.00  0.00    +0.000 OA
ATOM      3  O   UNL     1      51.513   0.706  31.145  0.00  0.00    +0.000 OA
ATOM      4  O   UNL     1      48.891   3.769  30.058  0.00  0.00    +0.000 OA
ATOM      5  O   UNL     1      52.716   7.414  35.333  0.00  0.00    +0.000 OA
ATOM      6  O   UNL     1      51.917   0.204  32.470  0.00  0.00    +0.000 OA
ATOM      7  O   UNL     1      50.770  -0.211  29.000  0.00  0.00    +0.000 OA
ATOM      8  O   UNL     1      50.547   5.618  29.863  0.00  0.00    +0.000 OA
ATOM      9  C   UNL     1      49.229   2.834  33.453  0.00  0.00    +0.000 C 
ATOM     10  C   UNL     1      51.198   4.281  35.594  0.00  0.00    +0.000 C 
ATOM     11  C   UNL     1      50.872   4.763  34.285  0.00  0.00    +0.000 C 
ATOM     12  C   UNL     1      49.190   1.928  34.637  0.00  0.00    +0.000 C 
ATOM     13  C   UNL     1      50.042   4.160  33.406  0.00  0.00    +0.000 C 
ATOM     14  C   UNL     1      50.594   3.218  36.013  0.00  0.00    +0.000 C 
ATOM     15  C   UNL     1      49.702   2.134  35.865  0.00  0.00    +0.000 C 
ATOM     16  C   UNL     1      48.344   2.921  32.313  0.00  0.00    +0.000 C 
ATOM     17  C   UNL     1      52.110   5.231  36.255  0.00  0.00    +0.000 C 
ATOM     18  C   UNL     1      48.812   3.928  31.446  0.00  0.00    +0.000 C 
ATOM     19  C   UNL     1      49.679   4.727  32.103  0.00  0.00    +0.000 C 
ATOM     20  C   UNL     1      49.978   1.545  33.451  0.00  0.00    +0.000 C 
ATOM     21  C   UNL     1      52.165   6.327  35.188  0.00  0.00    +0.000 C 
ATOM     22  C   UNL     1      50.388   5.503  31.176  0.00  0.00    +0.000 C 
ATOM     23  C   UNL     1      50.754   0.259  33.340  0.00  0.00    +0.000 C 
ATOM     24  C   UNL     1      51.313  -0.366  30.269  0.00  0.00    +0.000 C 
ATOM     25  C   UNL     1      50.010   4.386  29.385  0.00  0.00    +0.000 C 
ATOM     26  C   UNL     1      50.732  -0.834  34.417  0.00  0.00    +0.000 C 
ATOM     27  C   UNL     1      50.703   3.669  28.476  0.00  0.00    +0.000 C 
ATOM     28  C   UNL     1      51.911   4.240  27.767  0.00  0.00    +0.000 C 
ATOM     29  C   UNL     1      50.580   2.251  28.440  0.00  0.00    +0.000 C 
ATOM     30  C   UNL     1      50.638   1.070  28.659  0.00  0.00    +0.000 C 
ENDROOT
BRANCH  17  31
ATOM     31  O   UNL     1      51.565   5.681  37.484  0.00  0.00    +0.000 OA
ATOM     32  H   UNL     1      51.309   4.873  37.968  0.00  0.00    +0.000 HD
ENDBRANCH  17  31
BRANCH  17  33
ATOM     33  C   UNL     1      53.427   4.612  36.492  0.00  0.00    +0.000 C 
BRANCH  33  34
ATOM     34  O   UNL     1      54.620   4.067  36.725  0.00  0.00    +0.000 OA
ATOM     35  H   UNL     1      54.857   4.133  37.670  0.00  0.00    +0.000 HD
ENDBRANCH  33  34
ENDBRANCH  17  33
BRANCH  24  36
ATOM     36  C   UNL     1      51.450  -1.597  30.662  0.00  0.00    +0.000 C 
BRANCH  36  37
ATOM     37  C   UNL     1      51.560  -3.053  31.126  0.00  0.00    +0.000 C 
ATOM     38  C   UNL     1      51.614  -4.201  31.474  0.00  0.00    +0.000 C 
BRANCH  38  39
ATOM     39  C   UNL     1      51.660  -5.670  31.905  0.00  0.00    +0.000 C 
ATOM     40  C   UNL     1      51.682  -6.821  32.246  0.00  0.00    +0.000 C 
BRANCH  40  41
ATOM     41  C   UNL     1      51.702  -8.289  32.681  0.00  0.00    +0.000 C 
ATOM     42  C   UNL     1      51.719  -9.566  33.062  0.00  0.00    +0.000 C 
ENDBRANCH  40  41
ENDBRANCH  38  39
ENDBRANCH  36  37
ENDBRANCH  24  36
BRANCH  15  43
ATOM     43  O   UNL     1      49.155   1.495  36.983  0.00  0.00    +0.000 OA
BRANCH  43  45
ATOM     44  O   UNL     1      51.092   0.300  37.479  0.00  0.00    +0.000 OA
ATOM     45  C   UNL     1      50.082   0.910  37.802  0.00  0.00    +0.000 C 
BRANCH  45  46
ATOM     46  C   UNL     1      49.747   1.075  39.183  0.00  0.00    +0.000 C 
ATOM     47  C   UNL     1      49.469   1.207  40.340  0.00  0.00    +0.000 C 
ATOM     48  C   UNL     1      49.104   1.388  41.815  0.00  0.00    +0.000 C 
ENDBRANCH  45  46
ENDBRANCH  43  45
ENDBRANCH  15  43
TORSDOF 10
ENDMDL
MODEL 9
REMARK VINA RESULT:      -6.9      2.712      7.127
REMARK  Name = Thapsigargin.pdbqt.pdb
REMARK  10 active torsions:
REMARK  status: ('A' for Active; 'I' for Inactive)
REMARK    1  A    between atoms: O_2  and  C_24
REMARK    2  A    between atoms: C_17  and  O_43
REMARK    3  A    between atoms: C_19  and  C_24
REMARK    4  A    between atoms: C_19  and  O_47
REMARK    5  A    between atoms: C_27  and  C_35
REMARK    6  A    between atoms: C_35  and  C_36
REMARK    7  A    between atoms: C_37  and  C_38
REMARK    8  A    between atoms: C_39  and  C_40
REMARK    9  A    between atoms: C_42  and  O_43
REMARK   10  A    between atoms: C_42  and  C_44
REMARK                            x       y       z     vdW  Elec       q    Type
REMARK                         _______ _______ _______ _____ _____    ______ ____
ROOT
ATOM      1  O   UNL     1      39.880   5.593  10.201  0.00  0.00    +0.000 OA
ATOM      2  O   UNL     1      41.958   0.504  12.747  0.00  0.00    +0.000 OA
ATOM      3  O   UNL     1      41.952  -0.056  10.251  0.00  0.00    +0.000 OA
ATOM      4  O   UNL     1      37.973   0.806  11.180  0.00  0.00    +0.000 OA
ATOM      5  O   UNL     1      40.201   7.699   9.371  0.00  0.00    +0.000 OA
ATOM      6  O   UNL     1      43.204   0.614  10.643  0.00  0.00    +0.000 OA
ATOM      7  O   UNL     1      41.063  -2.336  10.147  0.00  0.00    +0.000 OA
ATOM      8  O   UNL     1      37.429   2.209   9.196  0.00  0.00    +0.000 OA
ATOM      9  C   UNL     1      40.593   2.645  12.684  0.00  0.00    +0.000 C 
ATOM     10  C   UNL     1      41.727   5.491  11.605  0.00  0.00    +0.000 C 
ATOM     11  C   UNL     1      40.537   4.832  11.159  0.00  0.00    +0.000 C 
ATOM     12  C   UNL     1      41.825   2.865  13.496  0.00  0.00    +0.000 C 
ATOM     13  C   UNL     1      40.067   3.654  11.623  0.00  0.00    +0.000 C 
ATOM     14  C   UNL     1      42.378   4.963  12.589  0.00  0.00    +0.000 C 
ATOM     15  C   UNL     1      42.595   3.967  13.566  0.00  0.00    +0.000 C 
ATOM     16  C   UNL     1      39.485   1.742  12.895  0.00  0.00    +0.000 C 
ATOM     17  C   UNL     1      41.885   6.766  10.881  0.00  0.00    +0.000 C 
ATOM     18  C   UNL     1      38.566   1.890  11.837  0.00  0.00    +0.000 C 
ATOM     19  C   UNL     1      38.802   3.050  11.189  0.00  0.00    +0.000 C 
ATOM     20  C   UNL     1      41.846   1.895  12.386  0.00  0.00    +0.000 C 
ATOM     21  C   UNL     1      40.593   6.761  10.059  0.00  0.00    +0.000 C 
ATOM     22  C   UNL     1      38.129   3.039   9.960  0.00  0.00    +0.000 C 
ATOM     23  C   UNL     1      43.052   1.073  12.014  0.00  0.00    +0.000 C 
ATOM     24  C   UNL     1      42.118  -1.444  10.304  0.00  0.00    +0.000 C 
ATOM     25  C   UNL     1      37.749   0.938   9.760  0.00  0.00    +0.000 C 
ATOM     26  C   UNL     1      44.363   1.092  12.811  0.00  0.00    +0.000 C 
ATOM     27  C   UNL     1      38.098  -0.079   8.944  0.00  0.00    +0.000 C 
ATOM     28  C   UNL     1      37.930   0.012   7.444  0.00  0.00    +0.000 C 
ATOM     29  C   UNL     1      38.987  -1.091   9.405  0.00  0.00    +0.000 C 
ATOM     30  C   UNL     1      39.940  -1.729   9.766  0.00  0.00    +0.000 C 
ENDROOT
BRANCH  17  31
ATOM     31  O   UNL     1      41.962   7.853  11.786  0.00  0.00    +0.000 OA
ATOM     32  H   UNL     1      42.514   7.539  12.526  0.00  0.00    +0.000 HD
ENDBRANCH  17  31
BRANCH  17  33
ATOM     33  C   UNL     1      43.089   6.738  10.031  0.00  0.00    +0.000 C 
BRANCH  33  34
ATOM     34  O   UNL     1      44.180   6.737   9.266  0.00  0.00    +0.000 OA
ATOM     35  H   UNL     1      44.826   6.076   9.577  0.00  0.00    +0.000 HD
ENDBRANCH  33  34
ENDBRANCH  17  33
BRANCH  24  36
ATOM     36  C   UNL     1      43.237  -1.979  10.691  0.00  0.00    +0.000 C 
BRANCH  36  37
ATOM     37  C   UNL     1      44.530  -2.649  11.166  0.00  0.00    +0.000 C 
ATOM     38  C   UNL     1      45.524  -3.202  11.549  0.00  0.00    +0.000 C 
BRANCH  38  39
ATOM     39  C   UNL     1      46.778  -3.930  12.045  0.00  0.00    +0.000 C 
ATOM     40  C   UNL     1      47.754  -4.502  12.447  0.00  0.00    +0.000 C 
BRANCH  40  41
ATOM     41  C   UNL     1      48.995  -5.233  12.967  0.00  0.00    +0.000 C 
ATOM     42  C   UNL     1      50.074  -5.872  13.417  0.00  0.00    +0.000 C 
ENDBRANCH  40  41
ENDBRANCH  38  39
ENDBRANCH  36  37
ENDBRANCH  24  36
BRANCH  15  43
ATOM     43  O   UNL     1      43.357   4.236  14.708  0.00  0.00    +0.000 OA
BRANCH  43  45
ATOM     44  O   UNL     1      43.605   6.377  15.591  0.00  0.00    +0.000 OA
ATOM     45  C   UNL     1      42.965   5.354  15.391  0.00  0.00    +0.000 C 
BRANCH  45  46
ATOM     46  C   UNL     1      41.636   5.220  15.906  0.00  0.00    +0.000 C 
ATOM     47  C   UNL     1      40.523   5.111  16.330  0.00  0.00    +0.000 C 
ATOM     48  C   UNL     1      39.104   4.969  16.887  0.00  0.00    +0.000 C 
ENDBRANCH  45  46
ENDBRANCH  43  45
ENDBRANCH  15  43
TORSDOF 10
ENDMDL
