MODEL 1
REMARK VINA RESULT:      -5.4      0.000      0.000
REMARK  Name = Thioguanosine.pdbqt.pdb
REMARK  5 active torsions:
REMARK  status: ('A' for Active; 'I' for Inactive)
REMARK    1  A    between atoms: N_2  and  C1*_12
REMARK    2  A    between atoms: C4*_14  and  C5*_17
REMARK    3  A    between atoms: C3*_15  and  O3*_20
REMARK    4  A    between atoms: C2*_16  and  O2*_22
REMARK    5  A    between atoms: C5*_17  and  O5*_18
REMARK                            x       y       z     vdW  Elec       q    Type
REMARK                         _______ _______ _______ _____ _____    ______ ____
ROOT
ATOM      1  S   UNL     1      17.353   2.711  41.991  0.00  0.00    +0.000 S 
ATOM      2  N   UNL     1      17.809   4.099  37.316  0.00  0.00    +0.000 N 
ATOM      3  N   UNL     1      19.249   5.310  38.902  0.00  0.00    +0.000 N 
ATOM      4  N   UNL     1      16.847   2.732  38.843  0.00  0.00    +0.000 NA
ATOM      5  N   UNL     1      19.035   4.705  41.192  0.00  0.00    +0.000 NA
ATOM      6  C   UNL     1      18.328   4.395  38.551  0.00  0.00    +0.000 A 
ATOM      7  C   UNL     1      16.927   3.060  37.568  0.00  0.00    +0.000 A 
ATOM      8  C   UNL     1      17.726   3.578  39.474  0.00  0.00    +0.000 A 
ATOM      9  C   UNL     1      18.090   3.725  40.884  0.00  0.00    +0.000 A 
ATOM     10  C   UNL     1      19.552   5.416  40.232  0.00  0.00    +0.000 A 
ATOM     11  H   UNL     1      19.676   5.949  38.235  0.00  0.00    +0.000 HD
ATOM     12  N   UNL     1      20.476   6.369  40.504  0.00  0.00    +0.000 N 
ATOM     13  H   UNL     1      21.289   6.345  39.903  0.00  0.00    +0.000 HD
ATOM     14  H   UNL     1      20.753   6.327  41.482  0.00  0.00    +0.000 HD
ENDROOT
BRANCH   2  15
ATOM     15  C1* UNL     1      18.042   4.666  36.078  0.00  0.00    +0.000 A 
ATOM     16  O4* UNL     1      19.263   4.480  35.387  0.00  0.00    +0.000 OA
ATOM     17  C4* UNL     1      19.220   5.180  34.171  0.00  0.00    +0.000 A 
ATOM     18  C3* UNL     1      17.942   5.825  34.071  0.00  0.00    +0.000 A 
ATOM     19  C2* UNL     1      17.203   5.498  35.251  0.00  0.00    +0.000 A 
BRANCH  18  20
ATOM     20  O3* UNL     1      17.748   7.027  33.446  0.00  0.00    +0.000 OA
ATOM     21  H3* UNL     1      17.136   7.597  33.946  0.00  0.00    +0.000 HD
ENDBRANCH  18  20
BRANCH  19  22
ATOM     22  O2* UNL     1      16.282   6.370  35.763  0.00  0.00    +0.000 OA
ATOM     23  H2* UNL     1      16.478   7.274  35.443  0.00  0.00    +0.000 HD
ENDBRANCH  19  22
BRANCH  17  24
ATOM     24  C5* UNL     1      20.360   5.399  33.376  0.00  0.00    +0.000 C 
BRANCH  24  25
ATOM     25  O5* UNL     1      21.431   5.587  32.612  0.00  0.00    +0.000 OA
ATOM     26  H5* UNL     1      21.553   4.839  32.002  0.00  0.00    +0.000 HD
ENDBRANCH  24  25
ENDBRANCH  17  24
ENDBRANCH   2  15
TORSDOF 5
ENDMDL
MODEL 2
REMARK VINA RESULT:      -5.3     36.269     37.788
REMARK  Name = Thioguanosine.pdbqt.pdb
REMARK  5 active torsions:
REMARK  status: ('A' for Active; 'I' for Inactive)
REMARK    1  A    between atoms: N_2  and  C1*_12
REMARK    2  A    between atoms: C4*_14  and  C5*_17
REMARK    3  A    between atoms: C3*_15  and  O3*_20
REMARK    4  A    between atoms: C2*_16  and  O2*_22
REMARK    5  A    between atoms: C5*_17  and  O5*_18
REMARK                            x       y       z     vdW  Elec       q    Type
REMARK                         _______ _______ _______ _____ _____    ______ ____
ROOT
ATOM      1  S   UNL     1      52.498  -9.361  32.028  0.00  0.00    +0.000 S 
ATOM      2  N   UNL     1      49.998 -13.567  31.787  0.00  0.00    +0.000 N 
ATOM      3  N   UNL     1      51.619 -13.217  29.967  0.00  0.00    +0.000 N 
ATOM      4  N   UNL     1      50.437 -11.638  32.888  0.00  0.00    +0.000 NA
ATOM      5  N   UNL     1      52.828 -11.170  30.013  0.00  0.00    +0.000 NA
ATOM      6  C   UNL     1      50.971 -12.886  31.099  0.00  0.00    +0.000 A 
ATOM      7  C   UNL     1      49.735 -12.754  32.879  0.00  0.00    +0.000 A 
ATOM      8  C   UNL     1      51.217 -11.710  31.760  0.00  0.00    +0.000 A 
ATOM      9  C   UNL     1      52.204 -10.783  31.201  0.00  0.00    +0.000 A 
ATOM     10  C   UNL     1      52.526 -12.317  29.478  0.00  0.00    +0.000 A 
ATOM     11  H   UNL     1      51.419 -14.067  29.446  0.00  0.00    +0.000 HD
ATOM     12  N   UNL     1      53.122 -12.718  28.329  0.00  0.00    +0.000 N 
ATOM     13  H   UNL     1      53.463 -13.670  28.346  0.00  0.00    +0.000 HD
ATOM     14  H   UNL     1      53.868 -12.076  28.073  0.00  0.00    +0.000 HD
ENDROOT
BRANCH   2  15
ATOM     15  C1* UNL     1      49.366 -14.764  31.512  0.00  0.00    +0.000 A 
ATOM     16  O4* UNL     1      50.062 -15.868  30.965  0.00  0.00    +0.000 OA
ATOM     17  C4* UNL     1      49.167 -16.935  30.780  0.00  0.00    +0.000 A 
ATOM     18  C3* UNL     1      47.869 -16.512  31.224  0.00  0.00    +0.000 A 
ATOM     19  C2* UNL     1      47.993 -15.165  31.690  0.00  0.00    +0.000 A 
BRANCH  18  20
ATOM     20  O3* UNL     1      46.699 -16.943  30.660  0.00  0.00    +0.000 OA
ATOM     21  H3* UNL     1      46.800 -17.104  29.703  0.00  0.00    +0.000 HD
ENDBRANCH  18  20
BRANCH  19  22
ATOM     22  O2* UNL     1      46.942 -14.294  31.595  0.00  0.00    +0.000 OA
ATOM     23  H2* UNL     1      46.309 -14.470  32.321  0.00  0.00    +0.000 HD
ENDBRANCH  19  22
BRANCH  17  24
ATOM     24  C5* UNL     1      49.490 -18.080  30.030  0.00  0.00    +0.000 C 
BRANCH  24  25
ATOM     25  O5* UNL     1      49.795 -19.149  29.301  0.00  0.00    +0.000 OA
ATOM     26  H5* UNL     1      49.020 -19.731  29.205  0.00  0.00    +0.000 HD
ENDBRANCH  24  25
ENDBRANCH  17  24
ENDBRANCH   2  15
TORSDOF 5
ENDMDL
MODEL 3
REMARK VINA RESULT:      -5.0     18.855     20.696
REMARK  Name = Thioguanosine.pdbqt.pdb
REMARK  5 active torsions:
REMARK  status: ('A' for Active; 'I' for Inactive)
REMARK    1  A    between atoms: N_2  and  C1*_12
REMARK    2  A    between atoms: C4*_14  and  C5*_17
REMARK    3  A    between atoms: C3*_15  and  O3*_20
REMARK    4  A    between atoms: C2*_16  and  O2*_22
REMARK    5  A    between atoms: C5*_17  and  O5*_18
REMARK                            x       y       z     vdW  Elec       q    Type
REMARK                         _______ _______ _______ _____ _____    ______ ____
ROOT
ATOM      1  S   UNL     1      30.427  22.553  29.933  0.00  0.00    +0.000 S 
ATOM      2  N   UNL     1      25.765  22.120  31.372  0.00  0.00    +0.000 N 
ATOM      3  N   UNL     1      26.078  23.195  29.180  0.00  0.00    +0.000 N 
ATOM      4  N   UNL     1      27.959  21.739  31.781  0.00  0.00    +0.000 NA
ATOM      5  N   UNL     1      28.326  23.470  28.454  0.00  0.00    +0.000 NA
ATOM      6  C   UNL     1      26.493  22.597  30.312  0.00  0.00    +0.000 A 
ATOM      7  C   UNL     1      26.725  21.592  32.221  0.00  0.00    +0.000 A 
ATOM      8  C   UNL     1      27.822  22.381  30.575  0.00  0.00    +0.000 A 
ATOM      9  C   UNL     1      28.814  22.836  29.599  0.00  0.00    +0.000 A 
ATOM     10  C   UNL     1      27.041  23.609  28.301  0.00  0.00    +0.000 A 
ATOM     11  H   UNL     1      25.100  23.396  28.989  0.00  0.00    +0.000 HD
ATOM     12  N   UNL     1      26.542  24.216  27.197  0.00  0.00    +0.000 N 
ATOM     13  H   UNL     1      25.778  23.719  26.758  0.00  0.00    +0.000 HD
ATOM     14  H   UNL     1      27.284  24.395  26.524  0.00  0.00    +0.000 HD
ENDROOT
BRANCH   2  15
ATOM     15  C1* UNL     1      24.406  22.142  31.618  0.00  0.00    +0.000 A 
ATOM     16  O4* UNL     1      23.847  21.566  32.784  0.00  0.00    +0.000 OA
ATOM     17  C4* UNL     1      22.452  21.725  32.758  0.00  0.00    +0.000 A 
ATOM     18  C3* UNL     1      22.104  22.425  31.554  0.00  0.00    +0.000 A 
ATOM     19  C2* UNL     1      23.319  22.695  30.848  0.00  0.00    +0.000 A 
BRANCH  18  20
ATOM     20  O3* UNL     1      20.939  22.216  30.868  0.00  0.00    +0.000 OA
ATOM     21  H3* UNL     1      20.174  22.604  31.333  0.00  0.00    +0.000 HD
ENDBRANCH  18  20
BRANCH  19  22
ATOM     22  O2* UNL     1      23.333  22.765  29.482  0.00  0.00    +0.000 OA
ATOM     23  H2* UNL     1      23.623  21.905  29.117  0.00  0.00    +0.000 HD
ENDBRANCH  19  22
BRANCH  17  24
ATOM     24  C5* UNL     1      21.591  21.050  33.642  0.00  0.00    +0.000 C 
BRANCH  24  25
ATOM     25  O5* UNL     1      20.759  20.416  34.462  0.00  0.00    +0.000 OA
ATOM     26  H5* UNL     1      19.865  20.377  34.080  0.00  0.00    +0.000 HD
ENDBRANCH  24  25
ENDBRANCH  17  24
ENDBRANCH   2  15
TORSDOF 5
ENDMDL
MODEL 4
REMARK VINA RESULT:      -4.9     34.837     37.041
REMARK  Name = Thioguanosine.pdbqt.pdb
REMARK  5 active torsions:
REMARK  status: ('A' for Active; 'I' for Inactive)
REMARK    1  A    between atoms: N_2  and  C1*_12
REMARK    2  A    between atoms: C4*_14  and  C5*_17
REMARK    3  A    between atoms: C3*_15  and  O3*_20
REMARK    4  A    between atoms: C2*_16  and  O2*_22
REMARK    5  A    between atoms: C5*_17  and  O5*_18
REMARK                            x       y       z     vdW  Elec       q    Type
REMARK                         _______ _______ _______ _____ _____    ______ ____
ROOT
ATOM      1  S   UNL     1      26.725   0.385   5.903  0.00  0.00    +0.000 S 
ATOM      2  N   UNL     1      30.806  -0.241   3.266  0.00  0.00    +0.000 N 
ATOM      3  N   UNL     1      30.054   2.094   3.476  0.00  0.00    +0.000 N 
ATOM      4  N   UNL     1      29.156  -1.150   4.522  0.00  0.00    +0.000 NA
ATOM      5  N   UNL     1      28.052   2.449   4.710  0.00  0.00    +0.000 NA
ATOM      6  C   UNL     1      29.983   0.769   3.697  0.00  0.00    +0.000 A 
ATOM      7  C   UNL     1      30.251  -1.381   3.825  0.00  0.00    +0.000 A 
ATOM      8  C   UNL     1      28.974   0.209   4.440  0.00  0.00    +0.000 A 
ATOM      9  C   UNL     1      27.938   1.085   4.990  0.00  0.00    +0.000 A 
ATOM     10  C   UNL     1      29.060   2.872   4.004  0.00  0.00    +0.000 A 
ATOM     11  H   UNL     1      30.773   2.518   2.895  0.00  0.00    +0.000 HD
ATOM     12  N   UNL     1      29.197   4.190   3.723  0.00  0.00    +0.000 N 
ATOM     13  H   UNL     1      30.127   4.556   3.881  0.00  0.00    +0.000 HD
ATOM     14  H   UNL     1      28.507   4.736   4.234  0.00  0.00    +0.000 HD
ENDROOT
BRANCH   2  15
ATOM     15  C1* UNL     1      31.922  -0.212   2.453  0.00  0.00    +0.000 A 
ATOM     16  O4* UNL     1      32.603   0.994   2.160  0.00  0.00    +0.000 OA
ATOM     17  C4* UNL     1      33.683   0.720   1.303  0.00  0.00    +0.000 A 
ATOM     18  C3* UNL     1      33.702  -0.691   1.045  0.00  0.00    +0.000 A 
ATOM     19  C2* UNL     1      32.615  -1.275   1.767  0.00  0.00    +0.000 A 
BRANCH  18  20
ATOM     20  O3* UNL     1      34.117  -1.237  -0.140  0.00  0.00    +0.000 OA
ATOM     21  H3* UNL     1      34.153  -0.569  -0.849  0.00  0.00    +0.000 HD
ENDBRANCH  18  20
BRANCH  19  22
ATOM     22  O2* UNL     1      31.984  -2.394   1.297  0.00  0.00    +0.000 OA
ATOM     23  H2* UNL     1      31.045  -2.377   1.572  0.00  0.00    +0.000 HD
ENDBRANCH  19  22
BRANCH  17  24
ATOM     24  C5* UNL     1      34.399   1.729   0.634  0.00  0.00    +0.000 C 
BRANCH  24  25
ATOM     25  O5* UNL     1      35.092   2.667  -0.003  0.00  0.00    +0.000 OA
ATOM     26  H5* UNL     1      34.612   3.514   0.006  0.00  0.00    +0.000 HD
ENDBRANCH  24  25
ENDBRANCH  17  24
ENDBRANCH   2  15
TORSDOF 5
ENDMDL
MODEL 5
REMARK VINA RESULT:      -4.8     21.066     22.005
REMARK  Name = Thioguanosine.pdbqt.pdb
REMARK  5 active torsions:
REMARK  status: ('A' for Active; 'I' for Inactive)
REMARK    1  A    between atoms: N_2  and  C1*_12
REMARK    2  A    between atoms: C4*_14  and  C5*_17
REMARK    3  A    between atoms: C3*_15  and  O3*_20
REMARK    4  A    between atoms: C2*_16  and  O2*_22
REMARK    5  A    between atoms: C5*_17  and  O5*_18
REMARK                            x       y       z     vdW  Elec       q    Type
REMARK                         _______ _______ _______ _____ _____    ______ ____
ROOT
ATOM      1  S   UNL     1      27.338 -11.285  46.027  0.00  0.00    +0.000 S 
ATOM      2  N   UNL     1      31.825 -10.636  44.172  0.00  0.00    +0.000 N 
ATOM      3  N   UNL     1      30.305 -11.970  42.769  0.00  0.00    +0.000 N 
ATOM      4  N   UNL     1      30.341 -10.230  45.834  0.00  0.00    +0.000 NA
ATOM      5  N   UNL     1      28.127 -12.352  43.644  0.00  0.00    +0.000 NA
ATOM      6  C   UNL     1      30.638 -11.244  43.852  0.00  0.00    +0.000 A 
ATOM      7  C   UNL     1      31.563 -10.019  45.386  0.00  0.00    +0.000 A 
ATOM      8  C   UNL     1      29.750 -11.011  44.871  0.00  0.00    +0.000 A 
ATOM      9  C   UNL     1      28.408 -11.590  44.780  0.00  0.00    +0.000 A 
ATOM     10  C   UNL     1      29.043 -12.496  42.730  0.00  0.00    +0.000 A 
ATOM     11  H   UNL     1      30.964 -12.183  42.024  0.00  0.00    +0.000 HD
ATOM     12  N   UNL     1      28.794 -13.226  41.616  0.00  0.00    +0.000 N 
ATOM     13  H   UNL     1      29.074 -12.778  40.753  0.00  0.00    +0.000 HD
ATOM     14  H   UNL     1      27.813 -13.492  41.578  0.00  0.00    +0.000 HD
ENDROOT
BRANCH   2  15
ATOM     15  C1* UNL     1      33.038 -10.615  43.511  0.00  0.00    +0.000 A 
ATOM     16  O4* UNL     1      33.865  -9.467  43.502  0.00  0.00    +0.000 OA
ATOM     17  C4* UNL     1      35.018  -9.732  42.744  0.00  0.00    +0.000 A 
ATOM     18  C3* UNL     1      34.935 -11.081  42.261  0.00  0.00    +0.000 A 
ATOM     19  C2* UNL     1      33.709 -11.636  42.745  0.00  0.00    +0.000 A 
BRANCH  18  20
ATOM     20  O3* UNL     1      35.450 -11.486  41.059  0.00  0.00    +0.000 OA
ATOM     21  H3* UNL     1      34.878 -11.219  40.316  0.00  0.00    +0.000 HD
ENDBRANCH  18  20
BRANCH  19  22
ATOM     22  O2* UNL     1      33.042 -12.590  42.027  0.00  0.00    +0.000 OA
ATOM     23  H2* UNL     1      32.707 -12.194  41.197  0.00  0.00    +0.000 HD
ENDBRANCH  19  22
BRANCH  17  24
ATOM     24  C5* UNL     1      35.912  -8.724  42.339  0.00  0.00    +0.000 C 
BRANCH  24  25
ATOM     25  O5* UNL     1      36.764  -7.786  41.939  0.00  0.00    +0.000 OA
ATOM     26  H5* UNL     1      36.909  -7.842  40.978  0.00  0.00    +0.000 HD
ENDBRANCH  24  25
ENDBRANCH  17  24
ENDBRANCH   2  15
TORSDOF 5
ENDMDL
MODEL 6
REMARK VINA RESULT:      -4.7     35.802     36.838
REMARK  Name = Thioguanosine.pdbqt.pdb
REMARK  5 active torsions:
REMARK  status: ('A' for Active; 'I' for Inactive)
REMARK    1  A    between atoms: N_2  and  C1*_12
REMARK    2  A    between atoms: C4*_14  and  C5*_17
REMARK    3  A    between atoms: C3*_15  and  O3*_20
REMARK    4  A    between atoms: C2*_16  and  O2*_22
REMARK    5  A    between atoms: C5*_17  and  O5*_18
REMARK                            x       y       z     vdW  Elec       q    Type
REMARK                         _______ _______ _______ _____ _____    ______ ____
ROOT
ATOM      1  S   UNL     1      52.265  -8.275  32.882  0.00  0.00    +0.000 S 
ATOM      2  N   UNL     1      49.838 -12.470  32.170  0.00  0.00    +0.000 N 
ATOM      3  N   UNL     1      50.855 -12.224  34.399  0.00  0.00    +0.000 N 
ATOM      4  N   UNL     1      50.500 -10.458  31.369  0.00  0.00    +0.000 NA
ATOM      5  N   UNL     1      52.082 -10.224  34.782  0.00  0.00    +0.000 NA
ATOM      6  C   UNL     1      50.550 -11.826  33.150  0.00  0.00    +0.000 A 
ATOM      7  C   UNL     1      49.831 -11.566  31.119  0.00  0.00    +0.000 A 
ATOM      8  C   UNL     1      50.966 -10.617  32.652  0.00  0.00    +0.000 A 
ATOM      9  C   UNL     1      51.780  -9.748  33.504  0.00  0.00    +0.000 A 
ATOM     10  C   UNL     1      51.623 -11.383  35.156  0.00  0.00    +0.000 A 
ATOM     11  H   UNL     1      50.587 -13.134  34.768  0.00  0.00    +0.000 HD
ATOM     12  N   UNL     1      51.897 -11.865  36.392  0.00  0.00    +0.000 N 
ATOM     13  H   UNL     1      51.094 -12.234  36.883  0.00  0.00    +0.000 HD
ATOM     14  H   UNL     1      52.365 -11.157  36.953  0.00  0.00    +0.000 HD
ENDROOT
BRANCH   2  15
ATOM     15  C1* UNL     1      49.257 -13.723  32.150  0.00  0.00    +0.000 A 
ATOM     16  O4* UNL     1      49.863 -14.839  32.774  0.00  0.00    +0.000 OA
ATOM     17  C4* UNL     1      49.058 -15.973  32.580  0.00  0.00    +0.000 A 
ATOM     18  C3* UNL     1      47.905 -15.579  31.822  0.00  0.00    +0.000 A 
ATOM     19  C2* UNL     1      48.021 -14.177  31.562  0.00  0.00    +0.000 A 
BRANCH  18  20
ATOM     20  O3* UNL     1      47.274 -16.398  30.925  0.00  0.00    +0.000 OA
ATOM     21  H3* UNL     1      47.827 -17.166  30.690  0.00  0.00    +0.000 HD
ENDBRANCH  18  20
BRANCH  19  22
ATOM     22  O2* UNL     1      47.490 -13.630  30.426  0.00  0.00    +0.000 OA
ATOM     23  H2* UNL     1      46.657 -14.093  30.203  0.00  0.00    +0.000 HD
ENDBRANCH  19  22
BRANCH  17  24
ATOM     24  C5* UNL     1      49.501 -17.279  32.860  0.00  0.00    +0.000 C 
BRANCH  24  25
ATOM     25  O5* UNL     1      49.897 -18.519  33.127  0.00  0.00    +0.000 OA
ATOM     26  H5* UNL     1      50.398 -18.887  32.378  0.00  0.00    +0.000 HD
ENDBRANCH  24  25
ENDBRANCH  17  24
ENDBRANCH   2  15
TORSDOF 5
ENDMDL
MODEL 7
REMARK VINA RESULT:      -4.7     23.558     25.686
REMARK  Name = Thioguanosine.pdbqt.pdb
REMARK  5 active torsions:
REMARK  status: ('A' for Active; 'I' for Inactive)
REMARK    1  A    between atoms: N_2  and  C1*_12
REMARK    2  A    between atoms: C4*_14  and  C5*_17
REMARK    3  A    between atoms: C3*_15  and  O3*_20
REMARK    4  A    between atoms: C2*_16  and  O2*_22
REMARK    5  A    between atoms: C5*_17  and  O5*_18
REMARK                            x       y       z     vdW  Elec       q    Type
REMARK                         _______ _______ _______ _____ _____    ______ ____
ROOT
ATOM      1  S   UNL     1      32.860  29.097  26.588  0.00  0.00    +0.000 S 
ATOM      2  N   UNL     1      31.042  24.926  28.403  0.00  0.00    +0.000 N 
ATOM      3  N   UNL     1      30.281  26.971  29.541  0.00  0.00    +0.000 N 
ATOM      4  N   UNL     1      32.334  25.963  26.860  0.00  0.00    +0.000 NA
ATOM      5  N   UNL     1      31.168  29.022  28.727  0.00  0.00    +0.000 NA
ATOM      6  C   UNL     1      30.969  26.279  28.615  0.00  0.00    +0.000 A 
ATOM      7  C   UNL     1      31.877  24.808  27.302  0.00  0.00    +0.000 A 
ATOM      8  C   UNL     1      31.770  26.900  27.691  0.00  0.00    +0.000 A 
ATOM      9  C   UNL     1      31.888  28.359  27.731  0.00  0.00    +0.000 A 
ATOM     10  C   UNL     1      30.428  28.332  29.545  0.00  0.00    +0.000 A 
ATOM     11  H   UNL     1      29.714  26.523  30.257  0.00  0.00    +0.000 HD
ATOM     12  N   UNL     1      29.715  28.951  30.516  0.00  0.00    +0.000 N 
ATOM     13  H   UNL     1      28.753  28.646  30.586  0.00  0.00    +0.000 HD
ATOM     14  H   UNL     1      29.762  29.961  30.402  0.00  0.00    +0.000 HD
ENDROOT
BRANCH   2  15
ATOM     15  C1* UNL     1      30.470  23.871  29.087  0.00  0.00    +0.000 A 
ATOM     16  O4* UNL     1      29.076  23.802  29.325  0.00  0.00    +0.000 OA
ATOM     17  C4* UNL     1      28.788  22.634  30.052  0.00  0.00    +0.000 A 
ATOM     18  C3* UNL     1      30.019  21.933  30.280  0.00  0.00    +0.000 A 
ATOM     19  C2* UNL     1      31.066  22.695  29.672  0.00  0.00    +0.000 A 
BRANCH  18  20
ATOM     20  O3* UNL     1      30.268  21.188  31.401  0.00  0.00    +0.000 OA
ATOM     21  H3* UNL     1      30.463  20.259  31.178  0.00  0.00    +0.000 HD
ENDBRANCH  18  20
BRANCH  19  22
ATOM     22  O2* UNL     1      32.333  22.679  30.188  0.00  0.00    +0.000 OA
ATOM     23  H2* UNL     1      32.934  22.236  29.556  0.00  0.00    +0.000 HD
ENDBRANCH  19  22
BRANCH  17  24
ATOM     24  C5* UNL     1      27.539  22.402  30.656  0.00  0.00    +0.000 C 
BRANCH  24  25
ATOM     25  O5* UNL     1      26.369  22.169  31.243  0.00  0.00    +0.000 OA
ATOM     26  H5* UNL     1      25.849  22.989  31.307  0.00  0.00    +0.000 HD
ENDBRANCH  24  25
ENDBRANCH  17  24
ENDBRANCH   2  15
TORSDOF 5
ENDMDL
MODEL 8
REMARK VINA RESULT:      -4.6     25.900     27.500
REMARK  Name = Thioguanosine.pdbqt.pdb
REMARK  5 active torsions:
REMARK  status: ('A' for Active; 'I' for Inactive)
REMARK    1  A    between atoms: N_2  and  C1*_12
REMARK    2  A    between atoms: C4*_14  and  C5*_17
REMARK    3  A    between atoms: C3*_15  and  O3*_20
REMARK    4  A    between atoms: C2*_16  and  O2*_22
REMARK    5  A    between atoms: C5*_17  and  O5*_18
REMARK                            x       y       z     vdW  Elec       q    Type
REMARK                         _______ _______ _______ _____ _____    ______ ____
ROOT
ATOM      1  S   UNL     1      40.035  -7.654  44.545  0.00  0.00    +0.000 S 
ATOM      2  N   UNL     1      41.975  -3.391  45.977  0.00  0.00    +0.000 N 
ATOM      3  N   UNL     1      43.525  -4.888  44.786  0.00  0.00    +0.000 N 
ATOM      4  N   UNL     1      40.166  -4.746  45.846  0.00  0.00    +0.000 NA
ATOM      5  N   UNL     1      42.645  -6.990  44.107  0.00  0.00    +0.000 NA
ATOM      6  C   UNL     1      42.338  -4.535  45.312  0.00  0.00    +0.000 A 
ATOM      7  C   UNL     1      40.631  -3.582  46.255  0.00  0.00    +0.000 A 
ATOM      8  C   UNL     1      41.243  -5.360  45.254  0.00  0.00    +0.000 A 
ATOM      9  C   UNL     1      41.384  -6.670  44.615  0.00  0.00    +0.000 A 
ATOM     10  C   UNL     1      43.611  -6.124  44.205  0.00  0.00    +0.000 A 
ATOM     11  H   UNL     1      44.354  -4.303  44.855  0.00  0.00    +0.000 HD
ATOM     12  N   UNL     1      44.841  -6.408  43.715  0.00  0.00    +0.000 N 
ATOM     13  H   UNL     1      45.250  -5.668  43.159  0.00  0.00    +0.000 HD
ATOM     14  H   UNL     1      44.823  -7.280  43.192  0.00  0.00    +0.000 HD
ENDROOT
BRANCH   2  15
ATOM     15  C1* UNL     1      42.717  -2.283  46.340  0.00  0.00    +0.000 A 
ATOM     16  O4* UNL     1      43.553  -2.284  47.481  0.00  0.00    +0.000 OA
ATOM     17  C4* UNL     1      44.166  -1.026  47.608  0.00  0.00    +0.000 A 
ATOM     18  C3* UNL     1      43.721  -0.200  46.522  0.00  0.00    +0.000 A 
ATOM     19  C2* UNL     1      42.828  -0.983  45.725  0.00  0.00    +0.000 A 
BRANCH  18  20
ATOM     20  O3* UNL     1      43.551   1.154  46.623  0.00  0.00    +0.000 OA
ATOM     21  H3* UNL     1      42.658   1.381  46.940  0.00  0.00    +0.000 HD
ENDBRANCH  18  20
BRANCH  19  22
ATOM     22  O2* UNL     1      41.802  -0.392  45.039  0.00  0.00    +0.000 OA
ATOM     23  H2* UNL     1      41.857   0.579  45.150  0.00  0.00    +0.000 HD
ENDBRANCH  19  22
BRANCH  17  24
ATOM     24  C5* UNL     1      44.855  -0.628  48.768  0.00  0.00    +0.000 C 
BRANCH  24  25
ATOM     25  O5* UNL     1      45.516  -0.272  49.865  0.00  0.00    +0.000 OA
ATOM     26  H5* UNL     1      45.456  -0.969  50.542  0.00  0.00    +0.000 HD
ENDBRANCH  24  25
ENDBRANCH  17  24
ENDBRANCH   2  15
TORSDOF 5
ENDMDL
MODEL 9
REMARK VINA RESULT:      -4.6     13.029     13.958
REMARK  Name = Thioguanosine.pdbqt.pdb
REMARK  5 active torsions:
REMARK  status: ('A' for Active; 'I' for Inactive)
REMARK    1  A    between atoms: N_2  and  C1*_12
REMARK    2  A    between atoms: C4*_14  and  C5*_17
REMARK    3  A    between atoms: C3*_15  and  O3*_20
REMARK    4  A    between atoms: C2*_16  and  O2*_22
REMARK    5  A    between atoms: C5*_17  and  O5*_18
REMARK                            x       y       z     vdW  Elec       q    Type
REMARK                         _______ _______ _______ _____ _____    ______ ____
ROOT
ATOM      1  S   UNL     1      11.961  -7.821  37.297  0.00  0.00    +0.000 S 
ATOM      2  N   UNL     1      16.549  -8.278  38.949  0.00  0.00    +0.000 N 
ATOM      3  N   UNL     1      16.355  -7.410  36.654  0.00  0.00    +0.000 N 
ATOM      4  N   UNL     1      14.326  -8.468  39.335  0.00  0.00    +0.000 NA
ATOM      5  N   UNL     1      14.149  -7.211  35.787  0.00  0.00    +0.000 NA
ATOM      6  C   UNL     1      15.877  -7.867  37.826  0.00  0.00    +0.000 A 
ATOM      7  C   UNL     1      15.537  -8.611  39.836  0.00  0.00    +0.000 A 
ATOM      8  C   UNL     1      14.532  -8.004  38.059  0.00  0.00    +0.000 A 
ATOM      9  C   UNL     1      13.595  -7.658  36.988  0.00  0.00    +0.000 A 
ATOM     10  C   UNL     1      15.442  -7.106  35.681  0.00  0.00    +0.000 A 
ATOM     11  H   UNL     1      17.349  -7.340  36.453  0.00  0.00    +0.000 HD
ATOM     12  N   UNL     1      16.004  -6.669  34.528  0.00  0.00    +0.000 N 
ATOM     13  H   UNL     1      16.716  -5.961  34.653  0.00  0.00    +0.000 HD
ATOM     14  H   UNL     1      15.287  -6.345  33.883  0.00  0.00    +0.000 HD
ENDROOT
BRANCH   2  15
ATOM     15  C1* UNL     1      17.903  -8.383  39.205  0.00  0.00    +0.000 A 
ATOM     16  O4* UNL     1      18.502  -7.768  40.330  0.00  0.00    +0.000 OA
ATOM     17  C4* UNL     1      19.881  -8.033  40.324  0.00  0.00    +0.000 A 
ATOM     18  C3* UNL     1      20.176  -8.842  39.176  0.00  0.00    +0.000 A 
ATOM     19  C2* UNL     1      18.945  -9.071  38.484  0.00  0.00    +0.000 A 
BRANCH  18  20
ATOM     20  O3* UNL     1      21.355  -8.771  38.484  0.00  0.00    +0.000 OA
ATOM     21  H3* UNL     1      22.124  -8.773  39.084  0.00  0.00    +0.000 HD
ENDBRANCH  18  20
BRANCH  19  22
ATOM     22  O2* UNL     1      18.927  -9.239  37.126  0.00  0.00    +0.000 OA
ATOM     23  H2* UNL     1      18.350  -9.997  36.902  0.00  0.00    +0.000 HD
ENDBRANCH  19  22
BRANCH  17  24
ATOM     24  C5* UNL     1      20.790  -7.360  41.161  0.00  0.00    +0.000 C 
BRANCH  24  25
ATOM     25  O5* UNL     1      21.666  -6.738  41.943  0.00  0.00    +0.000 OA
ATOM     26  H5* UNL     1      22.571  -7.044  41.755  0.00  0.00    +0.000 HD
ENDBRANCH  24  25
ENDBRANCH  17  24
ENDBRANCH   2  15
TORSDOF 5
ENDMDL
