MODEL 1
REMARK VINA RESULT:      -6.1      0.000      0.000
REMARK  Name = Trichostatin_A.pdbqt.pdb
REMARK  6 active torsions:
REMARK  status: ('A' for Active; 'I' for Inactive)
REMARK    1  A    between atoms: C_1  and  C_15
REMARK    2  A    between atoms: C_4  and  C_6
REMARK    3  A    between atoms: C_7  and  C_10
REMARK    4  A    between atoms: N_9  and  O_12
REMARK    5  A    between atoms: C_15  and  C_16
REMARK    6  A    between atoms: C_17  and  N_22
REMARK                            x       y       z     vdW  Elec       q    Type
REMARK                         _______ _______ _______ _____ _____    ______ ____
ROOT
ATOM      1  C   UNL     1      19.564  12.594  20.725  0.00  0.00    +0.000 C 
ATOM      2  C   UNL     1      18.231  13.313  20.774  0.00  0.00    +0.000 C 
ATOM      3  C   UNL     1      20.434  12.974  19.674  0.00  0.00    +0.000 C 
ATOM      4  C   UNL     1      21.262  13.279  18.730  0.00  0.00    +0.000 C 
ATOM      5  C   UNL     1      22.357  14.265  19.000  0.00  0.00    +0.000 C 
ENDROOT
BRANCH   4   6
ATOM      6  C   UNL     1      21.261  12.545  17.522  0.00  0.00    +0.000 C 
ATOM      7  C   UNL     1      21.264  11.921  16.495  0.00  0.00    +0.000 C 
BRANCH   7  10
ATOM      8  O   UNL     1      22.163  10.373  15.032  0.00  0.00    +0.000 OA
ATOM      9  N   UNL     1      20.216  11.404  14.419  0.00  0.00    +0.000 N 
ATOM     10  C   UNL     1      21.261  11.169  15.268  0.00  0.00    +0.000 C 
ATOM     11  H   UNL     1      19.467  12.063  14.595  0.00  0.00    +0.000 HD
BRANCH   9  12
ATOM     12  O   UNL     1      20.187  10.691  13.203  0.00  0.00    +0.000 OA
ATOM     13  H   UNL     1      19.893   9.796  13.481  0.00  0.00    +0.000 HD
ENDBRANCH   9  12
ENDBRANCH   7  10
ENDBRANCH   4   6
BRANCH   1  15
ATOM     14  O   UNL     1      20.411  11.458  22.632  0.00  0.00    +0.000 OA
ATOM     15  C   UNL     1      19.873  11.372  21.528  0.00  0.00    +0.000 C 
BRANCH  15  16
ATOM     16  C   UNL     1      19.525  10.033  21.010  0.00  0.00    +0.000 A 
ATOM     17  C   UNL     1      18.812   7.420  20.191  0.00  0.00    +0.000 A 
ATOM     18  C   UNL     1      18.495   9.844  20.094  0.00  0.00    +0.000 A 
ATOM     19  C   UNL     1      20.183   8.928  21.543  0.00  0.00    +0.000 A 
ATOM     20  C   UNL     1      18.157   8.554  19.684  0.00  0.00    +0.000 A 
ATOM     21  C   UNL     1      19.836   7.643  21.125  0.00  0.00    +0.000 A 
BRANCH  17  22
ATOM     22  N   UNL     1      18.475   6.114  19.757  0.00  0.00    +0.000 N 
ATOM     23  C   UNL     1      19.367   5.360  18.890  0.00  0.00    +0.000 C 
ATOM     24  C   UNL     1      17.098   5.649  19.779  0.00  0.00    +0.000 C 
ENDBRANCH  17  22
ENDBRANCH  15  16
ENDBRANCH   1  15
TORSDOF 6
ENDMDL
MODEL 2
REMARK VINA RESULT:      -6.1     19.146     22.141
REMARK  Name = Trichostatin_A.pdbqt.pdb
REMARK  6 active torsions:
REMARK  status: ('A' for Active; 'I' for Inactive)
REMARK    1  A    between atoms: C_1  and  C_15
REMARK    2  A    between atoms: C_4  and  C_6
REMARK    3  A    between atoms: C_7  and  C_10
REMARK    4  A    between atoms: N_9  and  O_12
REMARK    5  A    between atoms: C_15  and  C_16
REMARK    6  A    between atoms: C_17  and  N_22
REMARK                            x       y       z     vdW  Elec       q    Type
REMARK                         _______ _______ _______ _____ _____    ______ ____
ROOT
ATOM      1  C   UNL     1      32.821  -0.859   2.422  0.00  0.00    +0.000 C 
ATOM      2  C   UNL     1      33.726  -1.921   1.832  0.00  0.00    +0.000 C 
ATOM      3  C   UNL     1      32.734   0.353   1.696  0.00  0.00    +0.000 C 
ATOM      4  C   UNL     1      32.625   1.481   1.075  0.00  0.00    +0.000 C 
ATOM      5  C   UNL     1      31.468   1.704   0.150  0.00  0.00    +0.000 C 
ENDROOT
BRANCH   4   6
ATOM      6  C   UNL     1      33.470   2.563   1.415  0.00  0.00    +0.000 C 
ATOM      7  C   UNL     1      34.190   3.482   1.700  0.00  0.00    +0.000 C 
BRANCH   7  10
ATOM      8  O   UNL     1      35.948   4.438   2.857  0.00  0.00    +0.000 OA
ATOM      9  N   UNL     1      34.783   5.770   1.409  0.00  0.00    +0.000 N 
ATOM     10  C   UNL     1      35.046   4.587   2.041  0.00  0.00    +0.000 C 
ATOM     11  H   UNL     1      34.038   5.912   0.738  0.00  0.00    +0.000 HD
BRANCH   9  12
ATOM     12  O   UNL     1      35.597   6.877   1.727  0.00  0.00    +0.000 OA
ATOM     13  H   UNL     1      35.129   7.623   1.294  0.00  0.00    +0.000 HD
ENDBRANCH   9  12
ENDBRANCH   7  10
ENDBRANCH   4   6
BRANCH   1  15
ATOM     14  O   UNL     1      32.985  -1.195   4.768  0.00  0.00    +0.000 OA
ATOM     15  C   UNL     1      32.264  -0.926   3.807  0.00  0.00    +0.000 C 
BRANCH  15  16
ATOM     16  C   UNL     1      30.832  -0.657   4.048  0.00  0.00    +0.000 A 
ATOM     17  C   UNL     1      28.106  -0.224   4.672  0.00  0.00    +0.000 A 
ATOM     18  C   UNL     1      30.331   0.638   4.131  0.00  0.00    +0.000 A 
ATOM     19  C   UNL     1      29.991  -1.738   4.302  0.00  0.00    +0.000 A 
ATOM     20  C   UNL     1      28.983   0.845   4.426  0.00  0.00    +0.000 A 
ATOM     21  C   UNL     1      28.645  -1.518   4.596  0.00  0.00    +0.000 A 
BRANCH  17  22
ATOM     22  N   UNL     1      26.734  -0.007   4.954  0.00  0.00    +0.000 N 
ATOM     23  C   UNL     1      25.965   0.982   4.216  0.00  0.00    +0.000 C 
ATOM     24  C   UNL     1      26.158  -0.412   6.226  0.00  0.00    +0.000 C 
ENDBRANCH  17  22
ENDBRANCH  15  16
ENDBRANCH   1  15
TORSDOF 6
ENDMDL
MODEL 3
REMARK VINA RESULT:      -5.9     36.875     39.795
REMARK  Name = Trichostatin_A.pdbqt.pdb
REMARK  6 active torsions:
REMARK  status: ('A' for Active; 'I' for Inactive)
REMARK    1  A    between atoms: C_1  and  C_15
REMARK    2  A    between atoms: C_4  and  C_6
REMARK    3  A    between atoms: C_7  and  C_10
REMARK    4  A    between atoms: N_9  and  O_12
REMARK    5  A    between atoms: C_15  and  C_16
REMARK    6  A    between atoms: C_17  and  N_22
REMARK                            x       y       z     vdW  Elec       q    Type
REMARK                         _______ _______ _______ _____ _____    ______ ____
ROOT
ATOM      1  C   UNL     1      43.722 -15.717  -3.153  0.00  0.00    +0.000 C 
ATOM      2  C   UNL     1      44.655 -15.849  -4.339  0.00  0.00    +0.000 C 
ATOM      3  C   UNL     1      42.907 -16.842  -2.879  0.00  0.00    +0.000 C 
ATOM      4  C   UNL     1      42.136 -17.838  -2.591  0.00  0.00    +0.000 C 
ATOM      5  C   UNL     1      42.555 -18.812  -1.532  0.00  0.00    +0.000 C 
ENDROOT
BRANCH   4   6
ATOM      6  C   UNL     1      40.827 -17.899  -3.121  0.00  0.00    +0.000 C 
ATOM      7  C   UNL     1      39.712 -17.952  -3.568  0.00  0.00    +0.000 C 
BRANCH   7  10
ATOM      8  O   UNL     1      38.096 -17.383  -5.120  0.00  0.00    +0.000 OA
ATOM      9  N   UNL     1      37.485 -18.782  -3.417  0.00  0.00    +0.000 N 
ATOM     10  C   UNL     1      38.378 -18.008  -4.104  0.00  0.00    +0.000 C 
ATOM     11  H   UNL     1      37.699 -19.299  -2.573  0.00  0.00    +0.000 HD
BRANCH   9  12
ATOM     12  O   UNL     1      36.165 -18.852  -3.910  0.00  0.00    +0.000 OA
ATOM     13  H   UNL     1      35.888 -17.910  -3.927  0.00  0.00    +0.000 HD
ENDBRANCH   9  12
ENDBRANCH   7  10
ENDBRANCH   4   6
BRANCH   1  15
ATOM     14  O   UNL     1      44.294 -13.536  -2.404  0.00  0.00    +0.000 OA
ATOM     15  C   UNL     1      43.440 -14.421  -2.464  0.00  0.00    +0.000 C 
BRANCH  15  16
ATOM     16  C   UNL     1      42.118 -14.175  -1.852  0.00  0.00    +0.000 A 
ATOM     17  C   UNL     1      39.664 -13.571  -0.579  0.00  0.00    +0.000 A 
ATOM     18  C   UNL     1      41.030 -13.741  -2.602  0.00  0.00    +0.000 A 
ATOM     19  C   UNL     1      42.002 -14.283  -0.469  0.00  0.00    +0.000 A 
ATOM     20  C   UNL     1      39.819 -13.457  -1.970  0.00  0.00    +0.000 A 
ATOM     21  C   UNL     1      40.785 -13.996   0.152  0.00  0.00    +0.000 A 
BRANCH  17  22
ATOM     22  N   UNL     1      38.426 -13.297   0.055  0.00  0.00    +0.000 N 
ATOM     23  C   UNL     1      38.275 -13.441   1.493  0.00  0.00    +0.000 C 
ATOM     24  C   UNL     1      37.183 -13.294  -0.700  0.00  0.00    +0.000 C 
ENDBRANCH  17  22
ENDBRANCH  15  16
ENDBRANCH   1  15
TORSDOF 6
ENDMDL
MODEL 4
REMARK VINA RESULT:      -5.6     38.701     41.628
REMARK  Name = Trichostatin_A.pdbqt.pdb
REMARK  6 active torsions:
REMARK  status: ('A' for Active; 'I' for Inactive)
REMARK    1  A    between atoms: C_1  and  C_15
REMARK    2  A    between atoms: C_4  and  C_6
REMARK    3  A    between atoms: C_7  and  C_10
REMARK    4  A    between atoms: N_9  and  O_12
REMARK    5  A    between atoms: C_15  and  C_16
REMARK    6  A    between atoms: C_17  and  N_22
REMARK                            x       y       z     vdW  Elec       q    Type
REMARK                         _______ _______ _______ _____ _____    ______ ____
ROOT
ATOM      1  C   UNL     1      42.197 -19.821  -3.965  0.00  0.00    +0.000 C 
ATOM      2  C   UNL     1      43.039 -20.986  -4.446  0.00  0.00    +0.000 C 
ATOM      3  C   UNL     1      42.311 -18.626  -4.715  0.00  0.00    +0.000 C 
ATOM      4  C   UNL     1      42.383 -17.509  -5.360  0.00  0.00    +0.000 C 
ATOM      5  C   UNL     1      41.353 -17.191  -6.401  0.00  0.00    +0.000 C 
ENDROOT
BRANCH   4   6
ATOM      6  C   UNL     1      43.299 -16.512  -4.954  0.00  0.00    +0.000 C 
ATOM      7  C   UNL     1      44.079 -15.663  -4.611  0.00  0.00    +0.000 C 
BRANCH   7  10
ATOM      8  O   UNL     1      46.000 -14.404  -4.873  0.00  0.00    +0.000 OA
ATOM      9  N   UNL     1      44.704 -13.992  -3.034  0.00  0.00    +0.000 N 
ATOM     10  C   UNL     1      45.006 -14.644  -4.197  0.00  0.00    +0.000 C 
ATOM     11  H   UNL     1      43.891 -14.182  -2.460  0.00  0.00    +0.000 HD
BRANCH   9  12
ATOM     12  O   UNL     1      45.597 -12.993  -2.593  0.00  0.00    +0.000 OA
ATOM     13  H   UNL     1      45.347 -12.218  -3.142  0.00  0.00    +0.000 HD
ENDBRANCH   9  12
ENDBRANCH   7  10
ENDBRANCH   4   6
BRANCH   1  15
ATOM     14  O   UNL     1      41.210 -20.839  -2.059  0.00  0.00    +0.000 OA
ATOM     15  C   UNL     1      41.501 -19.795  -2.643  0.00  0.00    +0.000 C 
BRANCH  15  16
ATOM     16  C   UNL     1      41.160 -18.507  -2.006  0.00  0.00    +0.000 A 
ATOM     17  C   UNL     1      40.605 -15.955  -0.916  0.00  0.00    +0.000 A 
ATOM     18  C   UNL     1      39.848 -18.051  -1.926  0.00  0.00    +0.000 A 
ATOM     19  C   UNL     1      42.200 -17.688  -1.573  0.00  0.00    +0.000 A 
ATOM     20  C   UNL     1      39.580 -16.797  -1.377  0.00  0.00    +0.000 A 
ATOM     21  C   UNL     1      41.919 -16.437  -1.025  0.00  0.00    +0.000 A 
BRANCH  17  22
ATOM     22  N   UNL     1      40.324 -14.689  -0.343  0.00  0.00    +0.000 N 
ATOM     23  C   UNL     1      41.374 -13.701  -0.162  0.00  0.00    +0.000 C 
ATOM     24  C   UNL     1      39.135 -14.481   0.467  0.00  0.00    +0.000 C 
ENDBRANCH  17  22
ENDBRANCH  15  16
ENDBRANCH   1  15
TORSDOF 6
ENDMDL
MODEL 5
REMARK VINA RESULT:      -5.6     35.343     38.166
REMARK  Name = Trichostatin_A.pdbqt.pdb
REMARK  6 active torsions:
REMARK  status: ('A' for Active; 'I' for Inactive)
REMARK    1  A    between atoms: C_1  and  C_15
REMARK    2  A    between atoms: C_4  and  C_6
REMARK    3  A    between atoms: C_7  and  C_10
REMARK    4  A    between atoms: N_9  and  O_12
REMARK    5  A    between atoms: C_15  and  C_16
REMARK    6  A    between atoms: C_17  and  N_22
REMARK                            x       y       z     vdW  Elec       q    Type
REMARK                         _______ _______ _______ _____ _____    ______ ____
ROOT
ATOM      1  C   UNL     1      40.291 -14.724  -0.228  0.00  0.00    +0.000 C 
ATOM      2  C   UNL     1      40.264 -13.965   1.083  0.00  0.00    +0.000 C 
ATOM      3  C   UNL     1      41.574 -14.988  -0.764  0.00  0.00    +0.000 C 
ATOM      4  C   UNL     1      42.721 -15.248  -1.299  0.00  0.00    +0.000 C 
ATOM      5  C   UNL     1      43.354 -16.587  -1.073  0.00  0.00    +0.000 C 
ENDROOT
BRANCH   4   6
ATOM      6  C   UNL     1      43.280 -14.360  -2.247  0.00  0.00    +0.000 C 
ATOM      7  C   UNL     1      43.757 -13.604  -3.051  0.00  0.00    +0.000 C 
BRANCH   7  10
ATOM      8  O   UNL     1      43.901 -12.681  -5.165  0.00  0.00    +0.000 OA
ATOM      9  N   UNL     1      45.352 -11.915  -3.572  0.00  0.00    +0.000 N 
ATOM     10  C   UNL     1      44.330 -12.706  -4.017  0.00  0.00    +0.000 C 
ATOM     11  H   UNL     1      45.724 -11.928  -2.630  0.00  0.00    +0.000 HD
BRANCH   9  12
ATOM     12  O   UNL     1      45.944 -11.028  -4.496  0.00  0.00    +0.000 OA
ATOM     13  H   UNL     1      46.869 -11.355  -4.550  0.00  0.00    +0.000 HD
ENDBRANCH   9  12
ENDBRANCH   7  10
ENDBRANCH   4   6
BRANCH   1  15
ATOM     14  O   UNL     1      38.557 -16.064  -1.146  0.00  0.00    +0.000 OA
ATOM     15  C   UNL     1      39.081 -14.952  -1.075  0.00  0.00    +0.000 C 
BRANCH  15  16
ATOM     16  C   UNL     1      38.484 -13.836  -1.837  0.00  0.00    +0.000 A 
ATOM     17  C   UNL     1      37.343 -11.599  -3.141  0.00  0.00    +0.000 A 
ATOM     18  C   UNL     1      39.149 -13.233  -2.900  0.00  0.00    +0.000 A 
ATOM     19  C   UNL     1      37.268 -13.315  -1.401  0.00  0.00    +0.000 A 
ATOM     20  C   UNL     1      38.575 -12.138  -3.546  0.00  0.00    +0.000 A 
ATOM     21  C   UNL     1      36.705 -12.220  -2.056  0.00  0.00    +0.000 A 
BRANCH  17  22
ATOM     22  N   UNL     1      36.758 -10.497  -3.815  0.00  0.00    +0.000 N 
ATOM     23  C   UNL     1      36.581  -9.220  -3.144  0.00  0.00    +0.000 C 
ATOM     24  C   UNL     1      35.935 -10.693  -4.997  0.00  0.00    +0.000 C 
ENDBRANCH  17  22
ENDBRANCH  15  16
ENDBRANCH   1  15
TORSDOF 6
ENDMDL
MODEL 6
REMARK VINA RESULT:      -5.6      1.752      2.457
REMARK  Name = Trichostatin_A.pdbqt.pdb
REMARK  6 active torsions:
REMARK  status: ('A' for Active; 'I' for Inactive)
REMARK    1  A    between atoms: C_1  and  C_15
REMARK    2  A    between atoms: C_4  and  C_6
REMARK    3  A    between atoms: C_7  and  C_10
REMARK    4  A    between atoms: N_9  and  O_12
REMARK    5  A    between atoms: C_15  and  C_16
REMARK    6  A    between atoms: C_17  and  N_22
REMARK                            x       y       z     vdW  Elec       q    Type
REMARK                         _______ _______ _______ _____ _____    ______ ____
ROOT
ATOM      1  C   UNL     1      18.961  14.337  20.699  0.00  0.00    +0.000 C 
ATOM      2  C   UNL     1      17.826  15.154  20.116  0.00  0.00    +0.000 C 
ATOM      3  C   UNL     1      20.141  14.273  19.919  0.00  0.00    +0.000 C 
ATOM      4  C   UNL     1      21.238  14.177  19.244  0.00  0.00    +0.000 C 
ATOM      5  C   UNL     1      22.382  15.091  19.561  0.00  0.00    +0.000 C 
ENDROOT
BRANCH   4   6
ATOM      6  C   UNL     1      21.431  13.095  18.354  0.00  0.00    +0.000 C 
ATOM      7  C   UNL     1      21.592  12.174  17.599  0.00  0.00    +0.000 C 
BRANCH   7  10
ATOM      8  O   UNL     1      20.823  10.433  16.287  0.00  0.00    +0.000 OA
ATOM      9  N   UNL     1      23.077  10.818  16.324  0.00  0.00    +0.000 N 
ATOM     10  C   UNL     1      21.786  11.076  16.688  0.00  0.00    +0.000 C 
ATOM     11  H   UNL     1      23.884  11.334  16.652  0.00  0.00    +0.000 HD
BRANCH   9  12
ATOM     12  O   UNL     1      23.304   9.742  15.439  0.00  0.00    +0.000 OA
ATOM     13  H   UNL     1      23.651   9.041  16.033  0.00  0.00    +0.000 HD
ENDBRANCH   9  12
ENDBRANCH   7  10
ENDBRANCH   4   6
BRANCH   1  15
ATOM     14  O   UNL     1      18.631  13.860  23.003  0.00  0.00    +0.000 OA
ATOM     15  C   UNL     1      18.803  13.418  21.867  0.00  0.00    +0.000 C 
BRANCH  15  16
ATOM     16  C   UNL     1      18.838  11.954  21.672  0.00  0.00    +0.000 A 
ATOM     17  C   UNL     1      18.826   9.176  21.135  0.00  0.00    +0.000 A 
ATOM     18  C   UNL     1      20.035  11.249  21.611  0.00  0.00    +0.000 A 
ATOM     19  C   UNL     1      17.636  11.291  21.439  0.00  0.00    +0.000 A 
ATOM     20  C   UNL     1      20.022   9.877  21.359  0.00  0.00    +0.000 A 
ATOM     21  C   UNL     1      17.636   9.918  21.188  0.00  0.00    +0.000 A 
BRANCH  17  22
ATOM     22  N   UNL     1      18.819   7.779  20.897  0.00  0.00    +0.000 N 
ATOM     23  C   UNL     1      18.257   6.857  21.870  0.00  0.00    +0.000 C 
ATOM     24  C   UNL     1      19.725   7.179  19.930  0.00  0.00    +0.000 C 
ENDBRANCH  17  22
ENDBRANCH  15  16
ENDBRANCH   1  15
TORSDOF 6
ENDMDL
MODEL 7
REMARK VINA RESULT:      -5.5     32.778     34.617
REMARK  Name = Trichostatin_A.pdbqt.pdb
REMARK  6 active torsions:
REMARK  status: ('A' for Active; 'I' for Inactive)
REMARK    1  A    between atoms: C_1  and  C_15
REMARK    2  A    between atoms: C_4  and  C_6
REMARK    3  A    between atoms: C_7  and  C_10
REMARK    4  A    between atoms: N_9  and  O_12
REMARK    5  A    between atoms: C_15  and  C_16
REMARK    6  A    between atoms: C_17  and  N_22
REMARK                            x       y       z     vdW  Elec       q    Type
REMARK                         _______ _______ _______ _____ _____    ______ ____
ROOT
ATOM      1  C   UNL     1      48.991  -0.948  29.785  0.00  0.00    +0.000 C 
ATOM      2  C   UNL     1      47.730  -0.956  28.945  0.00  0.00    +0.000 C 
ATOM      3  C   UNL     1      49.640  -2.196  29.940  0.00  0.00    +0.000 C 
ATOM      4  C   UNL     1      50.266  -3.312  30.117  0.00  0.00    +0.000 C 
ATOM      5  C   UNL     1      51.435  -3.649  29.243  0.00  0.00    +0.000 C 
ENDROOT
BRANCH   4   6
ATOM      6  C   UNL     1      49.983  -4.113  31.248  0.00  0.00    +0.000 C 
ATOM      7  C   UNL     1      49.746  -4.796  32.208  0.00  0.00    +0.000 C 
BRANCH   7  10
ATOM      8  O   UNL     1      50.063  -6.660  33.537  0.00  0.00    +0.000 OA
ATOM      9  N   UNL     1      48.506  -5.129  34.214  0.00  0.00    +0.000 N 
ATOM     10  C   UNL     1      49.462  -5.607  33.363  0.00  0.00    +0.000 C 
ATOM     11  H   UNL     1      47.994  -4.265  34.081  0.00  0.00    +0.000 HD
BRANCH   9  12
ATOM     12  O   UNL     1      48.196  -5.904  35.352  0.00  0.00    +0.000 OA
ATOM     13  H   UNL     1      49.011  -5.832  35.893  0.00  0.00    +0.000 HD
ENDBRANCH   9  12
ENDBRANCH   7  10
ENDBRANCH   4   6
BRANCH   1  15
ATOM     14  O   UNL     1      49.553   0.073  31.855  0.00  0.00    +0.000 OA
ATOM     15  C   UNL     1      49.406   0.205  30.640  0.00  0.00    +0.000 C 
BRANCH  15  16
ATOM     16  C   UNL     1      49.661   1.528  30.035  0.00  0.00    +0.000 A 
ATOM     17  C   UNL     1      50.188   4.126  29.043  0.00  0.00    +0.000 A 
ATOM     18  C   UNL     1      50.683   1.731  29.113  0.00  0.00    +0.000 A 
ATOM     19  C   UNL     1      48.918   2.616  30.488  0.00  0.00    +0.000 A 
ATOM     20  C   UNL     1      50.930   3.012  28.619  0.00  0.00    +0.000 A 
ATOM     21  C   UNL     1      49.174   3.892  29.985  0.00  0.00    +0.000 A 
BRANCH  17  22
ATOM     22  N   UNL     1      50.433   5.422  28.524  0.00  0.00    +0.000 N 
ATOM     23  C   UNL     1      50.550   5.643  27.091  0.00  0.00    +0.000 C 
ATOM     24  C   UNL     1      50.999   6.469  29.358  0.00  0.00    +0.000 C 
ENDBRANCH  17  22
ENDBRANCH  15  16
ENDBRANCH   1  15
TORSDOF 6
ENDMDL
MODEL 8
REMARK VINA RESULT:      -5.5     25.852     27.272
REMARK  Name = Trichostatin_A.pdbqt.pdb
REMARK  6 active torsions:
REMARK  status: ('A' for Active; 'I' for Inactive)
REMARK    1  A    between atoms: C_1  and  C_15
REMARK    2  A    between atoms: C_4  and  C_6
REMARK    3  A    between atoms: C_7  and  C_10
REMARK    4  A    between atoms: N_9  and  O_12
REMARK    5  A    between atoms: C_15  and  C_16
REMARK    6  A    between atoms: C_17  and  N_22
REMARK                            x       y       z     vdW  Elec       q    Type
REMARK                         _______ _______ _______ _____ _____    ______ ____
ROOT
ATOM      1  C   UNL     1      46.612   6.074  21.275  0.00  0.00    +0.000 C 
ATOM      2  C   UNL     1      47.402   6.639  22.438  0.00  0.00    +0.000 C 
ATOM      3  C   UNL     1      45.635   6.933  20.716  0.00  0.00    +0.000 C 
ATOM      4  C   UNL     1      44.725   7.674  20.175  0.00  0.00    +0.000 C 
ATOM      5  C   UNL     1      45.051   8.457  18.940  0.00  0.00    +0.000 C 
ENDROOT
BRANCH   4   6
ATOM      6  C   UNL     1      43.386   7.593  20.621  0.00  0.00    +0.000 C 
ATOM      7  C   UNL     1      42.248   7.520  21.000  0.00  0.00    +0.000 C 
BRANCH   7  10
ATOM      8  O   UNL     1      40.643   7.427  22.662  0.00  0.00    +0.000 OA
ATOM      9  N   UNL     1      39.926   7.378  20.491  0.00  0.00    +0.000 N 
ATOM     10  C   UNL     1      40.887   7.439  21.461  0.00  0.00    +0.000 C 
ATOM     11  H   UNL     1      40.110   7.380  19.494  0.00  0.00    +0.000 HD
BRANCH   9  12
ATOM     12  O   UNL     1      38.581   7.288  20.906  0.00  0.00    +0.000 OA
ATOM     13  H   UNL     1      38.084   7.440  20.073  0.00  0.00    +0.000 HD
ENDBRANCH   9  12
ENDBRANCH   7  10
ENDBRANCH   4   6
BRANCH   1  15
ATOM     14  O   UNL     1      45.777   3.851  21.322  0.00  0.00    +0.000 OA
ATOM     15  C   UNL     1      46.627   4.630  20.890  0.00  0.00    +0.000 C 
BRANCH  15  16
ATOM     16  C   UNL     1      47.660   4.115  19.969  0.00  0.00    +0.000 A 
ATOM     17  C   UNL     1      49.762   3.233  18.292  0.00  0.00    +0.000 A 
ATOM     18  C   UNL     1      48.014   2.769  19.940  0.00  0.00    +0.000 A 
ATOM     19  C   UNL     1      48.365   5.028  19.190  0.00  0.00    +0.000 A 
ATOM     20  C   UNL     1      49.042   2.339  19.102  0.00  0.00    +0.000 A 
ATOM     21  C   UNL     1      49.391   4.585  18.355  0.00  0.00    +0.000 A 
BRANCH  17  22
ATOM     22  N   UNL     1      50.794   2.786  17.430  0.00  0.00    +0.000 N 
ATOM     23  C   UNL     1      50.517   1.843  16.358  0.00  0.00    +0.000 C 
ATOM     24  C   UNL     1      52.191   2.883  17.820  0.00  0.00    +0.000 C 
ENDBRANCH  17  22
ENDBRANCH  15  16
ENDBRANCH   1  15
TORSDOF 6
ENDMDL
MODEL 9
REMARK VINA RESULT:      -5.4      3.235      5.315
REMARK  Name = Trichostatin_A.pdbqt.pdb
REMARK  6 active torsions:
REMARK  status: ('A' for Active; 'I' for Inactive)
REMARK    1  A    between atoms: C_1  and  C_15
REMARK    2  A    between atoms: C_4  and  C_6
REMARK    3  A    between atoms: C_7  and  C_10
REMARK    4  A    between atoms: N_9  and  O_12
REMARK    5  A    between atoms: C_15  and  C_16
REMARK    6  A    between atoms: C_17  and  N_22
REMARK                            x       y       z     vdW  Elec       q    Type
REMARK                         _______ _______ _______ _____ _____    ______ ____
ROOT
ATOM      1  C   UNL     1      18.166   9.996  21.262  0.00  0.00    +0.000 C 
ATOM      2  C   UNL     1      16.829  10.105  21.967  0.00  0.00    +0.000 C 
ATOM      3  C   UNL     1      19.135  10.964  21.620  0.00  0.00    +0.000 C 
ATOM      4  C   UNL     1      20.052  11.828  21.906  0.00  0.00    +0.000 C 
ATOM      5  C   UNL     1      21.106  11.479  22.913  0.00  0.00    +0.000 C 
ENDROOT
BRANCH   4   6
ATOM      6  C   UNL     1      20.181  13.007  21.137  0.00  0.00    +0.000 C 
ATOM      7  C   UNL     1      20.286  14.010  20.482  0.00  0.00    +0.000 C 
BRANCH   7  10
ATOM      8  O   UNL     1      20.544  15.150  18.488  0.00  0.00    +0.000 OA
ATOM      9  N   UNL     1      20.384  16.388  20.404  0.00  0.00    +0.000 N 
ATOM     10  C   UNL     1      20.415  15.214  19.705  0.00  0.00    +0.000 C 
ATOM     11  H   UNL     1      20.285  16.458  21.410  0.00  0.00    +0.000 HD
BRANCH   9  12
ATOM     12  O   UNL     1      20.516  17.588  19.674  0.00  0.00    +0.000 OA
ATOM     13  H   UNL     1      19.650  17.663  19.218  0.00  0.00    +0.000 HD
ENDBRANCH   9  12
ENDBRANCH   7  10
ENDBRANCH   4   6
BRANCH   1  15
ATOM     14  O   UNL     1      17.883   8.016  19.981  0.00  0.00    +0.000 OA
ATOM     15  C   UNL     1      18.402   9.129  20.068  0.00  0.00    +0.000 C 
BRANCH  15  16
ATOM     16  C   UNL     1      19.258   9.602  18.961  0.00  0.00    +0.000 A 
ATOM     17  C   UNL     1      20.849  10.357  16.746  0.00  0.00    +0.000 A 
ATOM     18  C   UNL     1      18.990  10.784  18.279  0.00  0.00    +0.000 A 
ATOM     19  C   UNL     1      20.294   8.778  18.530  0.00  0.00    +0.000 A 
ATOM     20  C   UNL     1      19.786  11.157  17.195  0.00  0.00    +0.000 A 
ATOM     21  C   UNL     1      21.084   9.162  17.446  0.00  0.00    +0.000 A 
BRANCH  17  22
ATOM     22  N   UNL     1      21.665  10.751  15.656  0.00  0.00    +0.000 N 
ATOM     23  C   UNL     1      21.080  11.082  14.367  0.00  0.00    +0.000 C 
ATOM     24  C   UNL     1      23.083  10.431  15.627  0.00  0.00    +0.000 C 
ENDBRANCH  17  22
ENDBRANCH  15  16
ENDBRANCH   1  15
TORSDOF 6
ENDMDL
