MODEL 1
REMARK VINA RESULT:      -7.3      0.000      0.000
REMARK  Name = Trifluridine.pdbqt.pdb
REMARK  5 active torsions:
REMARK  status: ('A' for Active; 'I' for Inactive)
REMARK    1  A    between atoms: N_3  and  C1*_10
REMARK    2  A    between atoms: C_7  and  C_20
REMARK    3  A    between atoms: C4*_12  and  C5*_15
REMARK    4  A    between atoms: C3*_13  and  O3*_18
REMARK    5  A    between atoms: C5*_15  and  O5*_16
REMARK                            x       y       z     vdW  Elec       q    Type
REMARK                         _______ _______ _______ _____ _____    ______ ____
ROOT
ATOM      1  O   UNL     1      37.093   3.197  14.110  0.00  0.00    +0.000 OA
ATOM      2  O   UNL     1      37.972   3.038   9.609  0.00  0.00    +0.000 OA
ATOM      3  N   UNL     1      36.667   1.169  12.963  0.00  0.00    +0.000 N 
ATOM      4  N   UNL     1      37.521   3.053  11.859  0.00  0.00    +0.000 N 
ATOM      5  C   UNL     1      36.745   0.624  11.733  0.00  0.00    +0.000 A 
ATOM      6  C   UNL     1      37.084   2.513  13.093  0.00  0.00    +0.000 A 
ATOM      7  C   UNL     1      37.119   1.030  10.565  0.00  0.00    +0.000 A 
ATOM      8  C   UNL     1      37.576   2.442  10.600  0.00  0.00    +0.000 A 
ATOM      9  H   UNL     1      37.828   4.015  11.898  0.00  0.00    +0.000 HD
ENDROOT
BRANCH   3  10
ATOM     10  C1* UNL     1      36.194   0.413  13.997  0.00  0.00    +0.000 A 
ATOM     11  O4* UNL     1      34.824   0.250  14.232  0.00  0.00    +0.000 OA
ATOM     12  C4* UNL     1      34.699  -0.553  15.373  0.00  0.00    +0.000 A 
ATOM     13  C3* UNL     1      36.014  -0.897  15.853  0.00  0.00    +0.000 A 
ATOM     14  C2* UNL     1      36.927  -0.275  14.983  0.00  0.00    +0.000 A 
BRANCH  13  15
ATOM     15  O3* UNL     1      36.244  -1.109  17.183  0.00  0.00    +0.000 OA
ATOM     16  H3* UNL     1      36.166  -0.281  17.687  0.00  0.00    +0.000 HD
ENDBRANCH  13  15
BRANCH  12  17
ATOM     17  C5* UNL     1      33.466  -0.753  16.025  0.00  0.00    +0.000 C 
BRANCH  17  18
ATOM     18  O5* UNL     1      32.301  -0.938  16.637  0.00  0.00    +0.000 OA
ATOM     19  H5* UNL     1      32.413  -0.869  17.600  0.00  0.00    +0.000 HD
ENDBRANCH  17  18
ENDBRANCH  12  17
ENDBRANCH   3  10
BRANCH   7  20
ATOM     20  C   UNL     1      37.126   0.325   9.276  0.00  0.00    +0.000 C 
ATOM     21  F   UNL     1      36.637  -0.937   9.370  0.00  0.00    +0.000 F 
ATOM     22  F   UNL     1      36.354   0.960   8.352  0.00  0.00    +0.000 F 
ATOM     23  F   UNL     1      38.367   0.242   8.736  0.00  0.00    +0.000 F 
ENDBRANCH   7  20
TORSDOF 5
ENDMDL
MODEL 2
REMARK VINA RESULT:      -6.9      3.812      6.174
REMARK  Name = Trifluridine.pdbqt.pdb
REMARK  5 active torsions:
REMARK  status: ('A' for Active; 'I' for Inactive)
REMARK    1  A    between atoms: N_3  and  C1*_10
REMARK    2  A    between atoms: C_7  and  C_20
REMARK    3  A    between atoms: C4*_12  and  C5*_15
REMARK    4  A    between atoms: C3*_13  and  O3*_18
REMARK    5  A    between atoms: C5*_15  and  O5*_16
REMARK                            x       y       z     vdW  Elec       q    Type
REMARK                         _______ _______ _______ _____ _____    ______ ____
ROOT
ATOM      1  O   UNL     1      37.334   3.464  14.252  0.00  0.00    +0.000 OA
ATOM      2  O   UNL     1      34.784   2.070  17.804  0.00  0.00    +0.000 OA
ATOM      3  N   UNL     1      36.458   1.264  14.199  0.00  0.00    +0.000 N 
ATOM      4  N   UNL     1      36.044   2.712  15.996  0.00  0.00    +0.000 N 
ATOM      5  C   UNL     1      35.703   0.419  14.928  0.00  0.00    +0.000 A 
ATOM      6  C   UNL     1      36.681   2.550  14.742  0.00  0.00    +0.000 A 
ATOM      7  C   UNL     1      35.093   0.472  16.065  0.00  0.00    +0.000 A 
ATOM      8  C   UNL     1      35.271   1.793  16.717  0.00  0.00    +0.000 A 
ATOM      9  H   UNL     1      36.174   3.616  16.428  0.00  0.00    +0.000 HD
ENDROOT
BRANCH   3  10
ATOM     10  C1* UNL     1      36.964   0.842  13.003  0.00  0.00    +0.000 A 
ATOM     11  O4* UNL     1      36.366   1.178  11.783  0.00  0.00    +0.000 OA
ATOM     12  C4* UNL     1      37.121   0.563  10.776  0.00  0.00    +0.000 A 
ATOM     13  C3* UNL     1      38.209  -0.164  11.381  0.00  0.00    +0.000 A 
ATOM     14  C2* UNL     1      38.083   0.019  12.770  0.00  0.00    +0.000 A 
BRANCH  13  15
ATOM     15  O3* UNL     1      38.709  -1.293  10.798  0.00  0.00    +0.000 OA
ATOM     16  H3* UNL     1      38.130  -2.058  10.965  0.00  0.00    +0.000 HD
ENDBRANCH  13  15
BRANCH  12  17
ATOM     17  C5* UNL     1      36.692   0.511   9.436  0.00  0.00    +0.000 C 
BRANCH  17  18
ATOM     18  O5* UNL     1      36.282   0.463   8.172  0.00  0.00    +0.000 OA
ATOM     19  H5* UNL     1      36.253  -0.458   7.863  0.00  0.00    +0.000 HD
ENDBRANCH  17  18
ENDBRANCH  12  17
ENDBRANCH   3  10
BRANCH   7  20
ATOM     20  C   UNL     1      34.312  -0.555  16.768  0.00  0.00    +0.000 C 
ATOM     21  F   UNL     1      32.980  -0.448  16.534  0.00  0.00    +0.000 F 
ATOM     22  F   UNL     1      34.664  -1.811  16.376  0.00  0.00    +0.000 F 
ATOM     23  F   UNL     1      34.495  -0.517  18.112  0.00  0.00    +0.000 F 
ENDBRANCH   7  20
TORSDOF 5
ENDMDL
MODEL 3
REMARK VINA RESULT:      -6.4      5.591      7.813
REMARK  Name = Trifluridine.pdbqt.pdb
REMARK  5 active torsions:
REMARK  status: ('A' for Active; 'I' for Inactive)
REMARK    1  A    between atoms: N_3  and  C1*_10
REMARK    2  A    between atoms: C_7  and  C_20
REMARK    3  A    between atoms: C4*_12  and  C5*_15
REMARK    4  A    between atoms: C3*_13  and  O3*_18
REMARK    5  A    between atoms: C5*_15  and  O5*_16
REMARK                            x       y       z     vdW  Elec       q    Type
REMARK                         _______ _______ _______ _____ _____    ______ ____
ROOT
ATOM      1  O   UNL     1      37.496   3.691  20.191  0.00  0.00    +0.000 OA
ATOM      2  O   UNL     1      34.583   1.007  17.873  0.00  0.00    +0.000 OA
ATOM      3  N   UNL     1      37.355   3.967  17.842  0.00  0.00    +0.000 N 
ATOM      4  N   UNL     1      36.050   2.384  18.977  0.00  0.00    +0.000 N 
ATOM      5  C   UNL     1      36.710   3.477  16.766  0.00  0.00    +0.000 A 
ATOM      6  C   UNL     1      37.030   3.399  19.095  0.00  0.00    +0.000 A 
ATOM      7  C   UNL     1      35.819   2.565  16.560  0.00  0.00    +0.000 A 
ATOM      8  C   UNL     1      35.412   1.905  17.826  0.00  0.00    +0.000 A 
ATOM      9  H   UNL     1      35.784   1.943  19.846  0.00  0.00    +0.000 HD
ENDROOT
BRANCH   3  10
ATOM     10  C1* UNL     1      38.275   4.962  17.671  0.00  0.00    +0.000 A 
ATOM     11  O4* UNL     1      39.507   4.735  17.048  0.00  0.00    +0.000 OA
ATOM     12  C4* UNL     1      40.203   5.950  17.066  0.00  0.00    +0.000 A 
ATOM     13  C3* UNL     1      39.388   6.950  17.709  0.00  0.00    +0.000 A 
ATOM     14  C2* UNL     1      38.195   6.306  18.084  0.00  0.00    +0.000 A 
BRANCH  13  15
ATOM     15  O3* UNL     1      39.955   7.979  18.405  0.00  0.00    +0.000 OA
ATOM     16  H3* UNL     1      40.836   7.732  18.737  0.00  0.00    +0.000 HD
ENDBRANCH  13  15
BRANCH  12  17
ATOM     17  C5* UNL     1      41.563   6.048  16.712  0.00  0.00    +0.000 C 
BRANCH  17  18
ATOM     18  O5* UNL     1      42.847   6.143  16.381  0.00  0.00    +0.000 OA
ATOM     19  H5* UNL     1      43.339   6.610  17.077  0.00  0.00    +0.000 HD
ENDBRANCH  17  18
ENDBRANCH  12  17
ENDBRANCH   3  10
BRANCH   7  20
ATOM     20  C   UNL     1      35.210   2.104  15.305  0.00  0.00    +0.000 C 
ATOM     21  F   UNL     1      35.424   0.784  15.076  0.00  0.00    +0.000 F 
ATOM     22  F   UNL     1      33.858   2.270  15.311  0.00  0.00    +0.000 F 
ATOM     23  F   UNL     1      35.667   2.785  14.225  0.00  0.00    +0.000 F 
ENDBRANCH   7  20
TORSDOF 5
ENDMDL
MODEL 4
REMARK VINA RESULT:      -6.2      3.794      6.530
REMARK  Name = Trifluridine.pdbqt.pdb
REMARK  5 active torsions:
REMARK  status: ('A' for Active; 'I' for Inactive)
REMARK    1  A    between atoms: N_3  and  C1*_10
REMARK    2  A    between atoms: C_7  and  C_20
REMARK    3  A    between atoms: C4*_12  and  C5*_15
REMARK    4  A    between atoms: C3*_13  and  O3*_18
REMARK    5  A    between atoms: C5*_15  and  O5*_16
REMARK                            x       y       z     vdW  Elec       q    Type
REMARK                         _______ _______ _______ _____ _____    ______ ____
ROOT
ATOM      1  O   UNL     1      37.417   3.641  14.982  0.00  0.00    +0.000 OA
ATOM      2  O   UNL     1      34.740   1.718  18.174  0.00  0.00    +0.000 OA
ATOM      3  N   UNL     1      36.615   1.447  14.588  0.00  0.00    +0.000 N 
ATOM      4  N   UNL     1      36.066   2.629  16.538  0.00  0.00    +0.000 N 
ATOM      5  C   UNL     1      35.852   0.493  15.156  0.00  0.00    +0.000 A 
ATOM      6  C   UNL     1      36.769   2.654  15.310  0.00  0.00    +0.000 A 
ATOM      7  C   UNL     1      35.185   0.377  16.256  0.00  0.00    +0.000 A 
ATOM      8  C   UNL     1      35.288   1.602  17.087  0.00  0.00    +0.000 A 
ATOM      9  H   UNL     1      36.146   3.469  17.093  0.00  0.00    +0.000 HD
ENDROOT
BRANCH   3  10
ATOM     10  C1* UNL     1      37.193   1.204  13.375  0.00  0.00    +0.000 A 
ATOM     11  O4* UNL     1      38.582   1.152  13.211  0.00  0.00    +0.000 OA
ATOM     12  C4* UNL     1      38.822   0.913  11.852  0.00  0.00    +0.000 A 
ATOM     13  C3* UNL     1      37.561   0.811  11.161  0.00  0.00    +0.000 A 
ATOM     14  C2* UNL     1      36.562   1.005  12.132  0.00  0.00    +0.000 A 
BRANCH  13  15
ATOM     15  O3* UNL     1      37.444   1.188   9.853  0.00  0.00    +0.000 OA
ATOM     16  H3* UNL     1      36.578   0.929   9.492  0.00  0.00    +0.000 HD
ENDBRANCH  13  15
BRANCH  12  17
ATOM     17  C5* UNL     1      40.108   1.005  11.285  0.00  0.00    +0.000 C 
BRANCH  17  18
ATOM     18  O5* UNL     1      41.323   1.095  10.753  0.00  0.00    +0.000 OA
ATOM     19  H5* UNL     1      41.804   0.259  10.871  0.00  0.00    +0.000 HD
ENDBRANCH  17  18
ENDBRANCH  12  17
ENDBRANCH   3  10
BRANCH   7  20
ATOM     20  C   UNL     1      34.403  -0.755  16.773  0.00  0.00    +0.000 C 
ATOM     21  F   UNL     1      34.772  -1.112  18.028  0.00  0.00    +0.000 F 
ATOM     22  F   UNL     1      33.076  -0.459  16.841  0.00  0.00    +0.000 F 
ATOM     23  F   UNL     1      34.502  -1.857  15.989  0.00  0.00    +0.000 F 
ENDBRANCH   7  20
TORSDOF 5
ENDMDL
MODEL 5
REMARK VINA RESULT:      -5.8     18.234     19.496
REMARK  Name = Trifluridine.pdbqt.pdb
REMARK  5 active torsions:
REMARK  status: ('A' for Active; 'I' for Inactive)
REMARK    1  A    between atoms: N_3  and  C1*_10
REMARK    2  A    between atoms: C_7  and  C_20
REMARK    3  A    between atoms: C4*_12  and  C5*_15
REMARK    4  A    between atoms: C3*_13  and  O3*_18
REMARK    5  A    between atoms: C5*_15  and  O5*_16
REMARK                            x       y       z     vdW  Elec       q    Type
REMARK                         _______ _______ _______ _____ _____    ______ ____
ROOT
ATOM      1  O   UNL     1      17.202   9.865  19.556  0.00  0.00    +0.000 OA
ATOM      2  O   UNL     1      20.263  12.295  17.150  0.00  0.00    +0.000 OA
ATOM      3  N   UNL     1      19.246   8.819  18.976  0.00  0.00    +0.000 N 
ATOM      4  N   UNL     1      18.777  11.032  18.360  0.00  0.00    +0.000 N 
ATOM      5  C   UNL     1      20.402   9.064  18.328  0.00  0.00    +0.000 A 
ATOM      6  C   UNL     1      18.307   9.875  19.026  0.00  0.00    +0.000 A 
ATOM      7  C   UNL     1      20.912  10.068  17.696  0.00  0.00    +0.000 A 
ATOM      8  C   UNL     1      19.992  11.233  17.693  0.00  0.00    +0.000 A 
ATOM      9  H   UNL     1      18.140  11.816  18.366  0.00  0.00    +0.000 HD
ENDROOT
BRANCH   3  10
ATOM     10  C1* UNL     1      19.043   7.589  19.533  0.00  0.00    +0.000 A 
ATOM     11  O4* UNL     1      19.260   6.405  18.819  0.00  0.00    +0.000 OA
ATOM     12  C4* UNL     1      18.931   5.347  19.677  0.00  0.00    +0.000 A 
ATOM     13  C3* UNL     1      18.507   5.883  20.946  0.00  0.00    +0.000 A 
ATOM     14  C2* UNL     1      18.577   7.283  20.827  0.00  0.00    +0.000 A 
BRANCH  13  15
ATOM     15  O3* UNL     1      17.592   5.224  21.717  0.00  0.00    +0.000 OA
ATOM     16  H3* UNL     1      16.869   4.866  21.172  0.00  0.00    +0.000 HD
ENDBRANCH  13  15
BRANCH  12  17
ATOM     17  C5* UNL     1      18.829   4.015  19.229  0.00  0.00    +0.000 C 
BRANCH  17  18
ATOM     18  O5* UNL     1      18.737   2.757  18.809  0.00  0.00    +0.000 OA
ATOM     19  H5* UNL     1      19.198   2.652  17.960  0.00  0.00    +0.000 HD
ENDBRANCH  17  18
ENDBRANCH  12  17
ENDBRANCH   3  10
BRANCH   7  20
ATOM     20  C   UNL     1      22.199  10.193  16.998  0.00  0.00    +0.000 C 
ATOM     21  F   UNL     1      22.844  11.348  17.297  0.00  0.00    +0.000 F 
ATOM     22  F   UNL     1      23.053   9.187  17.336  0.00  0.00    +0.000 F 
ATOM     23  F   UNL     1      22.066  10.136  15.650  0.00  0.00    +0.000 F 
ENDBRANCH   7  20
TORSDOF 5
ENDMDL
MODEL 6
REMARK VINA RESULT:      -5.5     14.764     16.516
REMARK  Name = Trifluridine.pdbqt.pdb
REMARK  5 active torsions:
REMARK  status: ('A' for Active; 'I' for Inactive)
REMARK    1  A    between atoms: N_3  and  C1*_10
REMARK    2  A    between atoms: C_7  and  C_20
REMARK    3  A    between atoms: C4*_12  and  C5*_15
REMARK    4  A    between atoms: C3*_13  and  O3*_18
REMARK    5  A    between atoms: C5*_15  and  O5*_16
REMARK                            x       y       z     vdW  Elec       q    Type
REMARK                         _______ _______ _______ _____ _____    ______ ____
ROOT
ATOM      1  O   UNL     1      20.055   0.016   6.468  0.00  0.00    +0.000 OA
ATOM      2  O   UNL     1      18.530   0.242  10.791  0.00  0.00    +0.000 OA
ATOM      3  N   UNL     1      21.349  -1.018   8.162  0.00  0.00    +0.000 N 
ATOM      4  N   UNL     1      19.340   0.088   8.648  0.00  0.00    +0.000 N 
ATOM      5  C   UNL     1      21.355  -1.233   9.492  0.00  0.00    +0.000 A 
ATOM      6  C   UNL     1      20.255  -0.291   7.638  0.00  0.00    +0.000 A 
ATOM      7  C   UNL     1      20.581  -0.928  10.480  0.00  0.00    +0.000 A 
ATOM      8  C   UNL     1      19.397  -0.157  10.027  0.00  0.00    +0.000 A 
ATOM      9  H   UNL     1      18.539   0.613   8.326  0.00  0.00    +0.000 HD
ENDROOT
BRANCH   3  10
ATOM     10  C1* UNL     1      22.380  -1.498   7.405  0.00  0.00    +0.000 A 
ATOM     11  O4* UNL     1      23.530  -0.742   7.153  0.00  0.00    +0.000 OA
ATOM     12  C4* UNL     1      24.357  -1.521   6.332  0.00  0.00    +0.000 A 
ATOM     13  C3* UNL     1      23.710  -2.782   6.073  0.00  0.00    +0.000 A 
ATOM     14  C2* UNL     1      22.475  -2.739   6.746  0.00  0.00    +0.000 A 
BRANCH  13  15
ATOM     15  O3* UNL     1      23.922  -3.454   4.903  0.00  0.00    +0.000 OA
ATOM     16  H3* UNL     1      23.603  -4.371   4.964  0.00  0.00    +0.000 HD
ENDBRANCH  13  15
BRANCH  12  17
ATOM     17  C5* UNL     1      25.507  -1.000   5.708  0.00  0.00    +0.000 C 
BRANCH  17  18
ATOM     18  O5* UNL     1      26.592  -0.511   5.115  0.00  0.00    +0.000 OA
ATOM     19  H5* UNL     1      27.388  -0.951   5.455  0.00  0.00    +0.000 HD
ENDBRANCH  17  18
ENDBRANCH  12  17
ENDBRANCH   3  10
BRANCH   7  20
ATOM     20  C   UNL     1      20.725  -1.208  11.916  0.00  0.00    +0.000 C 
ATOM     21  F   UNL     1      20.236  -0.209  12.692  0.00  0.00    +0.000 F 
ATOM     22  F   UNL     1      20.050  -2.333  12.279  0.00  0.00    +0.000 F 
ATOM     23  F   UNL     1      22.016  -1.411  12.278  0.00  0.00    +0.000 F 
ENDBRANCH   7  20
TORSDOF 5
ENDMDL
MODEL 7
REMARK VINA RESULT:      -5.4     21.350     22.825
REMARK  Name = Trifluridine.pdbqt.pdb
REMARK  5 active torsions:
REMARK  status: ('A' for Active; 'I' for Inactive)
REMARK    1  A    between atoms: N_3  and  C1*_10
REMARK    2  A    between atoms: C_7  and  C_20
REMARK    3  A    between atoms: C4*_12  and  C5*_15
REMARK    4  A    between atoms: C3*_13  and  O3*_18
REMARK    5  A    between atoms: C5*_15  and  O5*_16
REMARK                            x       y       z     vdW  Elec       q    Type
REMARK                         _______ _______ _______ _____ _____    ______ ____
ROOT
ATOM      1  O   UNL     1      52.538   2.637  29.565  0.00  0.00    +0.000 OA
ATOM      2  O   UNL     1      50.667   6.755  30.341  0.00  0.00    +0.000 OA
ATOM      3  N   UNL     1      50.367   2.713  30.510  0.00  0.00    +0.000 N 
ATOM      4  N   UNL     1      51.546   4.667  29.969  0.00  0.00    +0.000 N 
ATOM      5  C   UNL     1      49.428   3.594  30.909  0.00  0.00    +0.000 A 
ATOM      6  C   UNL     1      51.562   3.252  29.980  0.00  0.00    +0.000 A 
ATOM      7  C   UNL     1      49.324   4.881  30.942  0.00  0.00    +0.000 A 
ATOM      8  C   UNL     1      50.540   5.540  30.404  0.00  0.00    +0.000 A 
ATOM      9  H   UNL     1      52.380   5.102  29.600  0.00  0.00    +0.000 HD
ENDROOT
BRANCH   3  10
ATOM     10  C1* UNL     1      50.124   1.376  30.641  0.00  0.00    +0.000 A 
ATOM     11  O4* UNL     1      49.339   0.670  29.722  0.00  0.00    +0.000 OA
ATOM     12  C4* UNL     1      49.278  -0.655  30.172  0.00  0.00    +0.000 A 
ATOM     13  C3* UNL     1      50.040  -0.774  31.390  0.00  0.00    +0.000 A 
ATOM     14  C2* UNL     1      50.549   0.508  31.665  0.00  0.00    +0.000 A 
BRANCH  13  15
ATOM     15  O3* UNL     1      49.696  -1.684  32.349  0.00  0.00    +0.000 OA
ATOM     16  H3* UNL     1      50.478  -2.166  32.670  0.00  0.00    +0.000 HD
ENDBRANCH  13  15
BRANCH  12  17
ATOM     17  C5* UNL     1      48.403  -1.604  29.609  0.00  0.00    +0.000 C 
BRANCH  17  18
ATOM     18  O5* UNL     1      47.573  -2.497  29.079  0.00  0.00    +0.000 OA
ATOM     19  H5* UNL     1      46.926  -2.055  28.505  0.00  0.00    +0.000 HD
ENDBRANCH  17  18
ENDBRANCH  12  17
ENDBRANCH   3  10
BRANCH   7  20
ATOM     20  C   UNL     1      48.232   5.729  31.440  0.00  0.00    +0.000 C 
ATOM     21  F   UNL     1      47.169   5.008  31.876  0.00  0.00    +0.000 F 
ATOM     22  F   UNL     1      48.629   6.491  32.496  0.00  0.00    +0.000 F 
ATOM     23  F   UNL     1      47.779   6.596  30.501  0.00  0.00    +0.000 F 
ENDBRANCH   7  20
TORSDOF 5
ENDMDL
MODEL 8
REMARK VINA RESULT:      -5.4     26.588     29.068
REMARK  Name = Trifluridine.pdbqt.pdb
REMARK  5 active torsions:
REMARK  status: ('A' for Active; 'I' for Inactive)
REMARK    1  A    between atoms: N_3  and  C1*_10
REMARK    2  A    between atoms: C_7  and  C_20
REMARK    3  A    between atoms: C4*_12  and  C5*_15
REMARK    4  A    between atoms: C3*_13  and  O3*_18
REMARK    5  A    between atoms: C5*_15  and  O5*_16
REMARK                            x       y       z     vdW  Elec       q    Type
REMARK                         _______ _______ _______ _____ _____    ______ ____
ROOT
ATOM      1  O   UNL     1      20.946   5.530  34.531  0.00  0.00    +0.000 OA
ATOM      2  O   UNL     1      18.532   4.691  30.719  0.00  0.00    +0.000 OA
ATOM      3  N   UNL     1      18.714   4.775  34.770  0.00  0.00    +0.000 N 
ATOM      4  N   UNL     1      19.691   5.085  32.661  0.00  0.00    +0.000 N 
ATOM      5  C   UNL     1      17.647   4.408  34.033  0.00  0.00    +0.000 A 
ATOM      6  C   UNL     1      19.876   5.161  34.062  0.00  0.00    +0.000 A 
ATOM      7  C   UNL     1      17.385   4.312  32.772  0.00  0.00    +0.000 A 
ATOM      8  C   UNL     1      18.552   4.701  31.941  0.00  0.00    +0.000 A 
ATOM      9  H   UNL     1      20.493   5.353  32.108  0.00  0.00    +0.000 HD
ENDROOT
BRANCH   3  10
ATOM     10  C1* UNL     1      18.618   4.762  36.132  0.00  0.00    +0.000 A 
ATOM     11  O4* UNL     1      19.363   5.631  36.937  0.00  0.00    +0.000 OA
ATOM     12  C4* UNL     1      19.043   5.330  38.267  0.00  0.00    +0.000 A 
ATOM     13  C3* UNL     1      18.080   4.257  38.287  0.00  0.00    +0.000 A 
ATOM     14  C2* UNL     1      17.840   3.915  36.944  0.00  0.00    +0.000 A 
BRANCH  13  15
ATOM     15  O3* UNL     1      18.042   3.367  39.324  0.00  0.00    +0.000 OA
ATOM     16  H3* UNL     1      17.284   3.545  39.908  0.00  0.00    +0.000 HD
ENDBRANCH  13  15
BRANCH  12  17
ATOM     17  C5* UNL     1      19.758   5.864  39.356  0.00  0.00    +0.000 C 
BRANCH  17  18
ATOM     18  O5* UNL     1      20.437   6.370  40.381  0.00  0.00    +0.000 OA
ATOM     19  H5* UNL     1      19.916   7.063  40.819  0.00  0.00    +0.000 HD
ENDBRANCH  17  18
ENDBRANCH  12  17
ENDBRANCH   3  10
BRANCH   7  20
ATOM     20  C   UNL     1      16.144   3.916  32.091  0.00  0.00    +0.000 C 
ATOM     21  F   UNL     1      15.428   4.981  31.652  0.00  0.00    +0.000 F 
ATOM     22  F   UNL     1      16.395   3.152  30.992  0.00  0.00    +0.000 F 
ATOM     23  F   UNL     1      15.329   3.176  32.884  0.00  0.00    +0.000 F 
ENDBRANCH   7  20
TORSDOF 5
ENDMDL
MODEL 9
REMARK VINA RESULT:      -5.3     13.525     14.690
REMARK  Name = Trifluridine.pdbqt.pdb
REMARK  5 active torsions:
REMARK  status: ('A' for Active; 'I' for Inactive)
REMARK    1  A    between atoms: N_3  and  C1*_10
REMARK    2  A    between atoms: C_7  and  C_20
REMARK    3  A    between atoms: C4*_12  and  C5*_15
REMARK    4  A    between atoms: C3*_13  and  O3*_18
REMARK    5  A    between atoms: C5*_15  and  O5*_16
REMARK                            x       y       z     vdW  Elec       q    Type
REMARK                         _______ _______ _______ _____ _____    ______ ____
ROOT
ATOM      1  O   UNL     1      20.637  -1.116   5.287  0.00  0.00    +0.000 OA
ATOM      2  O   UNL     1      24.648  -0.111   3.295  0.00  0.00    +0.000 OA
ATOM      3  N   UNL     1      22.587  -1.153   6.630  0.00  0.00    +0.000 N 
ATOM      4  N   UNL     1      22.672  -0.614   4.350  0.00  0.00    +0.000 N 
ATOM      5  C   UNL     1      23.918  -0.951   6.552  0.00  0.00    +0.000 A 
ATOM      6  C   UNL     1      21.845  -0.980   5.439  0.00  0.00    +0.000 A 
ATOM      7  C   UNL     1      24.749  -0.625   5.620  0.00  0.00    +0.000 A 
ATOM      8  C   UNL     1      24.059  -0.422   4.321  0.00  0.00    +0.000 A 
ATOM      9  H   UNL     1      22.189  -0.480   3.473  0.00  0.00    +0.000 HD
ENDROOT
BRANCH   3  10
ATOM     10  C1* UNL     1      22.038  -1.513   7.827  0.00  0.00    +0.000 A 
ATOM     11  O4* UNL     1      22.290  -0.801   9.005  0.00  0.00    +0.000 OA
ATOM     12  C4* UNL     1      21.597  -1.454  10.032  0.00  0.00    +0.000 A 
ATOM     13  C3* UNL     1      20.899  -2.589   9.482  0.00  0.00    +0.000 A 
ATOM     14  C2* UNL     1      21.198  -2.609   8.108  0.00  0.00    +0.000 A 
BRANCH  13  15
ATOM     15  O3* UNL     1      20.674  -3.707  10.234  0.00  0.00    +0.000 OA
ATOM     16  H3* UNL     1      20.656  -4.504   9.677  0.00  0.00    +0.000 HD
ENDBRANCH  13  15
BRANCH  12  17
ATOM     17  C5* UNL     1      21.787  -1.137  11.392  0.00  0.00    +0.000 C 
BRANCH  17  18
ATOM     18  O5* UNL     1      21.962  -0.842  12.676  0.00  0.00    +0.000 OA
ATOM     19  H5* UNL     1      21.103  -0.767  13.123  0.00  0.00    +0.000 HD
ENDBRANCH  17  18
ENDBRANCH  12  17
ENDBRANCH   3  10
BRANCH   7  20
ATOM     20  C   UNL     1      26.209  -0.463   5.668  0.00  0.00    +0.000 C 
ATOM     21  F   UNL     1      26.605   0.793   5.343  0.00  0.00    +0.000 F 
ATOM     22  F   UNL     1      26.700  -0.702   6.915  0.00  0.00    +0.000 F 
ATOM     23  F   UNL     1      26.854  -1.321   4.839  0.00  0.00    +0.000 F 
ENDBRANCH   7  20
TORSDOF 5
ENDMDL
