MODEL 1
REMARK VINA RESULT:      -8.1      0.000      0.000
REMARK  Name = Troglitazone.pdbqt.pdb
REMARK  4 active torsions:
REMARK  status: ('A' for Active; 'I' for Inactive)
REMARK    1  A    between atoms: C_1  and  O_2
REMARK    2  A    between atoms: C_1  and  C_18
REMARK    3  A    between atoms: O_2  and  C_3
REMARK    4  A    between atoms: C_26  and  O_32
REMARK                            x       y       z     vdW  Elec       q    Type
REMARK                         _______ _______ _______ _____ _____    ______ ____
ROOT
ATOM      1  C   UNL     1      40.324   0.873   8.066  0.00  0.00    +0.000 C 
ENDROOT
BRANCH   1   2
ATOM      2  C   UNL     1      41.762   0.574   8.171  0.00  0.00    +0.000 C 
ATOM      3  O   UNL     1      41.891  -0.660   8.966  0.00  0.00    +0.000 OA
ATOM      4  C   UNL     1      42.963  -0.914   9.831  0.00  0.00    +0.000 A 
ATOM      5  C   UNL     1      43.803   0.100  10.378  0.00  0.00    +0.000 A 
ATOM      6  C   UNL     1      43.167  -2.256  10.214  0.00  0.00    +0.000 A 
ATOM      7  C   UNL     1      43.498   1.414   9.937  0.00  0.00    +0.000 C 
ATOM      8  C   UNL     1      44.842  -0.210  11.264  0.00  0.00    +0.000 A 
ATOM      9  C   UNL     1      42.489   1.633   8.860  0.00  0.00    +0.000 C 
ATOM     10  C   UNL     1      45.047  -1.551  11.623  0.00  0.00    +0.000 A 
ATOM     11  C   UNL     1      45.720   0.886  11.830  0.00  0.00    +0.000 C 
ATOM     12  C   UNL     1      44.217  -2.568  11.105  0.00  0.00    +0.000 A 
ATOM     13  C   UNL     1      44.523  -3.988  11.581  0.00  0.00    +0.000 C 
ATOM     14  C   UNL     1      42.232  -3.327   9.664  0.00  0.00    +0.000 C 
ATOM     15  C   UNL     1      42.387   0.280   6.785  0.00  0.00    +0.000 C 
BRANCH  10  16
ATOM     16  O   UNL     1      46.067  -1.885  12.500  0.00  0.00    +0.000 OA
ATOM     17  H   UNL     1      46.161  -2.863  12.502  0.00  0.00    +0.000 HD
ENDBRANCH  10  16
ENDBRANCH   1   2
BRANCH   1  18
ATOM     18  O   UNL     1      39.020   1.142   7.981  0.00  0.00    +0.000 OA
BRANCH  18  19
ATOM     19  C   UNL     1      38.330   1.010   9.161  0.00  0.00    +0.000 C 
ATOM     20  C   UNL     1      37.832  -0.197   9.654  0.00  0.00    +0.000 C 
ATOM     21  C   UNL     1      37.149  -0.232  10.868  0.00  0.00    +0.000 C 
ATOM     22  C   UNL     1      36.963   0.943  11.590  0.00  0.00    +0.000 C 
ATOM     23  C   UNL     1      37.456   2.152  11.103  0.00  0.00    +0.000 C 
ATOM     24  C   UNL     1      38.141   2.184   9.890  0.00  0.00    +0.000 C 
ATOM     25  C   UNL     1      36.266   0.911  12.832  0.00  0.00    +0.000 C 
ATOM     26  C   UNL     1      35.568   0.886  14.060  0.00  0.00    +0.000 C 
ATOM     27  S   UNL     1      35.713  -0.350  15.251  0.00  0.00    +0.000 S 
ATOM     28  C   UNL     1      34.571   0.448  16.315  0.00  0.00    +0.000 C 
ATOM     29  O   UNL     1      34.239   0.024  17.409  0.00  0.00    +0.000 OA
ATOM     30  N   UNL     1      34.127   1.593  15.738  0.00  0.00    +0.000 N 
ATOM     31  C   UNL     1      34.618   1.925  14.511  0.00  0.00    +0.000 C 
ATOM     32  H   UNL     1      33.464   2.186  16.212  0.00  0.00    +0.000 HD
ATOM     33  O   UNL     1      34.319   2.929  13.887  0.00  0.00    +0.000 OA
ENDBRANCH  18  19
ENDBRANCH   1  18
TORSDOF 4
ENDMDL
MODEL 2
REMARK VINA RESULT:      -7.9     21.554     26.733
REMARK  Name = Troglitazone.pdbqt.pdb
REMARK  4 active torsions:
REMARK  status: ('A' for Active; 'I' for Inactive)
REMARK    1  A    between atoms: C_1  and  O_2
REMARK    2  A    between atoms: C_1  and  C_18
REMARK    3  A    between atoms: O_2  and  C_3
REMARK    4  A    between atoms: C_26  and  O_32
REMARK                            x       y       z     vdW  Elec       q    Type
REMARK                         _______ _______ _______ _____ _____    ______ ____
ROOT
ATOM      1  C   UNL     1      19.550  14.664  19.193  0.00  0.00    +0.000 C 
ENDROOT
BRANCH   1   2
ATOM      2  C   UNL     1      19.510  13.610  18.165  0.00  0.00    +0.000 C 
ATOM      3  O   UNL     1      19.524  12.317  18.871  0.00  0.00    +0.000 OA
ATOM      4  C   UNL     1      20.140  11.166  18.364  0.00  0.00    +0.000 A 
ATOM      5  C   UNL     1      21.163  11.182  17.371  0.00  0.00    +0.000 A 
ATOM      6  C   UNL     1      19.749   9.934  18.929  0.00  0.00    +0.000 A 
ATOM      7  C   UNL     1      21.488  12.476  16.886  0.00  0.00    +0.000 C 
ATOM      8  C   UNL     1      21.767  10.001  16.924  0.00  0.00    +0.000 A 
ATOM      9  C   UNL     1      20.674  13.658  17.290  0.00  0.00    +0.000 C 
ATOM     10  C   UNL     1      21.357   8.779  17.480  0.00  0.00    +0.000 A 
ATOM     11  C   UNL     1      22.851  10.046  15.868  0.00  0.00    +0.000 C 
ATOM     12  C   UNL     1      20.358   8.743  18.475  0.00  0.00    +0.000 A 
ATOM     13  C   UNL     1      20.005   7.358  19.019  0.00  0.00    +0.000 C 
ATOM     14  C   UNL     1      18.691   9.931  20.026  0.00  0.00    +0.000 C 
ATOM     15  C   UNL     1      18.195  13.660  17.349  0.00  0.00    +0.000 C 
BRANCH  10  16
ATOM     16  O   UNL     1      21.940   7.596  17.057  0.00  0.00    +0.000 OA
ATOM     17  H   UNL     1      21.238   6.912  16.996  0.00  0.00    +0.000 HD
ENDBRANCH  10  16
ENDBRANCH   1   2
BRANCH   1  18
ATOM     18  O   UNL     1      19.587  15.627  20.116  0.00  0.00    +0.000 OA
BRANCH  18  19
ATOM     19  C   UNL     1      19.053  15.277  21.331  0.00  0.00    +0.000 C 
ATOM     20  C   UNL     1      18.735  13.970  21.708  0.00  0.00    +0.000 C 
ATOM     21  C   UNL     1      18.202  13.713  22.968  0.00  0.00    +0.000 C 
ATOM     22  C   UNL     1      17.985  14.764  23.856  0.00  0.00    +0.000 C 
ATOM     23  C   UNL     1      18.300  16.070  23.486  0.00  0.00    +0.000 C 
ATOM     24  C   UNL     1      18.835  16.325  22.225  0.00  0.00    +0.000 C 
ATOM     25  C   UNL     1      17.442  14.503  25.146  0.00  0.00    +0.000 C 
ATOM     26  C   UNL     1      16.895  14.253  26.424  0.00  0.00    +0.000 C 
ATOM     27  S   UNL     1      17.295  12.905  27.420  0.00  0.00    +0.000 S 
ATOM     28  C   UNL     1      16.210  13.436  28.690  0.00  0.00    +0.000 C 
ATOM     29  O   UNL     1      16.049  12.848  29.746  0.00  0.00    +0.000 OA
ATOM     30  N   UNL     1      15.594  14.586  28.319  0.00  0.00    +0.000 N 
ATOM     31  C   UNL     1      15.906  15.117  27.102  0.00  0.00    +0.000 C 
ATOM     32  H   UNL     1      14.935  15.039  28.931  0.00  0.00    +0.000 HD
ATOM     33  O   UNL     1      15.441  16.149  26.651  0.00  0.00    +0.000 OA
ENDBRANCH  18  19
ENDBRANCH   1  18
TORSDOF 4
ENDMDL
MODEL 3
REMARK VINA RESULT:      -7.8      8.504     10.180
REMARK  Name = Troglitazone.pdbqt.pdb
REMARK  4 active torsions:
REMARK  status: ('A' for Active; 'I' for Inactive)
REMARK    1  A    between atoms: C_1  and  O_2
REMARK    2  A    between atoms: C_1  and  C_18
REMARK    3  A    between atoms: O_2  and  C_3
REMARK    4  A    between atoms: C_26  and  O_32
REMARK                            x       y       z     vdW  Elec       q    Type
REMARK                         _______ _______ _______ _____ _____    ______ ____
ROOT
ATOM      1  C   UNL     1      41.553   7.090  15.426  0.00  0.00    +0.000 C 
ENDROOT
BRANCH   1   2
ATOM      2  C   UNL     1      41.651   8.001  16.579  0.00  0.00    +0.000 C 
ATOM      3  O   UNL     1      42.553   9.098  16.189  0.00  0.00    +0.000 OA
ATOM      4  C   UNL     1      43.411   9.749  17.085  0.00  0.00    +0.000 A 
ATOM      5  C   UNL     1      43.841   9.190  18.325  0.00  0.00    +0.000 A 
ATOM      6  C   UNL     1      43.912  11.006  16.686  0.00  0.00    +0.000 A 
ATOM      7  C   UNL     1      43.288   7.916  18.616  0.00  0.00    +0.000 C 
ATOM      8  C   UNL     1      44.726   9.874  19.166  0.00  0.00    +0.000 A 
ATOM      9  C   UNL     1      42.221   7.341  17.747  0.00  0.00    +0.000 C 
ATOM     10  C   UNL     1      45.203  11.132  18.768  0.00  0.00    +0.000 A 
ATOM     11  C   UNL     1      45.167   9.258  20.478  0.00  0.00    +0.000 C 
ATOM     12  C   UNL     1      44.803  11.695  17.538  0.00  0.00    +0.000 A 
ATOM     13  C   UNL     1      45.400  13.062  17.202  0.00  0.00    +0.000 C 
ATOM     14  C   UNL     1      43.486  11.572  15.337  0.00  0.00    +0.000 C 
ATOM     15  C   UNL     1      40.283   8.645  16.914  0.00  0.00    +0.000 C 
BRANCH  10  16
ATOM     16  O   UNL     1      46.082  11.829  19.582  0.00  0.00    +0.000 OA
ATOM     17  H   UNL     1      46.181  12.736  19.220  0.00  0.00    +0.000 HD
ENDBRANCH  10  16
ENDBRANCH   1   2
BRANCH   1  18
ATOM     18  O   UNL     1      41.456   6.260  14.386  0.00  0.00    +0.000 OA
BRANCH  18  19
ATOM     19  C   UNL     1      40.341   5.459  14.394  0.00  0.00    +0.000 C 
ATOM     20  C   UNL     1      39.700   4.984  13.248  0.00  0.00    +0.000 C 
ATOM     21  C   UNL     1      38.575   4.170  13.358  0.00  0.00    +0.000 C 
ATOM     22  C   UNL     1      38.089   3.829  14.617  0.00  0.00    +0.000 C 
ATOM     23  C   UNL     1      38.723   4.300  15.765  0.00  0.00    +0.000 C 
ATOM     24  C   UNL     1      39.849   5.113  15.653  0.00  0.00    +0.000 C 
ATOM     25  C   UNL     1      36.940   2.995  14.733  0.00  0.00    +0.000 C 
ATOM     26  C   UNL     1      35.796   2.175  14.854  0.00  0.00    +0.000 C 
ATOM     27  S   UNL     1      35.451   0.812  13.860  0.00  0.00    +0.000 S 
ATOM     28  C   UNL     1      33.959   0.479  14.718  0.00  0.00    +0.000 C 
ATOM     29  O   UNL     1      33.210  -0.447  14.458  0.00  0.00    +0.000 OA
ATOM     30  N   UNL     1      33.778   1.397  15.701  0.00  0.00    +0.000 N 
ATOM     31  C   UNL     1      34.730   2.360  15.861  0.00  0.00    +0.000 C 
ATOM     32  H   UNL     1      32.970   1.357  16.301  0.00  0.00    +0.000 HD
ATOM     33  O   UNL     1      34.702   3.234  16.711  0.00  0.00    +0.000 OA
ENDBRANCH  18  19
ENDBRANCH   1  18
TORSDOF 4
ENDMDL
MODEL 4
REMARK VINA RESULT:      -7.7      4.277      5.700
REMARK  Name = Troglitazone.pdbqt.pdb
REMARK  4 active torsions:
REMARK  status: ('A' for Active; 'I' for Inactive)
REMARK    1  A    between atoms: C_1  and  O_2
REMARK    2  A    between atoms: C_1  and  C_18
REMARK    3  A    between atoms: O_2  and  C_3
REMARK    4  A    between atoms: C_26  and  O_32
REMARK                            x       y       z     vdW  Elec       q    Type
REMARK                         _______ _______ _______ _____ _____    ______ ____
ROOT
ATOM      1  C   UNL     1      39.821   3.311   9.022  0.00  0.00    +0.000 C 
ENDROOT
BRANCH   1   2
ATOM      2  C   UNL     1      41.051   4.074   9.293  0.00  0.00    +0.000 C 
ATOM      3  O   UNL     1      41.108   4.302  10.747  0.00  0.00    +0.000 OA
ATOM      4  C   UNL     1      41.656   5.452  11.329  0.00  0.00    +0.000 A 
ATOM      5  C   UNL     1      41.822   6.691  10.641  0.00  0.00    +0.000 A 
ATOM      6  C   UNL     1      42.003   5.371  12.694  0.00  0.00    +0.000 A 
ATOM      7  C   UNL     1      41.426   6.662   9.279  0.00  0.00    +0.000 C 
ATOM      8  C   UNL     1      42.347   7.819  11.284  0.00  0.00    +0.000 A 
ATOM      9  C   UNL     1      41.043   5.373   8.633  0.00  0.00    +0.000 C 
ATOM     10  C   UNL     1      42.706   7.721  12.637  0.00  0.00    +0.000 A 
ATOM     11  C   UNL     1      42.513   9.121  10.530  0.00  0.00    +0.000 C 
ATOM     12  C   UNL     1      42.535   6.510  13.339  0.00  0.00    +0.000 A 
ATOM     13  C   UNL     1      42.944   6.527  14.812  0.00  0.00    +0.000 C 
ATOM     14  C   UNL     1      41.775   4.059  13.433  0.00  0.00    +0.000 C 
ATOM     15  C   UNL     1      42.318   3.266   8.917  0.00  0.00    +0.000 C 
BRANCH  10  16
ATOM     16  O   UNL     1      43.225   8.823  13.296  0.00  0.00    +0.000 OA
ATOM     17  H   UNL     1      42.883   8.819  14.217  0.00  0.00    +0.000 HD
ENDBRANCH  10  16
ENDBRANCH   1   2
BRANCH   1  18
ATOM     18  O   UNL     1      38.704   2.621   8.787  0.00  0.00    +0.000 OA
BRANCH  18  19
ATOM     19  C   UNL     1      38.037   2.209   9.914  0.00  0.00    +0.000 C 
ATOM     20  C   UNL     1      37.331   3.057  10.770  0.00  0.00    +0.000 C 
ATOM     21  C   UNL     1      36.679   2.543  11.888  0.00  0.00    +0.000 C 
ATOM     22  C   UNL     1      36.734   1.178  12.154  0.00  0.00    +0.000 C 
ATOM     23  C   UNL     1      37.437   0.326  11.305  0.00  0.00    +0.000 C 
ATOM     24  C   UNL     1      38.087   0.842  10.186  0.00  0.00    +0.000 C 
ATOM     25  C   UNL     1      36.067   0.649  13.296  0.00  0.00    +0.000 C 
ATOM     26  C   UNL     1      35.415   0.120  14.432  0.00  0.00    +0.000 C 
ATOM     27  S   UNL     1      33.870   0.623  15.005  0.00  0.00    +0.000 S 
ATOM     28  C   UNL     1      33.914  -0.523  16.330  0.00  0.00    +0.000 C 
ATOM     29  O   UNL     1      33.023  -0.658  17.151  0.00  0.00    +0.000 OA
ATOM     30  N   UNL     1      35.075  -1.225  16.294  0.00  0.00    +0.000 N 
ATOM     31  C   UNL     1      35.957  -0.954  15.291  0.00  0.00    +0.000 C 
ATOM     32  H   UNL     1      35.270  -1.935  16.982  0.00  0.00    +0.000 HD
ATOM     33  O   UNL     1      37.026  -1.517  15.130  0.00  0.00    +0.000 OA
ENDBRANCH  18  19
ENDBRANCH   1  18
TORSDOF 4
ENDMDL
MODEL 5
REMARK VINA RESULT:      -7.6     21.807     26.670
REMARK  Name = Troglitazone.pdbqt.pdb
REMARK  4 active torsions:
REMARK  status: ('A' for Active; 'I' for Inactive)
REMARK    1  A    between atoms: C_1  and  O_2
REMARK    2  A    between atoms: C_1  and  C_18
REMARK    3  A    between atoms: O_2  and  C_3
REMARK    4  A    between atoms: C_26  and  O_32
REMARK                            x       y       z     vdW  Elec       q    Type
REMARK                         _______ _______ _______ _____ _____    ______ ____
ROOT
ATOM      1  C   UNL     1      18.537  13.667  20.172  0.00  0.00    +0.000 C 
ENDROOT
BRANCH   1   2
ATOM      2  C   UNL     1      18.692  12.804  18.988  0.00  0.00    +0.000 C 
ATOM      3  O   UNL     1      18.830  11.421  19.475  0.00  0.00    +0.000 OA
ATOM      4  C   UNL     1      19.616  10.452  18.840  0.00  0.00    +0.000 A 
ATOM      5  C   UNL     1      20.685  10.755  17.945  0.00  0.00    +0.000 A 
ATOM      6  C   UNL     1      19.354   9.105  19.167  0.00  0.00    +0.000 A 
ATOM      7  C   UNL     1      20.869  12.140  17.701  0.00  0.00    +0.000 C 
ATOM      8  C   UNL     1      21.459   9.744  17.363  0.00  0.00    +0.000 A 
ATOM      9  C   UNL     1      19.889  13.135  18.225  0.00  0.00    +0.000 C 
ATOM     10  C   UNL     1      21.177   8.407  17.681  0.00  0.00    +0.000 A 
ATOM     11  C   UNL     1      22.588  10.094  16.416  0.00  0.00    +0.000 C 
ATOM     12  C   UNL     1      20.135   8.087  18.577  0.00  0.00    +0.000 A 
ATOM     13  C   UNL     1      19.931   6.599  18.861  0.00  0.00    +0.000 C 
ATOM     14  C   UNL     1      18.244   8.794  20.163  0.00  0.00    +0.000 C 
ATOM     15  C   UNL     1      17.431  12.838  18.089  0.00  0.00    +0.000 C 
BRANCH  10  16
ATOM     16  O   UNL     1      21.931   7.388  17.120  0.00  0.00    +0.000 OA
ATOM     17  H   UNL     1      21.385   6.571  17.115  0.00  0.00    +0.000 HD
ENDBRANCH  10  16
ENDBRANCH   1   2
BRANCH   1  18
ATOM     18  O   UNL     1      18.409  14.450  21.243  0.00  0.00    +0.000 OA
BRANCH  18  19
ATOM     19  C   UNL     1      19.098  15.636  21.173  0.00  0.00    +0.000 C 
ATOM     20  C   UNL     1      20.104  15.911  20.244  0.00  0.00    +0.000 C 
ATOM     21  C   UNL     1      20.743  17.148  20.247  0.00  0.00    +0.000 C 
ATOM     22  C   UNL     1      20.376  18.114  21.180  0.00  0.00    +0.000 C 
ATOM     23  C   UNL     1      19.373  17.846  22.109  0.00  0.00    +0.000 C 
ATOM     24  C   UNL     1      18.735  16.608  22.104  0.00  0.00    +0.000 C 
ATOM     25  C   UNL     1      21.027  19.381  21.184  0.00  0.00    +0.000 C 
ATOM     26  C   UNL     1      21.674  20.637  21.198  0.00  0.00    +0.000 C 
ATOM     27  S   UNL     1      22.133  21.525  19.796  0.00  0.00    +0.000 S 
ATOM     28  C   UNL     1      22.793  22.833  20.758  0.00  0.00    +0.000 C 
ATOM     29  O   UNL     1      23.298  23.841  20.293  0.00  0.00    +0.000 OA
ATOM     30  N   UNL     1      22.649  22.552  22.077  0.00  0.00    +0.000 N 
ATOM     31  C   UNL     1      22.043  21.380  22.421  0.00  0.00    +0.000 C 
ATOM     32  H   UNL     1      22.970  23.199  22.780  0.00  0.00    +0.000 HD
ATOM     33  O   UNL     1      21.837  21.010  23.564  0.00  0.00    +0.000 OA
ENDBRANCH  18  19
ENDBRANCH   1  18
TORSDOF 4
ENDMDL
MODEL 6
REMARK VINA RESULT:      -7.6     25.872     28.684
REMARK  Name = Troglitazone.pdbqt.pdb
REMARK  4 active torsions:
REMARK  status: ('A' for Active; 'I' for Inactive)
REMARK    1  A    between atoms: C_1  and  O_2
REMARK    2  A    between atoms: C_1  and  C_18
REMARK    3  A    between atoms: O_2  and  C_3
REMARK    4  A    between atoms: C_26  and  O_32
REMARK                            x       y       z     vdW  Elec       q    Type
REMARK                         _______ _______ _______ _____ _____    ______ ____
ROOT
ATOM      1  C   UNL     1      50.115   0.290  36.944  0.00  0.00    +0.000 C 
ENDROOT
BRANCH   1   2
ATOM      2  C   UNL     1      50.634   0.272  38.322  0.00  0.00    +0.000 C 
ATOM      3  O   UNL     1      50.219  -1.006  38.925  0.00  0.00    +0.000 OA
ATOM      4  C   UNL     1      49.904  -1.156  40.281  0.00  0.00    +0.000 A 
ATOM      5  C   UNL     1      49.527  -0.078  41.135  0.00  0.00    +0.000 A 
ATOM      6  C   UNL     1      49.911  -2.470  40.794  0.00  0.00    +0.000 A 
ATOM      7  C   UNL     1      49.539   1.196  40.510  0.00  0.00    +0.000 C 
ATOM      8  C   UNL     1      49.192  -0.292  42.478  0.00  0.00    +0.000 A 
ATOM      9  C   UNL     1      50.077   1.352  39.128  0.00  0.00    +0.000 C 
ATOM     10  C   UNL     1      49.220  -1.601  42.982  0.00  0.00    +0.000 A 
ATOM     11  C   UNL     1      48.796   0.871  43.363  0.00  0.00    +0.000 C 
ATOM     12  C   UNL     1      49.575  -2.684  42.149  0.00  0.00    +0.000 A 
ATOM     13  C   UNL     1      49.554  -4.065  42.803  0.00  0.00    +0.000 C 
ATOM     14  C   UNL     1      50.266  -3.621  39.861  0.00  0.00    +0.000 C 
ATOM     15  C   UNL     1      52.182   0.298  38.350  0.00  0.00    +0.000 C 
BRANCH  10  16
ATOM     16  O   UNL     1      48.891  -1.840  44.306  0.00  0.00    +0.000 OA
ATOM     17  H   UNL     1      48.503  -1.018  44.679  0.00  0.00    +0.000 HD
ENDBRANCH  10  16
ENDBRANCH   1   2
BRANCH   1  18
ATOM     18  O   UNL     1      49.656   0.304  35.692  0.00  0.00    +0.000 OA
BRANCH  18  19
ATOM     19  C   UNL     1      49.844   1.489  35.025  0.00  0.00    +0.000 C 
ATOM     20  C   UNL     1      50.374   2.645  35.602  0.00  0.00    +0.000 C 
ATOM     21  C   UNL     1      50.534   3.800  34.841  0.00  0.00    +0.000 C 
ATOM     22  C   UNL     1      50.162   3.802  33.499  0.00  0.00    +0.000 C 
ATOM     23  C   UNL     1      49.631   2.652  32.918  0.00  0.00    +0.000 C 
ATOM     24  C   UNL     1      49.474   1.497  33.681  0.00  0.00    +0.000 C 
ATOM     25  C   UNL     1      50.325   4.981  32.718  0.00  0.00    +0.000 C 
ATOM     26  C   UNL     1      50.477   6.151  31.940  0.00  0.00    +0.000 C 
ATOM     27  S   UNL     1      51.818   7.227  32.030  0.00  0.00    +0.000 S 
ATOM     28  C   UNL     1      51.154   8.266  30.785  0.00  0.00    +0.000 C 
ATOM     29  O   UNL     1      51.698   9.276  30.371  0.00  0.00    +0.000 OA
ATOM     30  N   UNL     1      49.964   7.773  30.360  0.00  0.00    +0.000 N 
ATOM     31  C   UNL     1      49.511   6.618  30.923  0.00  0.00    +0.000 C 
ATOM     32  H   UNL     1      49.439   8.243  29.639  0.00  0.00    +0.000 HD
ATOM     33  O   UNL     1      48.469   6.058  30.626  0.00  0.00    +0.000 OA
ENDBRANCH  18  19
ENDBRANCH   1  18
TORSDOF 4
ENDMDL
MODEL 7
REMARK VINA RESULT:      -7.4     14.048     17.248
REMARK  Name = Troglitazone.pdbqt.pdb
REMARK  4 active torsions:
REMARK  status: ('A' for Active; 'I' for Inactive)
REMARK    1  A    between atoms: C_1  and  O_2
REMARK    2  A    between atoms: C_1  and  C_18
REMARK    3  A    between atoms: O_2  and  C_3
REMARK    4  A    between atoms: C_26  and  O_32
REMARK                            x       y       z     vdW  Elec       q    Type
REMARK                         _______ _______ _______ _____ _____    ______ ____
ROOT
ATOM      1  C   UNL     1      26.372   0.468   3.541  0.00  0.00    +0.000 C 
ENDROOT
BRANCH   1   2
ATOM      2  C   UNL     1      27.567   0.894   4.289  0.00  0.00    +0.000 C 
ATOM      3  O   UNL     1      28.317   1.816   3.419  0.00  0.00    +0.000 OA
ATOM      4  C   UNL     1      29.714   1.913   3.417  0.00  0.00    +0.000 A 
ATOM      5  C   UNL     1      30.585   0.889   3.896  0.00  0.00    +0.000 A 
ATOM      6  C   UNL     1      30.270   3.078   2.848  0.00  0.00    +0.000 A 
ATOM      7  C   UNL     1      29.918  -0.243   4.431  0.00  0.00    +0.000 C 
ATOM      8  C   UNL     1      31.977   1.028   3.840  0.00  0.00    +0.000 A 
ATOM      9  C   UNL     1      28.437  -0.231   4.611  0.00  0.00    +0.000 C 
ATOM     10  C   UNL     1      32.518   2.199   3.288  0.00  0.00    +0.000 A 
ATOM     11  C   UNL     1      32.878  -0.074   4.356  0.00  0.00    +0.000 C 
ATOM     12  C   UNL     1      31.675   3.217   2.794  0.00  0.00    +0.000 A 
ATOM     13  C   UNL     1      32.377   4.438   2.202  0.00  0.00    +0.000 C 
ATOM     14  C   UNL     1      29.333   4.143   2.293  0.00  0.00    +0.000 C 
ATOM     15  C   UNL     1      27.189   1.689   5.563  0.00  0.00    +0.000 C 
BRANCH  10  16
ATOM     16  O   UNL     1      33.893   2.360   3.219  0.00  0.00    +0.000 OA
ATOM     17  H   UNL     1      34.166   2.255   2.281  0.00  0.00    +0.000 HD
ENDBRANCH  10  16
ENDBRANCH   1   2
BRANCH   1  18
ATOM     18  O   UNL     1      25.289   0.073   2.870  0.00  0.00    +0.000 OA
BRANCH  18  19
ATOM     19  C   UNL     1      25.537  -0.373   1.595  0.00  0.00    +0.000 C 
ATOM     20  C   UNL     1      24.729  -1.278   0.903  0.00  0.00    +0.000 C 
ATOM     21  C   UNL     1      25.059  -1.665  -0.393  0.00  0.00    +0.000 C 
ATOM     22  C   UNL     1      26.200  -1.148  -1.000  0.00  0.00    +0.000 C 
ATOM     23  C   UNL     1      27.011  -0.246  -0.316  0.00  0.00    +0.000 C 
ATOM     24  C   UNL     1      26.678   0.142   0.981  0.00  0.00    +0.000 C 
ATOM     25  C   UNL     1      26.540  -1.542  -2.326  0.00  0.00    +0.000 C 
ATOM     26  C   UNL     1      26.887  -1.936  -3.638  0.00  0.00    +0.000 C 
ATOM     27  S   UNL     1      25.766  -2.171  -4.925  0.00  0.00    +0.000 S 
ATOM     28  C   UNL     1      27.042  -2.595  -6.048  0.00  0.00    +0.000 C 
ATOM     29  O   UNL     1      26.859  -2.882  -7.219  0.00  0.00    +0.000 OA
ATOM     30  N   UNL     1      28.244  -2.550  -5.420  0.00  0.00    +0.000 N 
ATOM     31  C   UNL     1      28.265  -2.192  -4.104  0.00  0.00    +0.000 C 
ATOM     32  H   UNL     1      29.094  -2.762  -5.916  0.00  0.00    +0.000 HD
ATOM     33  O   UNL     1      29.272  -2.097  -3.423  0.00  0.00    +0.000 OA
ENDBRANCH  18  19
ENDBRANCH   1  18
TORSDOF 4
ENDMDL
MODEL 8
REMARK VINA RESULT:      -7.3      4.397      8.794
REMARK  Name = Troglitazone.pdbqt.pdb
REMARK  4 active torsions:
REMARK  status: ('A' for Active; 'I' for Inactive)
REMARK    1  A    between atoms: C_1  and  O_2
REMARK    2  A    between atoms: C_1  and  C_18
REMARK    3  A    between atoms: O_2  and  C_3
REMARK    4  A    between atoms: C_26  and  O_32
REMARK                            x       y       z     vdW  Elec       q    Type
REMARK                         _______ _______ _______ _____ _____    ______ ____
ROOT
ATOM      1  C   UNL     1      42.805  -0.308   7.159  0.00  0.00    +0.000 C 
ENDROOT
BRANCH   1   2
ATOM      2  C   UNL     1      41.535   0.377   7.452  0.00  0.00    +0.000 C 
ATOM      3  O   UNL     1      41.483   0.589   8.909  0.00  0.00    +0.000 OA
ATOM      4  C   UNL     1      40.296   0.565   9.652  0.00  0.00    +0.000 A 
ATOM      5  C   UNL     1      39.095  -0.069   9.215  0.00  0.00    +0.000 A 
ATOM      6  C   UNL     1      40.334   1.160  10.931  0.00  0.00    +0.000 A 
ATOM      7  C   UNL     1      39.176  -0.648   7.923  0.00  0.00    +0.000 C 
ATOM      8  C   UNL     1      37.946  -0.088  10.015  0.00  0.00    +0.000 A 
ATOM      9  C   UNL     1      40.381  -0.428   7.072  0.00  0.00    +0.000 C 
ATOM     10  C   UNL     1      37.990   0.523  11.278  0.00  0.00    +0.000 A 
ATOM     11  C   UNL     1      36.685  -0.768   9.527  0.00  0.00    +0.000 C 
ATOM     12  C   UNL     1      39.173   1.141  11.735  0.00  0.00    +0.000 A 
ATOM     13  C   UNL     1      39.108   1.759  13.132  0.00  0.00    +0.000 C 
ATOM     14  C   UNL     1      41.636   1.791  11.409  0.00  0.00    +0.000 C 
ATOM     15  C   UNL     1      41.478   1.778   6.795  0.00  0.00    +0.000 C 
BRANCH  10  16
ATOM     16  O   UNL     1      36.868   0.515  12.090  0.00  0.00    +0.000 OA
ATOM     17  H   UNL     1      36.904  -0.287  12.655  0.00  0.00    +0.000 HD
ENDBRANCH  10  16
ENDBRANCH   1   2
BRANCH   1  18
ATOM     18  O   UNL     1      43.951  -0.938   6.898  0.00  0.00    +0.000 OA
BRANCH  18  19
ATOM     19  C   UNL     1      44.479  -1.632   7.959  0.00  0.00    +0.000 C 
ATOM     20  C   UNL     1      45.843  -1.842   8.166  0.00  0.00    +0.000 C 
ATOM     21  C   UNL     1      46.283  -2.555   9.279  0.00  0.00    +0.000 C 
ATOM     22  C   UNL     1      45.357  -3.059  10.188  0.00  0.00    +0.000 C 
ATOM     23  C   UNL     1      43.994  -2.852   9.987  0.00  0.00    +0.000 C 
ATOM     24  C   UNL     1      43.556  -2.138   8.874  0.00  0.00    +0.000 C 
ATOM     25  C   UNL     1      45.804  -3.786  11.328  0.00  0.00    +0.000 C 
ATOM     26  C   UNL     1      46.240  -4.516  12.457  0.00  0.00    +0.000 C 
ATOM     27  S   UNL     1      47.628  -4.131  13.402  0.00  0.00    +0.000 S 
ATOM     28  C   UNL     1      47.351  -5.484  14.481  0.00  0.00    +0.000 C 
ATOM     29  O   UNL     1      48.055  -5.755  15.438  0.00  0.00    +0.000 OA
ATOM     30  N   UNL     1      46.245  -6.166  14.090  0.00  0.00    +0.000 N 
ATOM     31  C   UNL     1      45.564  -5.712  13.000  0.00  0.00    +0.000 C 
ATOM     32  H   UNL     1      45.931  -6.976  14.600  0.00  0.00    +0.000 HD
ATOM     33  O   UNL     1      44.549  -6.217  12.550  0.00  0.00    +0.000 OA
ENDBRANCH  18  19
ENDBRANCH   1  18
TORSDOF 4
ENDMDL
MODEL 9
REMARK VINA RESULT:      -7.1     14.985     17.359
REMARK  Name = Troglitazone.pdbqt.pdb
REMARK  4 active torsions:
REMARK  status: ('A' for Active; 'I' for Inactive)
REMARK    1  A    between atoms: C_1  and  O_2
REMARK    2  A    between atoms: C_1  and  C_18
REMARK    3  A    between atoms: O_2  and  C_3
REMARK    4  A    between atoms: C_26  and  O_32
REMARK                            x       y       z     vdW  Elec       q    Type
REMARK                         _______ _______ _______ _____ _____    ______ ____
ROOT
ATOM      1  C   UNL     1      28.579   0.072   2.438  0.00  0.00    +0.000 C 
ENDROOT
BRANCH   1   2
ATOM      2  C   UNL     1      28.686   0.428   1.013  0.00  0.00    +0.000 C 
ATOM      3  O   UNL     1      27.739  -0.430   0.280  0.00  0.00    +0.000 OA
ATOM      4  C   UNL     1      27.968  -0.899  -1.020  0.00  0.00    +0.000 A 
ATOM      5  C   UNL     1      29.259  -0.986  -1.620  0.00  0.00    +0.000 A 
ATOM      6  C   UNL     1      26.844  -1.363  -1.735  0.00  0.00    +0.000 A 
ATOM      7  C   UNL     1      30.317  -0.508  -0.804  0.00  0.00    +0.000 C 
ATOM      8  C   UNL     1      29.431  -1.495  -2.913  0.00  0.00    +0.000 A 
ATOM      9  C   UNL     1      30.022   0.176   0.488  0.00  0.00    +0.000 C 
ATOM     10  C   UNL     1      28.303  -1.936  -3.623  0.00  0.00    +0.000 A 
ATOM     11  C   UNL     1      30.813  -1.576  -3.526  0.00  0.00    +0.000 C 
ATOM     12  C   UNL     1      27.019  -1.873  -3.041  0.00  0.00    +0.000 A 
ATOM     13  C   UNL     1      25.869  -2.397  -3.901  0.00  0.00    +0.000 C 
ATOM     14  C   UNL     1      25.476  -1.313  -1.067  0.00  0.00    +0.000 C 
ATOM     15  C   UNL     1      28.253   1.893   0.757  0.00  0.00    +0.000 C 
BRANCH  10  16
ATOM     16  O   UNL     1      28.447  -2.445  -4.903  0.00  0.00    +0.000 OA
ATOM     17  H   UNL     1      29.301  -2.126  -5.266  0.00  0.00    +0.000 HD
ENDBRANCH  10  16
ENDBRANCH   1   2
BRANCH   1  18
ATOM     18  O   UNL     1      28.490  -0.242   3.731  0.00  0.00    +0.000 OA
BRANCH  18  19
ATOM     19  C   UNL     1      27.216  -0.502   4.171  0.00  0.00    +0.000 C 
ATOM     20  C   UNL     1      26.125  -0.746   3.334  0.00  0.00    +0.000 C 
ATOM     21  C   UNL     1      24.869  -1.008   3.875  0.00  0.00    +0.000 C 
ATOM     22  C   UNL     1      24.701  -1.025   5.257  0.00  0.00    +0.000 C 
ATOM     23  C   UNL     1      25.785  -0.782   6.098  0.00  0.00    +0.000 C 
ATOM     24  C   UNL     1      27.041  -0.522   5.554  0.00  0.00    +0.000 C 
ATOM     25  C   UNL     1      23.418  -1.294   5.814  0.00  0.00    +0.000 C 
ATOM     26  C   UNL     1      22.146  -1.552   6.372  0.00  0.00    +0.000 C 
ATOM     27  S   UNL     1      21.024  -2.714   5.774  0.00  0.00    +0.000 S 
ATOM     28  C   UNL     1      19.859  -2.333   7.026  0.00  0.00    +0.000 C 
ATOM     29  O   UNL     1      18.774  -2.879   7.143  0.00  0.00    +0.000 OA
ATOM     30  N   UNL     1      20.349  -1.357   7.830  0.00  0.00    +0.000 N 
ATOM     31  C   UNL     1      21.594  -0.870   7.561  0.00  0.00    +0.000 C 
ATOM     32  H   UNL     1      19.812  -1.014   8.611  0.00  0.00    +0.000 HD
ATOM     33  O   UNL     1      22.160  -0.006   8.209  0.00  0.00    +0.000 OA
ENDBRANCH  18  19
ENDBRANCH   1  18
TORSDOF 4
ENDMDL
