MODEL 1
REMARK VINA RESULT:      -7.0      0.000      0.000
REMARK  Name = 
REMARK  19 active torsions:
REMARK  status: ('A' for Active; 'I' for Inactive)
REMARK    1  A    between atoms: O_1  and  C_20
REMARK    2  A    between atoms: O_1  and  C_36
REMARK    3  A    between atoms: O_2  and  C_18
REMARK    4  A    between atoms: O_3  and  C_28
REMARK    5  A    between atoms: O_3  and  C_42
REMARK    6  A    between atoms: O_5  and  C_34
REMARK    7  A    between atoms: O_5  and  C_50
REMARK    8  A    between atoms: O_7  and  C_40
REMARK    9  A    between atoms: O_7  and  C_56
REMARK   10  A    between atoms: O_9  and  C_46
REMARK   11  A    between atoms: N_11  and  C_30
REMARK   12  A    between atoms: C_17  and  C_23
REMARK   13  A    between atoms: C_18  and  C_28
REMARK   14  A    between atoms: C_23  and  C_32
REMARK   15  A    between atoms: C_33  and  C_35
REMARK   16  A    between atoms: C_35  and  C_40
REMARK   17  A    between atoms: C_36  and  C_41
REMARK   18  A    between atoms: C_46  and  C_53
REMARK   19  A    between atoms: C_53  and  C_57
REMARK                            x       y       z     vdW  Elec       q    Type
REMARK                         _______ _______ _______ _____ _____    ______ ____
ROOT
ATOM      1  N   UNL     1      22.302   2.709   4.464  0.00  0.00    +0.000 NA
ATOM      2  N   UNL     1      23.913  -1.618   5.670  0.00  0.00    +0.000 N 
ATOM      3  C   UNL     1      23.059   0.579   5.035  0.00  0.00    +0.000 C 
ATOM      4  C   UNL     1      22.162   1.310   4.020  0.00  0.00    +0.000 C 
ATOM      5  C   UNL     1      22.745  -0.930   5.043  0.00  0.00    +0.000 C 
ATOM      6  C   UNL     1      20.680   0.717   3.928  0.00  0.00    +0.000 C 
ATOM      7  C   UNL     1      21.330  -1.320   5.499  0.00  0.00    +0.000 C 
ATOM      8  C   UNL     1      22.944   1.400   6.334  0.00  0.00    +0.000 C 
ATOM      9  C   UNL     1      20.291  -0.197   5.173  0.00  0.00    +0.000 C 
ATOM     10  C   UNL     1      24.539   0.449   4.734  0.00  0.00    +0.000 A 
ATOM     11  C   UNL     1      22.309   2.726   5.921  0.00  0.00    +0.000 C 
ATOM     12  C   UNL     1      24.980  -0.807   5.174  0.00  0.00    +0.000 A 
ATOM     13  C   UNL     1      19.635   1.829   3.825  0.00  0.00    +0.000 C 
ATOM     14  C   UNL     1      21.357   3.638   3.863  0.00  0.00    +0.000 C 
ATOM     15  C   UNL     1      19.953   3.131   3.784  0.00  0.00    +0.000 C 
ATOM     16  C   UNL     1      25.408   1.382   4.179  0.00  0.00    +0.000 A 
ATOM     17  C   UNL     1      24.070  -3.049   5.415  0.00  0.00    +0.000 C 
ATOM     18  C   UNL     1      26.322  -1.124   5.096  0.00  0.00    +0.000 A 
ATOM     19  C   UNL     1      26.782   1.087   4.080  0.00  0.00    +0.000 A 
ATOM     20  C   UNL     1      27.218  -0.183   4.562  0.00  0.00    +0.000 A 
ENDROOT
BRANCH  19  23
ATOM     21  N   UNL     1      31.122   4.498   2.054  0.00  0.00    +0.000 NA
ATOM     22  N   UNL     1      27.121   1.164   1.237  0.00  0.00    +0.000 N 
ATOM     23  C   UNL     1      27.819   2.119   3.481  0.00  0.00    +0.000 C 
ATOM     24  C   UNL     1      29.323   1.656   3.752  0.00  0.00    +0.000 C 
ATOM     25  C   UNL     1      27.650   2.241   1.928  0.00  0.00    +0.000 A 
ATOM     26  C   UNL     1      30.424   2.360   2.942  0.00  0.00    +0.000 C 
ATOM     27  C   UNL     1      31.825   1.777   3.120  0.00  0.00    +0.000 C 
ATOM     28  C   UNL     1      30.545   3.851   3.219  0.00  0.00    +0.000 C 
ATOM     29  C   UNL     1      28.003   3.193   0.954  0.00  0.00    +0.000 A 
ATOM     30  C   UNL     1      32.873   2.521   2.239  0.00  0.00    +0.000 C 
ATOM     31  C   UNL     1      32.481   3.984   1.776  0.00  0.00    +0.000 C 
ATOM     32  C   UNL     1      28.698   4.539   1.072  0.00  0.00    +0.000 C 
ATOM     33  C   UNL     1      30.241   4.479   0.857  0.00  0.00    +0.000 C 
ATOM     34  C   UNL     1      27.610   2.649  -0.326  0.00  0.00    +0.000 A 
ATOM     35  C   UNL     1      27.066   1.392  -0.109  0.00  0.00    +0.000 A 
ATOM     36  C   UNL     1      27.689   3.118  -1.657  0.00  0.00    +0.000 A 
ATOM     37  C   UNL     1      26.586   0.575  -1.141  0.00  0.00    +0.000 A 
ATOM     38  C   UNL     1      27.214   2.319  -2.704  0.00  0.00    +0.000 A 
ATOM     39  C   UNL     1      26.670   1.065  -2.446  0.00  0.00    +0.000 A 
ATOM     40  H   UNL     1      26.790   0.311   1.671  0.00  0.00    +0.000 HD
BRANCH  23  42
ATOM     41  O   UNL     1      28.003   3.861   5.273  0.00  0.00    +0.000 OA
ATOM     42  C   UNL     1      27.521   3.468   4.217  0.00  0.00    +0.000 C 
BRANCH  42  43
ATOM     43  O   UNL     1      26.629   4.214   3.484  0.00  0.00    +0.000 OA
ATOM     44  C   UNL     1      25.865   5.133   4.264  0.00  0.00    +0.000 C 
ENDBRANCH  42  43
ENDBRANCH  23  42
BRANCH  30  45
ATOM     45  O   UNL     1      34.056   2.637   3.069  0.00  0.00    +0.000 OA
ATOM     46  H   UNL     1      34.260   1.748   3.410  0.00  0.00    +0.000 HD
ENDBRANCH  30  45
BRANCH  30  47
ATOM     47  C   UNL     1      33.339   1.647   1.051  0.00  0.00    +0.000 C 
ATOM     48  C   UNL     1      33.326   0.144   1.269  0.00  0.00    +0.000 C 
ENDBRANCH  30  47
ENDBRANCH  19  23
BRANCH   7  49
ATOM     49  O   UNL     1      20.955  -2.468   4.671  0.00  0.00    +0.000 OA
ATOM     50  H   UNL     1      21.695  -2.600   4.043  0.00  0.00    +0.000 HD
ENDBRANCH   7  49
BRANCH   7  52
ATOM     51  O   UNL     1      21.900  -1.249   7.915  0.00  0.00    +0.000 OA
ATOM     52  C   UNL     1      21.286  -1.755   6.986  0.00  0.00    +0.000 C 
BRANCH  52  53
ATOM     53  O   UNL     1      20.373  -2.770   7.142  0.00  0.00    +0.000 OA
ATOM     54  C   UNL     1      19.786  -2.826   8.444  0.00  0.00    +0.000 C 
ENDBRANCH  52  53
ENDBRANCH   7  52
BRANCH  20  55
ATOM     55  O   UNL     1      28.550  -0.483   4.426  0.00  0.00    +0.000 OA
ATOM     56  C   UNL     1      28.901  -1.833   4.714  0.00  0.00    +0.000 C 
ENDBRANCH  20  55
BRANCH   6  57
ATOM     57  C   UNL     1      20.534  -0.140   2.616  0.00  0.00    +0.000 C 
ATOM     58  C   UNL     1      21.604   0.067   1.543  0.00  0.00    +0.000 C 
ENDBRANCH   6  57
BRANCH   9  59
ATOM     59  O   UNL     1      20.050   0.667   6.309  0.00  0.00    +0.000 OA
BRANCH  59  61
ATOM     60  O   UNL     1      18.321   1.907   7.160  0.00  0.00    +0.000 OA
ATOM     61  C   UNL     1      18.754   0.874   6.669  0.00  0.00    +0.000 C 
ATOM     62  C   UNL     1      17.929  -0.332   6.343  0.00  0.00    +0.000 C 
ENDBRANCH  59  61
ENDBRANCH   9  59
TORSDOF 12
ENDMDL
MODEL 2
REMARK VINA RESULT:      -7.0      3.598      7.305
REMARK  Name = 
REMARK  19 active torsions:
REMARK  status: ('A' for Active; 'I' for Inactive)
REMARK    1  A    between atoms: O_1  and  C_20
REMARK    2  A    between atoms: O_1  and  C_36
REMARK    3  A    between atoms: O_2  and  C_18
REMARK    4  A    between atoms: O_3  and  C_28
REMARK    5  A    between atoms: O_3  and  C_42
REMARK    6  A    between atoms: O_5  and  C_34
REMARK    7  A    between atoms: O_5  and  C_50
REMARK    8  A    between atoms: O_7  and  C_40
REMARK    9  A    between atoms: O_7  and  C_56
REMARK   10  A    between atoms: O_9  and  C_46
REMARK   11  A    between atoms: N_11  and  C_30
REMARK   12  A    between atoms: C_17  and  C_23
REMARK   13  A    between atoms: C_18  and  C_28
REMARK   14  A    between atoms: C_23  and  C_32
REMARK   15  A    between atoms: C_33  and  C_35
REMARK   16  A    between atoms: C_35  and  C_40
REMARK   17  A    between atoms: C_36  and  C_41
REMARK   18  A    between atoms: C_46  and  C_53
REMARK   19  A    between atoms: C_53  and  C_57
REMARK                            x       y       z     vdW  Elec       q    Type
REMARK                         _______ _______ _______ _____ _____    ______ ____
ROOT
ATOM      1  N   UNL     1      21.288  -1.522   9.888  0.00  0.00    +0.000 NA
ATOM      2  N   UNL     1      17.578  -1.661   6.889  0.00  0.00    +0.000 N 
ATOM      3  C   UNL     1      19.454  -1.572   8.450  0.00  0.00    +0.000 C 
ATOM      4  C   UNL     1      20.015  -0.812   9.665  0.00  0.00    +0.000 C 
ATOM      5  C   UNL     1      17.946  -1.294   8.289  0.00  0.00    +0.000 C 
ATOM      6  C   UNL     1      18.999  -0.729  10.896  0.00  0.00    +0.000 C 
ATOM      7  C   UNL     1      17.048  -1.782   9.438  0.00  0.00    +0.000 C 
ATOM      8  C   UNL     1      19.962  -3.017   8.612  0.00  0.00    +0.000 C 
ATOM      9  C   UNL     1      17.812  -1.787  10.803  0.00  0.00    +0.000 C 
ATOM     10  C   UNL     1      19.863  -1.123   7.060  0.00  0.00    +0.000 A 
ATOM     11  C   UNL     1      21.060  -2.946   9.670  0.00  0.00    +0.000 C 
ATOM     12  C   UNL     1      18.762  -1.254   6.202  0.00  0.00    +0.000 A 
ATOM     13  C   UNL     1      19.713  -0.950  12.231  0.00  0.00    +0.000 C 
ATOM     14  C   UNL     1      21.948  -1.212  11.147  0.00  0.00    +0.000 C 
ATOM     15  C   UNL     1      21.035  -1.152  12.328  0.00  0.00    +0.000 C 
ATOM     16  C   UNL     1      21.107  -0.699   6.604  0.00  0.00    +0.000 A 
ATOM     17  C   UNL     1      16.340  -1.103   6.349  0.00  0.00    +0.000 C 
ATOM     18  C   UNL     1      18.915  -0.995   4.853  0.00  0.00    +0.000 A 
ATOM     19  C   UNL     1      21.294  -0.422   5.236  0.00  0.00    +0.000 A 
ATOM     20  C   UNL     1      20.171  -0.591   4.372  0.00  0.00    +0.000 A 
ENDROOT
BRANCH  19  23
ATOM     21  N   UNL     1      26.291   1.028   2.497  0.00  0.00    +0.000 NA
ATOM     22  N   UNL     1      21.658   2.354   4.636  0.00  0.00    +0.000 N 
ATOM     23  C   UNL     1      22.692   0.038   4.659  0.00  0.00    +0.000 C 
ATOM     24  C   UNL     1      22.873  -0.422   3.140  0.00  0.00    +0.000 C 
ATOM     25  C   UNL     1      22.818   1.599   4.683  0.00  0.00    +0.000 A 
ATOM     26  C   UNL     1      24.010   0.240   2.344  0.00  0.00    +0.000 C 
ATOM     27  C   UNL     1      24.045  -0.113   0.858  0.00  0.00    +0.000 C 
ATOM     28  C   UNL     1      25.402  -0.053   2.884  0.00  0.00    +0.000 C 
ATOM     29  C   UNL     1      23.882   2.518   4.647  0.00  0.00    +0.000 A 
ATOM     30  C   UNL     1      25.200   0.626   0.118  0.00  0.00    +0.000 C 
ATOM     31  C   UNL     1      26.396   1.131   1.025  0.00  0.00    +0.000 C 
ATOM     32  C   UNL     1      25.388   2.310   4.590  0.00  0.00    +0.000 C 
ATOM     33  C   UNL     1      25.977   2.327   3.147  0.00  0.00    +0.000 C 
ATOM     34  C   UNL     1      23.297   3.839   4.629  0.00  0.00    +0.000 A 
ATOM     35  C   UNL     1      21.918   3.696   4.625  0.00  0.00    +0.000 A 
ATOM     36  C   UNL     1      23.828   5.148   4.600  0.00  0.00    +0.000 A 
ATOM     37  C   UNL     1      21.033   4.782   4.601  0.00  0.00    +0.000 A 
ATOM     38  C   UNL     1      22.963   6.248   4.577  0.00  0.00    +0.000 A 
ATOM     39  C   UNL     1      21.585   6.065   4.578  0.00  0.00    +0.000 A 
ATOM     40  H   UNL     1      20.723   1.968   4.631  0.00  0.00    +0.000 HD
BRANCH  23  42
ATOM     41  O   UNL     1      24.325  -0.183   6.546  0.00  0.00    +0.000 OA
ATOM     42  C   UNL     1      23.757  -0.658   5.570  0.00  0.00    +0.000 C 
BRANCH  42  43
ATOM     43  O   UNL     1      23.970  -1.947   5.140  0.00  0.00    +0.000 OA
ATOM     44  C   UNL     1      23.928  -2.919   6.184  0.00  0.00    +0.000 C 
ENDBRANCH  42  43
ENDBRANCH  23  42
BRANCH  30  45
ATOM     45  O   UNL     1      25.746  -0.348  -0.806  0.00  0.00    +0.000 OA
ATOM     46  H   UNL     1      26.696  -0.432  -0.612  0.00  0.00    +0.000 HD
ENDBRANCH  30  45
BRANCH  30  47
ATOM     47  C   UNL     1      24.660   1.747  -0.801  0.00  0.00    +0.000 C 
ATOM     48  C   UNL     1      24.189   3.018  -0.116  0.00  0.00    +0.000 C 
ENDBRANCH  30  47
ENDBRANCH  19  23
BRANCH   7  49
ATOM     49  O   UNL     1      15.997  -0.769   9.568  0.00  0.00    +0.000 OA
ATOM     50  H   UNL     1      16.389  -0.041  10.093  0.00  0.00    +0.000 HD
ENDBRANCH   7  49
BRANCH   7  52
ATOM     51  O   UNL     1      16.881  -4.090   8.539  0.00  0.00    +0.000 OA
ATOM     52  C   UNL     1      16.378  -3.144   9.128  0.00  0.00    +0.000 C 
BRANCH  52  53
ATOM     53  O   UNL     1      15.126  -3.180   9.693  0.00  0.00    +0.000 OA
ATOM     54  C   UNL     1      14.698  -4.490  10.071  0.00  0.00    +0.000 C 
ENDBRANCH  52  53
ENDBRANCH   7  52
BRANCH  20  55
ATOM     55  O   UNL     1      20.347  -0.281   3.047  0.00  0.00    +0.000 OA
ATOM     56  C   UNL     1      19.324   0.527   2.472  0.00  0.00    +0.000 C 
ENDBRANCH  20  55
BRANCH   6  57
ATOM     57  C   UNL     1      18.375   0.714  10.969  0.00  0.00    +0.000 C 
ATOM     58  C   UNL     1      17.673   1.088  12.276  0.00  0.00    +0.000 C 
ENDBRANCH   6  57
BRANCH   9  59
ATOM     59  O   UNL     1      18.347  -3.094  11.122  0.00  0.00    +0.000 OA
BRANCH  59  61
ATOM     60  O   UNL     1      16.795  -3.451  12.770  0.00  0.00    +0.000 OA
ATOM     61  C   UNL     1      17.867  -3.706  12.238  0.00  0.00    +0.000 C 
ATOM     62  C   UNL     1      18.824  -4.760  12.700  0.00  0.00    +0.000 C 
ENDBRANCH  59  61
ENDBRANCH   9  59
TORSDOF 12
ENDMDL
MODEL 3
REMARK VINA RESULT:      -6.9     36.686     40.273
REMARK  Name = 
REMARK  19 active torsions:
REMARK  status: ('A' for Active; 'I' for Inactive)
REMARK    1  A    between atoms: O_1  and  C_20
REMARK    2  A    between atoms: O_1  and  C_36
REMARK    3  A    between atoms: O_2  and  C_18
REMARK    4  A    between atoms: O_3  and  C_28
REMARK    5  A    between atoms: O_3  and  C_42
REMARK    6  A    between atoms: O_5  and  C_34
REMARK    7  A    between atoms: O_5  and  C_50
REMARK    8  A    between atoms: O_7  and  C_40
REMARK    9  A    between atoms: O_7  and  C_56
REMARK   10  A    between atoms: O_9  and  C_46
REMARK   11  A    between atoms: N_11  and  C_30
REMARK   12  A    between atoms: C_17  and  C_23
REMARK   13  A    between atoms: C_18  and  C_28
REMARK   14  A    between atoms: C_23  and  C_32
REMARK   15  A    between atoms: C_33  and  C_35
REMARK   16  A    between atoms: C_35  and  C_40
REMARK   17  A    between atoms: C_36  and  C_41
REMARK   18  A    between atoms: C_46  and  C_53
REMARK   19  A    between atoms: C_53  and  C_57
REMARK                            x       y       z     vdW  Elec       q    Type
REMARK                         _______ _______ _______ _____ _____    ______ ____
ROOT
ATOM      1  N   UNL     1      50.870  -2.524  36.646  0.00  0.00    +0.000 NA
ATOM      2  N   UNL     1      52.378  -6.401  34.306  0.00  0.00    +0.000 N 
ATOM      3  C   UNL     1      51.585  -4.440  35.526  0.00  0.00    +0.000 C 
ATOM      4  C   UNL     1      50.436  -3.913  36.403  0.00  0.00    +0.000 C 
ATOM      5  C   UNL     1      51.573  -5.982  35.492  0.00  0.00    +0.000 C 
ATOM      6  C   UNL     1      50.136  -4.821  37.684  0.00  0.00    +0.000 C 
ATOM      7  C   UNL     1      51.823  -6.685  36.836  0.00  0.00    +0.000 C 
ATOM      8  C   UNL     1      52.838  -3.686  36.012  0.00  0.00    +0.000 C 
ATOM      9  C   UNL     1      51.327  -5.817  38.039  0.00  0.00    +0.000 C 
ATOM     10  C   UNL     1      51.509  -4.232  34.026  0.00  0.00    +0.000 A 
ATOM     11  C   UNL     1      52.313  -2.530  36.859  0.00  0.00    +0.000 C 
ATOM     12  C   UNL     1      52.031  -5.364  33.386  0.00  0.00    +0.000 A 
ATOM     13  C   UNL     1      49.861  -3.968  38.925  0.00  0.00    +0.000 C 
ATOM     14  C   UNL     1      50.120  -1.821  37.676  0.00  0.00    +0.000 C 
ATOM     15  C   UNL     1      49.844  -2.628  38.903  0.00  0.00    +0.000 C 
ATOM     16  C   UNL     1      51.071  -3.120  33.315  0.00  0.00    +0.000 A 
ATOM     17  C   UNL     1      52.175  -7.757  33.798  0.00  0.00    +0.000 C 
ATOM     18  C   UNL     1      52.158  -5.372  32.010  0.00  0.00    +0.000 A 
ATOM     19  C   UNL     1      51.181  -3.099  31.911  0.00  0.00    +0.000 A 
ATOM     20  C   UNL     1      51.745  -4.246  31.279  0.00  0.00    +0.000 A 
ENDROOT
BRANCH  19  23
ATOM     21  N   UNL     1      49.337   1.845  29.315  0.00  0.00    +0.000 NA
ATOM     22  N   UNL     1      53.209  -1.413  30.794  0.00  0.00    +0.000 N 
ATOM     23  C   UNL     1      50.724  -1.851  31.054  0.00  0.00    +0.000 C 
ATOM     24  C   UNL     1      50.128  -0.696  31.982  0.00  0.00    +0.000 C 
ATOM     25  C   UNL     1      51.937  -1.234  30.277  0.00  0.00    +0.000 A 
ATOM     26  C   UNL     1      49.968   0.695  31.346  0.00  0.00    +0.000 C 
ATOM     27  C   UNL     1      49.544   1.799  32.313  0.00  0.00    +0.000 C 
ATOM     28  C   UNL     1      48.982   0.740  30.188  0.00  0.00    +0.000 C 
ATOM     29  C   UNL     1      52.087  -0.403  29.153  0.00  0.00    +0.000 A 
ATOM     30  C   UNL     1      49.442   3.180  31.598  0.00  0.00    +0.000 C 
ATOM     31  C   UNL     1      49.251   3.138  30.027  0.00  0.00    +0.000 C 
ATOM     32  C   UNL     1      51.061   0.214  28.216  0.00  0.00    +0.000 C 
ATOM     33  C   UNL     1      50.631   1.660  28.608  0.00  0.00    +0.000 C 
ATOM     34  C   UNL     1      53.502  -0.149  29.004  0.00  0.00    +0.000 A 
ATOM     35  C   UNL     1      54.164  -0.792  30.039  0.00  0.00    +0.000 A 
ATOM     36  C   UNL     1      54.274   0.593  28.082  0.00  0.00    +0.000 A 
ATOM     37  C   UNL     1      55.554  -0.749  30.206  0.00  0.00    +0.000 A 
ATOM     38  C   UNL     1      55.665   0.649  28.228  0.00  0.00    +0.000 A 
ATOM     39  C   UNL     1      56.294  -0.014  29.277  0.00  0.00    +0.000 A 
ATOM     40  H   UNL     1      53.420  -1.956  31.622  0.00  0.00    +0.000 HD
BRANCH  23  42
ATOM     41  O   UNL     1      49.740  -2.677  28.904  0.00  0.00    +0.000 OA
ATOM     42  C   UNL     1      49.620  -2.401  30.091  0.00  0.00    +0.000 C 
BRANCH  42  43
ATOM     43  O   UNL     1      48.443  -2.575  30.779  0.00  0.00    +0.000 OA
ATOM     44  C   UNL     1      47.300  -2.740  29.940  0.00  0.00    +0.000 C 
ENDBRANCH  42  43
ENDBRANCH  23  42
BRANCH  30  45
ATOM     45  O   UNL     1      48.263   3.812  32.157  0.00  0.00    +0.000 OA
ATOM     46  H   UNL     1      47.496   3.502  31.642  0.00  0.00    +0.000 HD
ENDBRANCH  30  45
BRANCH  30  47
ATOM     47  C   UNL     1      50.597   4.121  32.013  0.00  0.00    +0.000 C 
ATOM     48  C   UNL     1      51.942   3.878  31.350  0.00  0.00    +0.000 C 
ENDBRANCH  30  47
ENDBRANCH  19  23
BRANCH   7  49
ATOM     49  O   UNL     1      50.969  -7.875  36.818  0.00  0.00    +0.000 OA
ATOM     50  H   UNL     1      50.456  -7.825  35.985  0.00  0.00    +0.000 HD
ENDBRANCH   7  49
BRANCH   7  52
ATOM     51  O   UNL     1      54.295  -6.517  36.682  0.00  0.00    +0.000 OA
ATOM     52  C   UNL     1      53.294  -7.142  37.001  0.00  0.00    +0.000 C 
BRANCH  52  53
ATOM     53  O   UNL     1      53.330  -8.353  37.649  0.00  0.00    +0.000 OA
ATOM     54  C   UNL     1      54.372  -8.459  38.622  0.00  0.00    +0.000 C 
ENDBRANCH  52  53
ENDBRANCH   7  52
BRANCH  20  55
ATOM     55  O   UNL     1      51.813  -4.238  29.908  0.00  0.00    +0.000 OA
ATOM     56  C   UNL     1      53.032  -4.729  29.358  0.00  0.00    +0.000 C 
ENDBRANCH  20  55
BRANCH   6  57
ATOM     57  C   UNL     1      48.833  -5.667  37.440  0.00  0.00    +0.000 C 
ATOM     58  C   UNL     1      47.967  -5.258  36.247  0.00  0.00    +0.000 C 
ENDBRANCH   6  57
BRANCH   9  59
ATOM     59  O   UNL     1      52.399  -5.047  38.633  0.00  0.00    +0.000 OA
BRANCH  59  61
ATOM     60  O   UNL     1      52.326  -6.295  40.553  0.00  0.00    +0.000 OA
ATOM     61  C   UNL     1      52.720  -5.322  39.926  0.00  0.00    +0.000 C 
ATOM     62  C   UNL     1      53.652  -4.279  40.460  0.00  0.00    +0.000 C 
ENDBRANCH  59  61
ENDBRANCH   9  59
TORSDOF 12
ENDMDL
MODEL 4
REMARK VINA RESULT:      -6.7      4.153     12.319
REMARK  Name = 
REMARK  19 active torsions:
REMARK  status: ('A' for Active; 'I' for Inactive)
REMARK    1  A    between atoms: O_1  and  C_20
REMARK    2  A    between atoms: O_1  and  C_36
REMARK    3  A    between atoms: O_2  and  C_18
REMARK    4  A    between atoms: O_3  and  C_28
REMARK    5  A    between atoms: O_3  and  C_42
REMARK    6  A    between atoms: O_5  and  C_34
REMARK    7  A    between atoms: O_5  and  C_50
REMARK    8  A    between atoms: O_7  and  C_40
REMARK    9  A    between atoms: O_7  and  C_56
REMARK   10  A    between atoms: O_9  and  C_46
REMARK   11  A    between atoms: N_11  and  C_30
REMARK   12  A    between atoms: C_17  and  C_23
REMARK   13  A    between atoms: C_18  and  C_28
REMARK   14  A    between atoms: C_23  and  C_32
REMARK   15  A    between atoms: C_33  and  C_35
REMARK   16  A    between atoms: C_35  and  C_40
REMARK   17  A    between atoms: C_36  and  C_41
REMARK   18  A    between atoms: C_46  and  C_53
REMARK   19  A    between atoms: C_53  and  C_57
REMARK                            x       y       z     vdW  Elec       q    Type
REMARK                         _______ _______ _______ _____ _____    ______ ____
ROOT
ATOM      1  N   UNL     1      22.764  -1.681   6.500  0.00  0.00    +0.000 NA
ATOM      2  N   UNL     1      20.903   2.479   5.081  0.00  0.00    +0.000 N 
ATOM      3  C   UNL     1      21.867   0.345   5.771  0.00  0.00    +0.000 C 
ATOM      4  C   UNL     1      22.325  -1.030   5.252  0.00  0.00    +0.000 C 
ATOM      5  C   UNL     1      21.762   1.353   4.609  0.00  0.00    +0.000 C 
ATOM      6  C   UNL     1      23.385  -0.946   4.059  0.00  0.00    +0.000 C 
ATOM      7  C   UNL     1      23.078   1.684   3.886  0.00  0.00    +0.000 C 
ATOM      8  C   UNL     1      22.784   0.643   6.974  0.00  0.00    +0.000 C 
ATOM      9  C   UNL     1      24.078   0.483   3.935  0.00  0.00    +0.000 C 
ATOM     10  C   UNL     1      20.442   0.498   6.265  0.00  0.00    +0.000 A 
ATOM     11  C   UNL     1      23.453  -0.687   7.314  0.00  0.00    +0.000 C 
ATOM     12  C   UNL     1      19.967   1.762   5.889  0.00  0.00    +0.000 A 
ATOM     13  C   UNL     1      24.496  -1.987   4.220  0.00  0.00    +0.000 C 
ATOM     14  C   UNL     1      23.507  -2.918   6.316  0.00  0.00    +0.000 C 
ATOM     15  C   UNL     1      24.530  -2.870   5.227  0.00  0.00    +0.000 C 
ATOM     16  C   UNL     1      19.675  -0.382   7.022  0.00  0.00    +0.000 A 
ATOM     17  C   UNL     1      20.295   3.336   4.065  0.00  0.00    +0.000 C 
ATOM     18  C   UNL     1      18.718   2.174   6.310  0.00  0.00    +0.000 A 
ATOM     19  C   UNL     1      18.395   0.005   7.462  0.00  0.00    +0.000 A 
ATOM     20  C   UNL     1      17.941   1.307   7.097  0.00  0.00    +0.000 A 
ENDROOT
BRANCH  19  23
ATOM     21  N   UNL     1      15.596  -3.887  10.866  0.00  0.00    +0.000 NA
ATOM     22  N   UNL     1      17.652   0.903  10.077  0.00  0.00    +0.000 N 
ATOM     23  C   UNL     1      17.491  -0.944   8.346  0.00  0.00    +0.000 C 
ATOM     24  C   UNL     1      18.323  -2.191   8.897  0.00  0.00    +0.000 C 
ATOM     25  C   UNL     1      16.934  -0.178   9.594  0.00  0.00    +0.000 A 
ATOM     26  C   UNL     1      17.688  -3.002  10.039  0.00  0.00    +0.000 C 
ATOM     27  C   UNL     1      18.586  -4.084  10.636  0.00  0.00    +0.000 C 
ATOM     28  C   UNL     1      16.384  -3.690   9.663  0.00  0.00    +0.000 C 
ATOM     29  C   UNL     1      15.860  -0.362  10.484  0.00  0.00    +0.000 A 
ATOM     30  C   UNL     1      17.883  -4.832  11.808  0.00  0.00    +0.000 C 
ATOM     31  C   UNL     1      16.301  -4.761  11.829  0.00  0.00    +0.000 C 
ATOM     32  C   UNL     1      14.775  -1.425  10.543  0.00  0.00    +0.000 C 
ATOM     33  C   UNL     1      15.110  -2.624  11.481  0.00  0.00    +0.000 C 
ATOM     34  C   UNL     1      15.951   0.687  11.474  0.00  0.00    +0.000 A 
ATOM     35  C   UNL     1      17.073   1.451  11.188  0.00  0.00    +0.000 A 
ATOM     36  C   UNL     1      15.179   1.039  12.604  0.00  0.00    +0.000 A 
ATOM     37  C   UNL     1      17.467   2.553  11.956  0.00  0.00    +0.000 A 
ATOM     38  C   UNL     1      15.554   2.138  13.386  0.00  0.00    +0.000 A 
ATOM     39  C   UNL     1      16.683   2.884  13.064  0.00  0.00    +0.000 A 
ATOM     40  H   UNL     1      18.495   1.267   9.653  0.00  0.00    +0.000 HD
BRANCH  23  42
ATOM     41  O   UNL     1      15.189  -1.043   7.364  0.00  0.00    +0.000 OA
ATOM     42  C   UNL     1      16.351  -1.428   7.390  0.00  0.00    +0.000 C 
BRANCH  42  43
ATOM     43  O   UNL     1      16.843  -2.367   6.513  0.00  0.00    +0.000 OA
ATOM     44  C   UNL     1      15.848  -3.242   5.984  0.00  0.00    +0.000 C 
ENDBRANCH  42  43
ENDBRANCH  23  42
BRANCH  30  45
ATOM     45  O   UNL     1      18.247  -6.225  11.644  0.00  0.00    +0.000 OA
ATOM     46  H   UNL     1      18.297  -6.619  12.534  0.00  0.00    +0.000 HD
ENDBRANCH  30  45
BRANCH  30  47
ATOM     47  C   UNL     1      18.495  -4.448  13.175  0.00  0.00    +0.000 C 
ATOM     48  C   UNL     1      17.601  -3.668  14.124  0.00  0.00    +0.000 C 
ENDBRANCH  30  47
ENDBRANCH  19  23
BRANCH   7  49
ATOM     49  O   UNL     1      22.717   1.851   2.477  0.00  0.00    +0.000 OA
ATOM     50  H   UNL     1      21.925   2.428   2.468  0.00  0.00    +0.000 HD
ENDBRANCH   7  49
BRANCH   7  52
ATOM     51  O   UNL     1      23.744   3.411   5.541  0.00  0.00    +0.000 OA
ATOM     52  C   UNL     1      23.712   3.005   4.388  0.00  0.00    +0.000 C 
BRANCH  52  53
ATOM     53  O   UNL     1      24.327   3.648   3.341  0.00  0.00    +0.000 OA
ATOM     54  C   UNL     1      24.085   5.056   3.302  0.00  0.00    +0.000 C 
ENDBRANCH  52  53
ENDBRANCH   7  52
BRANCH  20  55
ATOM     55  O   UNL     1      16.677   1.665   7.494  0.00  0.00    +0.000 OA
ATOM     56  C   UNL     1      16.121   2.785   6.810  0.00  0.00    +0.000 C 
ENDBRANCH  20  55
BRANCH   6  57
ATOM     57  C   UNL     1      22.674  -1.275   2.695  0.00  0.00    +0.000 C 
ATOM     58  C   UNL     1      23.587  -1.578   1.505  0.00  0.00    +0.000 C 
ENDBRANCH   6  57
BRANCH   9  59
ATOM     59  O   UNL     1      25.036   0.615   5.013  0.00  0.00    +0.000 OA
BRANCH  59  61
ATOM     60  O   UNL     1      26.764   0.812   3.522  0.00  0.00    +0.000 OA
ATOM     61  C   UNL     1      26.338   0.804   4.668  0.00  0.00    +0.000 C 
ATOM     62  C   UNL     1      27.168   1.034   5.893  0.00  0.00    +0.000 C 
ENDBRANCH  59  61
ENDBRANCH   9  59
TORSDOF 12
ENDMDL
MODEL 5
REMARK VINA RESULT:      -6.6     15.980     21.463
REMARK  Name = 
REMARK  19 active torsions:
REMARK  status: ('A' for Active; 'I' for Inactive)
REMARK    1  A    between atoms: O_1  and  C_20
REMARK    2  A    between atoms: O_1  and  C_36
REMARK    3  A    between atoms: O_2  and  C_18
REMARK    4  A    between atoms: O_3  and  C_28
REMARK    5  A    between atoms: O_3  and  C_42
REMARK    6  A    between atoms: O_5  and  C_34
REMARK    7  A    between atoms: O_5  and  C_50
REMARK    8  A    between atoms: O_7  and  C_40
REMARK    9  A    between atoms: O_7  and  C_56
REMARK   10  A    between atoms: O_9  and  C_46
REMARK   11  A    between atoms: N_11  and  C_30
REMARK   12  A    between atoms: C_17  and  C_23
REMARK   13  A    between atoms: C_18  and  C_28
REMARK   14  A    between atoms: C_23  and  C_32
REMARK   15  A    between atoms: C_33  and  C_35
REMARK   16  A    between atoms: C_35  and  C_40
REMARK   17  A    between atoms: C_36  and  C_41
REMARK   18  A    between atoms: C_46  and  C_53
REMARK   19  A    between atoms: C_53  and  C_57
REMARK                            x       y       z     vdW  Elec       q    Type
REMARK                         _______ _______ _______ _____ _____    ______ ____
ROOT
ATOM      1  N   UNL     1      46.324  -0.536  12.059  0.00  0.00    +0.000 NA
ATOM      2  N   UNL     1      45.081  -1.513   7.555  0.00  0.00    +0.000 N 
ATOM      3  C   UNL     1      45.727  -1.051   9.864  0.00  0.00    +0.000 C 
ATOM      4  C   UNL     1      45.946  -1.704  11.240  0.00  0.00    +0.000 C 
ATOM      5  C   UNL     1      45.736  -2.119   8.753  0.00  0.00    +0.000 C 
ATOM      6  C   UNL     1      46.961  -2.938  11.212  0.00  0.00    +0.000 C 
ATOM      7  C   UNL     1      47.060  -2.878   8.561  0.00  0.00    +0.000 C 
ATOM      8  C   UNL     1      46.722   0.125   9.817  0.00  0.00    +0.000 C 
ATOM      9  C   UNL     1      47.863  -2.978   9.900  0.00  0.00    +0.000 C 
ATOM     10  C   UNL     1      44.362  -0.475   9.542  0.00  0.00    +0.000 A 
ATOM     11  C   UNL     1      47.189   0.320  11.257  0.00  0.00    +0.000 C 
ATOM     12  C   UNL     1      44.076  -0.721   8.192  0.00  0.00    +0.000 A 
ATOM     13  C   UNL     1      47.902  -2.919  12.419  0.00  0.00    +0.000 C 
ATOM     14  C   UNL     1      46.859  -0.859  13.373  0.00  0.00    +0.000 C 
ATOM     15  C   UNL     1      47.835  -1.991  13.384  0.00  0.00    +0.000 C 
ATOM     16  C   UNL     1      43.496   0.244  10.359  0.00  0.00    +0.000 A 
ATOM     17  C   UNL     1      44.576  -2.424   6.529  0.00  0.00    +0.000 C 
ATOM     18  C   UNL     1      42.922  -0.205   7.634  0.00  0.00    +0.000 A 
ATOM     19  C   UNL     1      42.309   0.779   9.822  0.00  0.00    +0.000 A 
ATOM     20  C   UNL     1      42.049   0.546   8.439  0.00  0.00    +0.000 A 
ENDROOT
BRANCH  19  23
ATOM     21  N   UNL     1      39.049   3.943  13.555  0.00  0.00    +0.000 NA
ATOM     22  N   UNL     1      41.961   3.547   9.178  0.00  0.00    +0.000 N 
ATOM     23  C   UNL     1      41.302   1.627  10.699  0.00  0.00    +0.000 C 
ATOM     24  C   UNL     1      41.906   1.932  12.145  0.00  0.00    +0.000 C 
ATOM     25  C   UNL     1      41.006   3.010  10.025  0.00  0.00    +0.000 A 
ATOM     26  C   UNL     1      41.208   3.023  12.974  0.00  0.00    +0.000 C 
ATOM     27  C   UNL     1      41.912   3.387  14.280  0.00  0.00    +0.000 C 
ATOM     28  C   UNL     1      39.768   2.699  13.343  0.00  0.00    +0.000 C 
ATOM     29  C   UNL     1      39.988   3.975  10.126  0.00  0.00    +0.000 A 
ATOM     30  C   UNL     1      41.164   4.523  15.039  0.00  0.00    +0.000 C 
ATOM     31  C   UNL     1      39.634   4.714  14.674  0.00  0.00    +0.000 C 
ATOM     32  C   UNL     1      38.718   4.012  10.962  0.00  0.00    +0.000 C 
ATOM     33  C   UNL     1      38.875   4.755  12.323  0.00  0.00    +0.000 C 
ATOM     34  C   UNL     1      40.362   5.072   9.264  0.00  0.00    +0.000 A 
ATOM     35  C   UNL     1      41.589   4.770   8.693  0.00  0.00    +0.000 A 
ATOM     36  C   UNL     1      39.764   6.310   8.935  0.00  0.00    +0.000 A 
ATOM     37  C   UNL     1      42.254   5.625   7.805  0.00  0.00    +0.000 A 
ATOM     38  C   UNL     1      40.410   7.179   8.048  0.00  0.00    +0.000 A 
ATOM     39  C   UNL     1      41.638   6.839   7.492  0.00  0.00    +0.000 A 
ATOM     40  H   UNL     1      42.826   3.088   8.925  0.00  0.00    +0.000 HD
BRANCH  23  42
ATOM     41  O   UNL     1      38.914   0.960  10.341  0.00  0.00    +0.000 OA
ATOM     42  C   UNL     1      40.019   0.739  10.818  0.00  0.00    +0.000 C 
BRANCH  42  43
ATOM     43  O   UNL     1      40.303  -0.399  11.538  0.00  0.00    +0.000 OA
ATOM     44  C   UNL     1      40.089  -1.610  10.815  0.00  0.00    +0.000 C 
ENDBRANCH  42  43
ENDBRANCH  23  42
BRANCH  30  45
ATOM     45  O   UNL     1      41.227   4.153  16.439  0.00  0.00    +0.000 OA
ATOM     46  H   UNL     1      42.047   3.644  16.568  0.00  0.00    +0.000 HD
ENDBRANCH  30  45
BRANCH  30  47
ATOM     47  C   UNL     1      41.942   5.858  14.974  0.00  0.00    +0.000 C 
ATOM     48  C   UNL     1      42.227   6.412  13.589  0.00  0.00    +0.000 C 
ENDBRANCH  30  47
ENDBRANCH  19  23
BRANCH   7  49
ATOM     49  O   UNL     1      46.677  -4.249   8.217  0.00  0.00    +0.000 OA
ATOM     50  H   UNL     1      47.330  -4.830   8.659  0.00  0.00    +0.000 HD
ENDBRANCH   7  49
BRANCH   7  52
ATOM     51  O   UNL     1      48.258  -1.138   7.256  0.00  0.00    +0.000 OA
ATOM     52  C   UNL     1      47.910  -2.301   7.401  0.00  0.00    +0.000 C 
BRANCH  52  53
ATOM     53  O   UNL     1      48.304  -3.321   6.568  0.00  0.00    +0.000 OA
ATOM     54  C   UNL     1      49.718  -3.525   6.530  0.00  0.00    +0.000 C 
ENDBRANCH  52  53
ENDBRANCH   7  52
BRANCH  20  55
ATOM     55  O   UNL     1      40.872   1.034   7.931  0.00  0.00    +0.000 OA
ATOM     56  C   UNL     1      40.156   0.134   7.089  0.00  0.00    +0.000 C 
ENDBRANCH  20  55
BRANCH   6  57
ATOM     57  C   UNL     1      46.158  -4.287  11.307  0.00  0.00    +0.000 C 
ATOM     58  C   UNL     1      44.691  -4.179  11.727  0.00  0.00    +0.000 C 
ENDBRANCH   6  57
BRANCH   9  59
ATOM     59  O   UNL     1      48.869  -1.942  10.010  0.00  0.00    +0.000 OA
BRANCH  59  61
ATOM     60  O   UNL     1      50.548  -3.501  10.045  0.00  0.00    +0.000 OA
ATOM     61  C   UNL     1      50.170  -2.338  10.018  0.00  0.00    +0.000 C 
ATOM     62  C   UNL     1      51.072  -1.145   9.953  0.00  0.00    +0.000 C 
ENDBRANCH  59  61
ENDBRANCH   9  59
TORSDOF 12
ENDMDL
MODEL 6
REMARK VINA RESULT:      -6.5     14.365     19.541
REMARK  Name = 
REMARK  19 active torsions:
REMARK  status: ('A' for Active; 'I' for Inactive)
REMARK    1  A    between atoms: O_1  and  C_20
REMARK    2  A    between atoms: O_1  and  C_36
REMARK    3  A    between atoms: O_2  and  C_18
REMARK    4  A    between atoms: O_3  and  C_28
REMARK    5  A    between atoms: O_3  and  C_42
REMARK    6  A    between atoms: O_5  and  C_34
REMARK    7  A    between atoms: O_5  and  C_50
REMARK    8  A    between atoms: O_7  and  C_40
REMARK    9  A    between atoms: O_7  and  C_56
REMARK   10  A    between atoms: O_9  and  C_46
REMARK   11  A    between atoms: N_11  and  C_30
REMARK   12  A    between atoms: C_17  and  C_23
REMARK   13  A    between atoms: C_18  and  C_28
REMARK   14  A    between atoms: C_23  and  C_32
REMARK   15  A    between atoms: C_33  and  C_35
REMARK   16  A    between atoms: C_35  and  C_40
REMARK   17  A    between atoms: C_36  and  C_41
REMARK   18  A    between atoms: C_46  and  C_53
REMARK   19  A    between atoms: C_53  and  C_57
REMARK                            x       y       z     vdW  Elec       q    Type
REMARK                         _______ _______ _______ _____ _____    ______ ____
ROOT
ATOM      1  N   UNL     1      41.015   2.201   9.068  0.00  0.00    +0.000 NA
ATOM      2  N   UNL     1      38.797   2.905  13.235  0.00  0.00    +0.000 N 
ATOM      3  C   UNL     1      39.931   2.506  11.110  0.00  0.00    +0.000 C 
ATOM      4  C   UNL     1      40.810   1.498  10.349  0.00  0.00    +0.000 C 
ATOM      5  C   UNL     1      39.238   1.823  12.305  0.00  0.00    +0.000 C 
ATOM      6  C   UNL     1      40.191   0.026  10.284  0.00  0.00    +0.000 C 
ATOM      7  C   UNL     1      38.244   0.703  11.955  0.00  0.00    +0.000 C 
ATOM      8  C   UNL     1      39.091   3.204  10.023  0.00  0.00    +0.000 C 
ATOM      9  C   UNL     1      38.635  -0.016  10.622  0.00  0.00    +0.000 C 
ATOM     10  C   UNL     1      40.608   3.605  11.905  0.00  0.00    +0.000 A 
ATOM     11  C   UNL     1      39.763   2.849   8.699  0.00  0.00    +0.000 C 
ATOM     12  C   UNL     1      39.878   3.826  13.081  0.00  0.00    +0.000 A 
ATOM     13  C   UNL     1      40.383  -0.605   8.903  0.00  0.00    +0.000 C 
ATOM     14  C   UNL     1      41.598   1.387   8.012  0.00  0.00    +0.000 C 
ATOM     15  C   UNL     1      41.025   0.011   7.901  0.00  0.00    +0.000 C 
ATOM     16  C   UNL     1      41.727   4.365  11.579  0.00  0.00    +0.000 A 
ATOM     17  C   UNL     1      38.509   2.531  14.618  0.00  0.00    +0.000 C 
ATOM     18  C   UNL     1      40.246   4.852  13.930  0.00  0.00    +0.000 A 
ATOM     19  C   UNL     1      42.132   5.415  12.426  0.00  0.00    +0.000 A 
ATOM     20  C   UNL     1      41.358   5.646  13.602  0.00  0.00    +0.000 A 
ENDROOT
BRANCH  19  23
ATOM     21  N   UNL     1      46.662   9.107  11.777  0.00  0.00    +0.000 NA
ATOM     22  N   UNL     1      44.746   4.289  12.733  0.00  0.00    +0.000 N 
ATOM     23  C   UNL     1      43.379   6.327  12.091  0.00  0.00    +0.000 C 
ATOM     24  C   UNL     1      43.609   7.434  13.219  0.00  0.00    +0.000 C 
ATOM     25  C   UNL     1      44.689   5.471  12.014  0.00  0.00    +0.000 A 
ATOM     26  C   UNL     1      44.966   8.158  13.216  0.00  0.00    +0.000 C 
ATOM     27  C   UNL     1      45.198   9.092  14.403  0.00  0.00    +0.000 C 
ATOM     28  C   UNL     1      45.227   8.985  11.965  0.00  0.00    +0.000 C 
ATOM     29  C   UNL     1      45.961   5.638  11.437  0.00  0.00    +0.000 A 
ATOM     30  C   UNL     1      46.607   9.755  14.343  0.00  0.00    +0.000 C 
ATOM     31  C   UNL     1      47.292   9.808  12.917  0.00  0.00    +0.000 C 
ATOM     32  C   UNL     1      46.548   6.770  10.609  0.00  0.00    +0.000 C 
ATOM     33  C   UNL     1      47.336   7.825  11.443  0.00  0.00    +0.000 C 
ATOM     34  C   UNL     1      46.744   4.480  11.804  0.00  0.00    +0.000 A 
ATOM     35  C   UNL     1      45.957   3.667  12.606  0.00  0.00    +0.000 A 
ATOM     36  C   UNL     1      48.067   4.064  11.535  0.00  0.00    +0.000 A 
ATOM     37  C   UNL     1      46.407   2.457  13.149  0.00  0.00    +0.000 A 
ATOM     38  C   UNL     1      48.538   2.858  12.066  0.00  0.00    +0.000 A 
ATOM     39  C   UNL     1      47.717   2.067  12.862  0.00  0.00    +0.000 A 
ATOM     40  H   UNL     1      43.980   3.910  13.275  0.00  0.00    +0.000 HD
BRANCH  23  42
ATOM     41  O   UNL     1      43.425   6.677   9.611  0.00  0.00    +0.000 OA
ATOM     42  C   UNL     1      43.032   7.004  10.724  0.00  0.00    +0.000 C 
BRANCH  42  43
ATOM     43  O   UNL     1      42.162   8.050  10.927  0.00  0.00    +0.000 OA
ATOM     44  C   UNL     1      41.962   8.869   9.776  0.00  0.00    +0.000 C 
ENDBRANCH  42  43
ENDBRANCH  23  42
BRANCH  30  45
ATOM     45  O   UNL     1      46.401  11.126  14.770  0.00  0.00    +0.000 OA
ATOM     46  H   UNL     1      47.219  11.617  14.574  0.00  0.00    +0.000 HD
ENDBRANCH  30  45
BRANCH  30  47
ATOM     47  C   UNL     1      47.555   9.172  15.417  0.00  0.00    +0.000 C 
ATOM     48  C   UNL     1      46.914   8.314  16.495  0.00  0.00    +0.000 C 
ENDBRANCH  30  47
ENDBRANCH  19  23
BRANCH   7  49
ATOM     49  O   UNL     1      38.396  -0.298  13.012  0.00  0.00    +0.000 OA
ATOM     50  H   UNL     1      38.668   0.196  13.813  0.00  0.00    +0.000 HD
ENDBRANCH   7  49
BRANCH   7  52
ATOM     51  O   UNL     1      36.309   2.110  11.289  0.00  0.00    +0.000 OA
ATOM     52  C   UNL     1      36.775   1.195  11.954  0.00  0.00    +0.000 C 
BRANCH  52  53
ATOM     53  O   UNL     1      36.018   0.388  12.769  0.00  0.00    +0.000 OA
ATOM     54  C   UNL     1      35.293   1.096  13.776  0.00  0.00    +0.000 C 
ENDBRANCH  52  53
ENDBRANCH   7  52
BRANCH  20  55
ATOM     55  O   UNL     1      41.780   6.643  14.444  0.00  0.00    +0.000 OA
ATOM     56  C   UNL     1      41.285   6.560  15.778  0.00  0.00    +0.000 C 
ENDBRANCH  20  55
BRANCH   6  57
ATOM     57  C   UNL     1      40.946  -0.910  11.299  0.00  0.00    +0.000 C 
ATOM     58  C   UNL     1      42.391  -0.531  11.632  0.00  0.00    +0.000 C 
ENDBRANCH   6  57
BRANCH   9  59
ATOM     59  O   UNL     1      37.912   0.514   9.485  0.00  0.00    +0.000 OA
BRANCH  59  61
ATOM     60  O   UNL     1      35.991   0.188   8.280  0.00  0.00    +0.000 OA
ATOM     61  C   UNL     1      36.888  -0.235   8.996  0.00  0.00    +0.000 C 
ATOM     62  C   UNL     1      37.036  -1.660   9.431  0.00  0.00    +0.000 C 
ENDBRANCH  59  61
ENDBRANCH   9  59
TORSDOF 12
ENDMDL
MODEL 7
REMARK VINA RESULT:      -6.5      3.663     11.805
REMARK  Name = 
REMARK  19 active torsions:
REMARK  status: ('A' for Active; 'I' for Inactive)
REMARK    1  A    between atoms: O_1  and  C_20
REMARK    2  A    between atoms: O_1  and  C_36
REMARK    3  A    between atoms: O_2  and  C_18
REMARK    4  A    between atoms: O_3  and  C_28
REMARK    5  A    between atoms: O_3  and  C_42
REMARK    6  A    between atoms: O_5  and  C_34
REMARK    7  A    between atoms: O_5  and  C_50
REMARK    8  A    between atoms: O_7  and  C_40
REMARK    9  A    between atoms: O_7  and  C_56
REMARK   10  A    between atoms: O_9  and  C_46
REMARK   11  A    between atoms: N_11  and  C_30
REMARK   12  A    between atoms: C_17  and  C_23
REMARK   13  A    between atoms: C_18  and  C_28
REMARK   14  A    between atoms: C_23  and  C_32
REMARK   15  A    between atoms: C_33  and  C_35
REMARK   16  A    between atoms: C_35  and  C_40
REMARK   17  A    between atoms: C_36  and  C_41
REMARK   18  A    between atoms: C_46  and  C_53
REMARK   19  A    between atoms: C_53  and  C_57
REMARK                            x       y       z     vdW  Elec       q    Type
REMARK                         _______ _______ _______ _____ _____    ______ ____
ROOT
ATOM      1  N   UNL     1      24.088  -0.381   6.229  0.00  0.00    +0.000 NA
ATOM      2  N   UNL     1      20.457   2.249   4.590  0.00  0.00    +0.000 N 
ATOM      3  C   UNL     1      22.324   0.894   5.392  0.00  0.00    +0.000 C 
ATOM      4  C   UNL     1      23.249  -0.277   5.020  0.00  0.00    +0.000 C 
ATOM      5  C   UNL     1      21.643   1.465   4.132  0.00  0.00    +0.000 C 
ATOM      6  C   UNL     1      24.002  -0.084   3.623  0.00  0.00    +0.000 C 
ATOM      7  C   UNL     1      22.581   2.093   3.088  0.00  0.00    +0.000 C 
ATOM      8  C   UNL     1      23.178   1.808   6.292  0.00  0.00    +0.000 C 
ATOM      9  C   UNL     1      23.995   1.424   3.111  0.00  0.00    +0.000 C 
ATOM     10  C   UNL     1      21.050   0.598   6.160  0.00  0.00    +0.000 A 
ATOM     11  C   UNL     1      24.389   0.969   6.691  0.00  0.00    +0.000 C 
ATOM     12  C   UNL     1      20.035   1.446   5.695  0.00  0.00    +0.000 A 
ATOM     13  C   UNL     1      25.461  -0.539   3.702  0.00  0.00    +0.000 C 
ATOM     14  C   UNL     1      25.256  -1.237   6.092  0.00  0.00    +0.000 C 
ATOM     15  C   UNL     1      26.003  -1.065   4.809  0.00  0.00    +0.000 C 
ATOM     16  C   UNL     1      20.842  -0.296   7.205  0.00  0.00    +0.000 A 
ATOM     17  C   UNL     1      19.411   2.526   3.607  0.00  0.00    +0.000 C 
ATOM     18  C   UNL     1      18.799   1.431   6.311  0.00  0.00    +0.000 A 
ATOM     19  C   UNL     1      19.590  -0.340   7.850  0.00  0.00    +0.000 A 
ATOM     20  C   UNL     1      18.580   0.553   7.384  0.00  0.00    +0.000 A 
ENDROOT
BRANCH  19  23
ATOM     21  N   UNL     1      18.172  -3.470  12.621  0.00  0.00    +0.000 NA
ATOM     22  N   UNL     1      17.641  -2.405   7.485  0.00  0.00    +0.000 N 
ATOM     23  C   UNL     1      19.306  -1.317   9.060  0.00  0.00    +0.000 C 
ATOM     24  C   UNL     1      18.472  -0.590  10.211  0.00  0.00    +0.000 C 
ATOM     25  C   UNL     1      18.461  -2.551   8.592  0.00  0.00    +0.000 A 
ATOM     26  C   UNL     1      17.826  -1.490  11.277  0.00  0.00    +0.000 C 
ATOM     27  C   UNL     1      16.913  -0.765  12.264  0.00  0.00    +0.000 C 
ATOM     28  C   UNL     1      18.824  -2.274  12.118  0.00  0.00    +0.000 C 
ATOM     29  C   UNL     1      18.222  -3.846   9.086  0.00  0.00    +0.000 A 
ATOM     30  C   UNL     1      16.271  -1.752  13.284  0.00  0.00    +0.000 C 
ATOM     31  C   UNL     1      17.026  -3.128  13.491  0.00  0.00    +0.000 C 
ATOM     32  C   UNL     1      18.750  -4.564  10.317  0.00  0.00    +0.000 C 
ATOM     33  C   UNL     1      17.822  -4.455  11.564  0.00  0.00    +0.000 C 
ATOM     34  C   UNL     1      17.271  -4.467   8.193  0.00  0.00    +0.000 A 
ATOM     35  C   UNL     1      16.936  -3.544   7.214  0.00  0.00    +0.000 A 
ATOM     36  C   UNL     1      16.652  -5.737   8.148  0.00  0.00    +0.000 A 
ATOM     37  C   UNL     1      16.026  -3.814   6.184  0.00  0.00    +0.000 A 
ATOM     38  C   UNL     1      15.740  -6.029   7.126  0.00  0.00    +0.000 A 
ATOM     39  C   UNL     1      15.433  -5.078   6.159  0.00  0.00    +0.000 A 
ATOM     40  H   UNL     1      17.580  -1.566   6.924  0.00  0.00    +0.000 HD
BRANCH  23  42
ATOM     41  O   UNL     1      21.344  -2.751   9.319  0.00  0.00    +0.000 OA
ATOM     42  C   UNL     1      20.719  -1.732   9.588  0.00  0.00    +0.000 C 
BRANCH  42  43
ATOM     43  O   UNL     1      21.217  -0.751  10.412  0.00  0.00    +0.000 OA
ATOM     44  C   UNL     1      22.094  -1.237  11.428  0.00  0.00    +0.000 C 
ENDBRANCH  42  43
ENDBRANCH  23  42
BRANCH  30  45
ATOM     45  O   UNL     1      16.295  -1.055  14.556  0.00  0.00    +0.000 OA
ATOM     46  H   UNL     1      16.197  -1.725  15.256  0.00  0.00    +0.000 HD
ENDBRANCH  30  45
BRANCH  30  47
ATOM     47  C   UNL     1      14.764  -1.959  13.004  0.00  0.00    +0.000 C 
ATOM     48  C   UNL     1      14.408  -2.910  11.875  0.00  0.00    +0.000 C 
ENDBRANCH  30  47
ENDBRANCH  19  23
BRANCH   7  49
ATOM     49  O   UNL     1      21.997   1.756   1.788  0.00  0.00    +0.000 OA
ATOM     50  H   UNL     1      21.104   2.157   1.782  0.00  0.00    +0.000 HD
ENDBRANCH   7  49
BRANCH   7  52
ATOM     51  O   UNL     1      22.607   4.293   4.238  0.00  0.00    +0.000 OA
ATOM     52  C   UNL     1      22.652   3.635   3.208  0.00  0.00    +0.000 C 
BRANCH  52  53
ATOM     53  O   UNL     1      22.858   4.185   1.965  0.00  0.00    +0.000 OA
ATOM     54  C   UNL     1      23.586   5.415   1.989  0.00  0.00    +0.000 C 
ENDBRANCH  52  53
ENDBRANCH   7  52
BRANCH  20  55
ATOM     55  O   UNL     1      17.350   0.478   7.989  0.00  0.00    +0.000 OA
ATOM     56  C   UNL     1      16.567   1.666   7.919  0.00  0.00    +0.000 C 
ENDBRANCH  20  55
BRANCH   6  57
ATOM     57  C   UNL     1      23.323  -0.985   2.527  0.00  0.00    +0.000 C 
ATOM     58  C   UNL     1      22.276  -1.987   3.019  0.00  0.00    +0.000 C 
ENDBRANCH   6  57
BRANCH   9  59
ATOM     59  O   UNL     1      24.940   2.177   3.910  0.00  0.00    +0.000 OA
BRANCH  59  61
ATOM     60  O   UNL     1      26.110   2.901   2.078  0.00  0.00    +0.000 OA
ATOM     61  C   UNL     1      26.040   2.664   3.276  0.00  0.00    +0.000 C 
ATOM     62  C   UNL     1      27.141   2.902   4.263  0.00  0.00    +0.000 C 
ENDBRANCH  59  61
ENDBRANCH   9  59
TORSDOF 12
ENDMDL
MODEL 8
REMARK VINA RESULT:      -6.5     14.610     19.871
REMARK  Name = 
REMARK  19 active torsions:
REMARK  status: ('A' for Active; 'I' for Inactive)
REMARK    1  A    between atoms: O_1  and  C_20
REMARK    2  A    between atoms: O_1  and  C_36
REMARK    3  A    between atoms: O_2  and  C_18
REMARK    4  A    between atoms: O_3  and  C_28
REMARK    5  A    between atoms: O_3  and  C_42
REMARK    6  A    between atoms: O_5  and  C_34
REMARK    7  A    between atoms: O_5  and  C_50
REMARK    8  A    between atoms: O_7  and  C_40
REMARK    9  A    between atoms: O_7  and  C_56
REMARK   10  A    between atoms: O_9  and  C_46
REMARK   11  A    between atoms: N_11  and  C_30
REMARK   12  A    between atoms: C_17  and  C_23
REMARK   13  A    between atoms: C_18  and  C_28
REMARK   14  A    between atoms: C_23  and  C_32
REMARK   15  A    between atoms: C_33  and  C_35
REMARK   16  A    between atoms: C_35  and  C_40
REMARK   17  A    between atoms: C_36  and  C_41
REMARK   18  A    between atoms: C_46  and  C_53
REMARK   19  A    between atoms: C_53  and  C_57
REMARK                            x       y       z     vdW  Elec       q    Type
REMARK                         _______ _______ _______ _____ _____    ______ ____
ROOT
ATOM      1  N   UNL     1      21.850 -13.464   7.524  0.00  0.00    +0.000 NA
ATOM      2  N   UNL     1      23.722 -15.252   3.514  0.00  0.00    +0.000 N 
ATOM      3  C   UNL     1      22.777 -14.302   5.555  0.00  0.00    +0.000 C 
ATOM      4  C   UNL     1      22.876 -13.111   6.524  0.00  0.00    +0.000 C 
ATOM      5  C   UNL     1      23.447 -13.960   4.210  0.00  0.00    +0.000 C 
ATOM      6  C   UNL     1      22.741 -11.687   5.809  0.00  0.00    +0.000 C 
ATOM      7  C   UNL     1      22.801 -12.817   3.409  0.00  0.00    +0.000 C 
ATOM      8  C   UNL     1      21.297 -14.729   5.596  0.00  0.00    +0.000 C 
ATOM      9  C   UNL     1      22.110 -11.776   4.350  0.00  0.00    +0.000 C 
ATOM     10  C   UNL     1      23.594 -15.546   5.846  0.00  0.00    +0.000 A 
ATOM     11  C   UNL     1      20.707 -14.034   6.821  0.00  0.00    +0.000 C 
ATOM     12  C   UNL     1      24.057 -16.075   4.634  0.00  0.00    +0.000 A 
ATOM     13  C   UNL     1      21.878 -10.726   6.630  0.00  0.00    +0.000 C 
ATOM     14  C   UNL     1      21.507 -12.395   8.450  0.00  0.00    +0.000 C 
ATOM     15  C   UNL     1      21.344 -11.052   7.815  0.00  0.00    +0.000 C 
ATOM     16  C   UNL     1      23.844 -16.167   7.065  0.00  0.00    +0.000 A 
ATOM     17  C   UNL     1      24.720 -15.245   2.446  0.00  0.00    +0.000 C 
ATOM     18  C   UNL     1      24.751 -17.270   4.632  0.00  0.00    +0.000 A 
ATOM     19  C   UNL     1      24.553 -17.384   7.098  0.00  0.00    +0.000 A 
ATOM     20  C   UNL     1      24.989 -17.924   5.852  0.00  0.00    +0.000 A 
ENDROOT
BRANCH  19  23
ATOM     21  N   UNL     1      25.262 -19.741  12.438  0.00  0.00    +0.000 NA
ATOM     22  N   UNL     1      23.074 -19.775   7.642  0.00  0.00    +0.000 N 
ATOM     23  C   UNL     1      24.843 -18.147   8.452  0.00  0.00    +0.000 C 
ATOM     24  C   UNL     1      24.234 -17.362   9.703  0.00  0.00    +0.000 C 
ATOM     25  C   UNL     1      24.186 -19.570   8.441  0.00  0.00    +0.000 A 
ATOM     26  C   UNL     1      24.129 -18.138  11.026  0.00  0.00    +0.000 C 
ATOM     27  C   UNL     1      23.400 -17.399  12.148  0.00  0.00    +0.000 C 
ATOM     28  C   UNL     1      25.469 -18.571  11.603  0.00  0.00    +0.000 C 
ATOM     29  C   UNL     1      24.383 -20.768   9.150  0.00  0.00    +0.000 A 
ATOM     30  C   UNL     1      23.304 -18.266  13.439  0.00  0.00    +0.000 C 
ATOM     31  C   UNL     1      24.365 -19.434  13.574  0.00  0.00    +0.000 C 
ATOM     32  C   UNL     1      25.382 -21.142  10.233  0.00  0.00    +0.000 C 
ATOM     33  C   UNL     1      24.846 -20.952  11.685  0.00  0.00    +0.000 C 
ATOM     34  C   UNL     1      23.374 -21.697   8.693  0.00  0.00    +0.000 A 
ATOM     35  C   UNL     1      22.583 -21.045   7.759  0.00  0.00    +0.000 A 
ATOM     36  C   UNL     1      23.057 -23.036   9.012  0.00  0.00    +0.000 A 
ATOM     37  C   UNL     1      21.498 -21.653   7.114  0.00  0.00    +0.000 A 
ATOM     38  C   UNL     1      21.977 -23.664   8.379  0.00  0.00    +0.000 A 
ATOM     39  C   UNL     1      21.210 -22.979   7.443  0.00  0.00    +0.000 A 
ATOM     40  H   UNL     1      22.676 -19.080   7.024  0.00  0.00    +0.000 HD
BRANCH  23  42
ATOM     41  O   UNL     1      27.166 -17.311   8.871  0.00  0.00    +0.000 OA
ATOM     42  C   UNL     1      26.402 -18.214   8.556  0.00  0.00    +0.000 C 
BRANCH  42  43
ATOM     43  O   UNL     1      26.836 -19.486   8.263  0.00  0.00    +0.000 OA
ATOM     44  C   UNL     1      28.256 -19.612   8.193  0.00  0.00    +0.000 C 
ENDBRANCH  42  43
ENDBRANCH  23  42
BRANCH  30  45
ATOM     45  O   UNL     1      23.538 -17.346  14.535  0.00  0.00    +0.000 OA
ATOM     46  H   UNL     1      24.438 -16.991  14.428  0.00  0.00    +0.000 HD
ENDBRANCH  30  45
BRANCH  30  47
ATOM     47  C   UNL     1      21.861 -18.769  13.679  0.00  0.00    +0.000 C 
ATOM     48  C   UNL     1      21.591 -20.232  13.371  0.00  0.00    +0.000 C 
ENDBRANCH  30  47
ENDBRANCH  19  23
BRANCH   7  49
ATOM     49  O   UNL     1      23.915 -12.109   2.773  0.00  0.00    +0.000 OA
ATOM     50  H   UNL     1      24.020 -12.513   1.887  0.00  0.00    +0.000 HD
ENDBRANCH   7  49
BRANCH   7  52
ATOM     51  O   UNL     1      21.027 -14.230   2.399  0.00  0.00    +0.000 OA
ATOM     52  C   UNL     1      21.853 -13.334   2.299  0.00  0.00    +0.000 C 
BRANCH  52  53
ATOM     53  O   UNL     1      22.012 -12.573   1.166  0.00  0.00    +0.000 OA
ATOM     54  C   UNL     1      20.835 -12.478   0.361  0.00  0.00    +0.000 C 
ENDBRANCH  52  53
ENDBRANCH   7  52
BRANCH  20  55
ATOM     55  O   UNL     1      25.714 -19.088   5.892  0.00  0.00    +0.000 OA
ATOM     56  C   UNL     1      25.287 -20.100   4.984  0.00  0.00    +0.000 C 
ENDBRANCH  20  55
BRANCH   6  57
ATOM     57  C   UNL     1      24.159 -11.015   5.699  0.00  0.00    +0.000 C 
ATOM     58  C   UNL     1      24.828 -10.612   7.015  0.00  0.00    +0.000 C 
ENDBRANCH   6  57
BRANCH   9  59
ATOM     59  O   UNL     1      20.690 -12.024   4.486  0.00  0.00    +0.000 OA
BRANCH  59  61
ATOM     60  O   UNL     1      20.071 -10.350   3.050  0.00  0.00    +0.000 OA
ATOM     61  C   UNL     1      19.844 -11.070   4.012  0.00  0.00    +0.000 C 
ATOM     62  C   UNL     1      18.581 -11.055   4.815  0.00  0.00    +0.000 C 
ENDBRANCH  59  61
ENDBRANCH   9  59
TORSDOF 12
ENDMDL
MODEL 9
REMARK VINA RESULT:      -6.4     36.566     40.641
REMARK  Name = 
REMARK  19 active torsions:
REMARK  status: ('A' for Active; 'I' for Inactive)
REMARK    1  A    between atoms: O_1  and  C_20
REMARK    2  A    between atoms: O_1  and  C_36
REMARK    3  A    between atoms: O_2  and  C_18
REMARK    4  A    between atoms: O_3  and  C_28
REMARK    5  A    between atoms: O_3  and  C_42
REMARK    6  A    between atoms: O_5  and  C_34
REMARK    7  A    between atoms: O_5  and  C_50
REMARK    8  A    between atoms: O_7  and  C_40
REMARK    9  A    between atoms: O_7  and  C_56
REMARK   10  A    between atoms: O_9  and  C_46
REMARK   11  A    between atoms: N_11  and  C_30
REMARK   12  A    between atoms: C_17  and  C_23
REMARK   13  A    between atoms: C_18  and  C_28
REMARK   14  A    between atoms: C_23  and  C_32
REMARK   15  A    between atoms: C_33  and  C_35
REMARK   16  A    between atoms: C_35  and  C_40
REMARK   17  A    between atoms: C_36  and  C_41
REMARK   18  A    between atoms: C_46  and  C_53
REMARK   19  A    between atoms: C_53  and  C_57
REMARK                            x       y       z     vdW  Elec       q    Type
REMARK                         _______ _______ _______ _____ _____    ______ ____
ROOT
ATOM      1  N   UNL     1      51.597   3.896  30.980  0.00  0.00    +0.000 NA
ATOM      2  N   UNL     1      52.534   5.887  35.215  0.00  0.00    +0.000 N 
ATOM      3  C   UNL     1      52.026   4.894  33.043  0.00  0.00    +0.000 C 
ATOM      4  C   UNL     1      50.910   4.712  31.999  0.00  0.00    +0.000 C 
ATOM      5  C   UNL     1      51.687   6.057  33.997  0.00  0.00    +0.000 C 
ATOM      6  C   UNL     1      50.252   6.086  31.515  0.00  0.00    +0.000 C 
ATOM      7  C   UNL     1      51.595   7.450  33.353  0.00  0.00    +0.000 C 
ATOM      8  C   UNL     1      53.335   4.916  32.230  0.00  0.00    +0.000 C 
ATOM      9  C   UNL     1      51.141   7.362  31.858  0.00  0.00    +0.000 C 
ATOM     10  C   UNL     1      52.199   3.834  34.114  0.00  0.00    +0.000 A 
ATOM     11  C   UNL     1      52.962   4.390  30.846  0.00  0.00    +0.000 C 
ATOM     12  C   UNL     1      52.547   4.462  35.318  0.00  0.00    +0.000 A 
ATOM     13  C   UNL     1      50.003   6.088  30.005  0.00  0.00    +0.000 C 
ATOM     14  C   UNL     1      50.885   3.769  29.718  0.00  0.00    +0.000 C 
ATOM     15  C   UNL     1      50.278   5.040  29.217  0.00  0.00    +0.000 C 
ATOM     16  C   UNL     1      52.111   2.451  34.003  0.00  0.00    +0.000 A 
ATOM     17  C   UNL     1      52.114   6.580  36.432  0.00  0.00    +0.000 C 
ATOM     18  C   UNL     1      52.852   3.693  36.425  0.00  0.00    +0.000 A 
ATOM     19  C   UNL     1      52.411   1.639  35.114  0.00  0.00    +0.000 A 
ATOM     20  C   UNL     1      52.794   2.293  36.322  0.00  0.00    +0.000 A 
ENDROOT
BRANCH  19  23
ATOM     21  N   UNL     1      51.761  -4.201  35.347  0.00  0.00    +0.000 NA
ATOM     22  N   UNL     1      50.853   0.446  33.029  0.00  0.00    +0.000 N 
ATOM     23  C   UNL     1      52.354   0.060  35.037  0.00  0.00    +0.000 C 
ATOM     24  C   UNL     1      51.446  -0.545  36.204  0.00  0.00    +0.000 C 
ATOM     25  C   UNL     1      51.727  -0.408  33.680  0.00  0.00    +0.000 A 
ATOM     26  C   UNL     1      51.014  -2.014  36.057  0.00  0.00    +0.000 C 
ATOM     27  C   UNL     1      50.023  -2.500  37.113  0.00  0.00    +0.000 C 
ATOM     28  C   UNL     1      52.167  -3.006  36.066  0.00  0.00    +0.000 C 
ATOM     29  C   UNL     1      51.743  -1.596  32.927  0.00  0.00    +0.000 A 
ATOM     30  C   UNL     1      49.608  -3.982  36.872  0.00  0.00    +0.000 C 
ATOM     31  C   UNL     1      50.606  -4.852  36.002  0.00  0.00    +0.000 C 
ATOM     32  C   UNL     1      52.438  -2.927  33.166  0.00  0.00    +0.000 C 
ATOM     33  C   UNL     1      51.553  -3.985  33.891  0.00  0.00    +0.000 C 
ATOM     34  C   UNL     1      50.886  -1.381  31.784  0.00  0.00    +0.000 A 
ATOM     35  C   UNL     1      50.354  -0.104  31.881  0.00  0.00    +0.000 A 
ATOM     36  C   UNL     1      50.504  -2.176  30.680  0.00  0.00    +0.000 A 
ATOM     37  C   UNL     1      49.469   0.433  30.938  0.00  0.00    +0.000 A 
ATOM     38  C   UNL     1      49.622  -1.659  29.724  0.00  0.00    +0.000 A 
ATOM     39  C   UNL     1      49.113  -0.372  29.853  0.00  0.00    +0.000 A 
ATOM     40  H   UNL     1      50.621   1.379  33.345  0.00  0.00    +0.000 HD
BRANCH  23  42
ATOM     41  O   UNL     1      54.340  -0.963  36.169  0.00  0.00    +0.000 OA
ATOM     42  C   UNL     1      53.837  -0.410  35.199  0.00  0.00    +0.000 C 
BRANCH  42  43
ATOM     43  O   UNL     1      54.542  -0.140  34.049  0.00  0.00    +0.000 OA
ATOM     44  C   UNL     1      55.943  -0.385  34.158  0.00  0.00    +0.000 C 
ENDBRANCH  42  43
ENDBRANCH  23  42
BRANCH  30  45
ATOM     45  O   UNL     1      49.554  -4.583  38.190  0.00  0.00    +0.000 OA
ATOM     46  H   UNL     1      49.768  -3.886  38.836  0.00  0.00    +0.000 HD
ENDBRANCH  30  45
BRANCH  30  47
ATOM     47  C   UNL     1      48.153  -4.088  36.357  0.00  0.00    +0.000 C 
ATOM     48  C   UNL     1      47.969  -4.616  34.945  0.00  0.00    +0.000 C 
ENDBRANCH  30  47
ENDBRANCH  19  23
BRANCH   7  49
ATOM     49  O   UNL     1      50.515   8.138  34.063  0.00  0.00    +0.000 OA
ATOM     50  H   UNL     1      50.933   8.899  34.516  0.00  0.00    +0.000 HD
ENDBRANCH   7  49
BRANCH   7  52
ATOM     51  O   UNL     1      54.040   7.835  33.555  0.00  0.00    +0.000 OA
ATOM     52  C   UNL     1      52.897   8.270  33.529  0.00  0.00    +0.000 C 
BRANCH  52  53
ATOM     53  O   UNL     1      52.595   9.610  33.576  0.00  0.00    +0.000 OA
ATOM     54  C   UNL     1      53.220  10.308  34.654  0.00  0.00    +0.000 C 
ENDBRANCH  52  53
ENDBRANCH   7  52
BRANCH  20  55
ATOM     55  O   UNL     1      53.046   1.500  37.413  0.00  0.00    +0.000 OA
ATOM     56  C   UNL     1      53.009   2.169  38.670  0.00  0.00    +0.000 C 
ENDBRANCH  20  55
BRANCH   6  57
ATOM     57  C   UNL     1      48.842   6.264  32.190  0.00  0.00    +0.000 C 
ATOM     58  C   UNL     1      47.771   5.238  31.815  0.00  0.00    +0.000 C 
ENDBRANCH   6  57
BRANCH   9  59
ATOM     59  O   UNL     1      52.264   7.390  30.945  0.00  0.00    +0.000 OA
BRANCH  59  61
ATOM     60  O   UNL     1      51.840   9.548  30.306  0.00  0.00    +0.000 OA
ATOM     61  C   UNL     1      52.360   8.459  30.110  0.00  0.00    +0.000 C 
ATOM     62  C   UNL     1      53.225   8.120  28.936  0.00  0.00    +0.000 C 
ENDBRANCH  59  61
ENDBRANCH   9  59
TORSDOF 12
ENDMDL
