MODEL 1
REMARK VINA RESULT:      -6.1      0.000      0.000
REMARK  Name = Vorinostat.pdbqt.pdb
REMARK  6 active torsions:
REMARK  status: ('A' for Active; 'I' for Inactive)
REMARK    1  A    between atoms: C_1  and  C_2
REMARK    2  A    between atoms: C_3  and  C_4
REMARK    3  A    between atoms: C_5  and  C_8
REMARK    4  A    between atoms: N_7  and  O_10
REMARK    5  A    between atoms: C_12  and  C_15
REMARK    6  A    between atoms: N_14  and  C_17
REMARK                            x       y       z     vdW  Elec       q    Type
REMARK                         _______ _______ _______ _____ _____    ______ ____
ROOT
ATOM      1  C   UNL     1      25.951  -0.847   5.758  0.00  0.00    +0.000 C 
ATOM      2  C   UNL     1      24.553  -0.599   6.332  0.00  0.00    +0.000 C 
ENDROOT
BRANCH   2   5
ATOM      3  O   UNL     1      22.616   0.616   6.490  0.00  0.00    +0.000 OA
ATOM      4  N   UNL     1      22.828  -1.310   7.787  0.00  0.00    +0.000 N 
ATOM      5  C   UNL     1      23.235  -0.364   6.874  0.00  0.00    +0.000 C 
ATOM      6  H   UNL     1      23.471  -2.065   7.993  0.00  0.00    +0.000 HD
BRANCH   4   7
ATOM      7  C   UNL     1      21.594  -1.319   8.461  0.00  0.00    +0.000 A 
ATOM      8  C   UNL     1      21.513  -0.641   9.679  0.00  0.00    +0.000 A 
ATOM      9  C   UNL     1      20.466  -1.970   7.964  0.00  0.00    +0.000 A 
ATOM     10  C   UNL     1      20.317  -0.616  10.392  0.00  0.00    +0.000 A 
ATOM     11  C   UNL     1      19.268  -1.945   8.676  0.00  0.00    +0.000 A 
ATOM     12  C   UNL     1      19.194  -1.268   9.890  0.00  0.00    +0.000 A 
ENDBRANCH   4   7
ENDBRANCH   2   5
BRANCH   1  13
ATOM     13  C   UNL     1      27.348  -1.094   5.181  0.00  0.00    +0.000 C 
ATOM     14  C   UNL     1      28.746  -1.342   4.605  0.00  0.00    +0.000 C 
BRANCH  14  15
ATOM     15  C   UNL     1      30.143  -1.590   4.030  0.00  0.00    +0.000 C 
ATOM     16  C   UNL     1      31.541  -1.836   3.453  0.00  0.00    +0.000 C 
BRANCH  16  19
ATOM     17  O   UNL     1      33.827  -1.481   3.370  0.00  0.00    +0.000 OA
ATOM     18  N   UNL     1      32.925  -2.963   1.882  0.00  0.00    +0.000 N 
ATOM     19  C   UNL     1      32.853  -2.066   2.911  0.00  0.00    +0.000 C 
ATOM     20  H   UNL     1      32.139  -3.486   1.517  0.00  0.00    +0.000 HD
BRANCH  18  21
ATOM     21  O   UNL     1      34.201  -3.241   1.345  0.00  0.00    +0.000 OA
ATOM     22  H   UNL     1      34.752  -2.514   1.709  0.00  0.00    +0.000 HD
ENDBRANCH  18  21
ENDBRANCH  16  19
ENDBRANCH  14  15
ENDBRANCH   1  13
TORSDOF 6
ENDMDL
MODEL 2
REMARK VINA RESULT:      -5.5     16.971     19.117
REMARK  Name = Vorinostat.pdbqt.pdb
REMARK  6 active torsions:
REMARK  status: ('A' for Active; 'I' for Inactive)
REMARK    1  A    between atoms: C_1  and  C_2
REMARK    2  A    between atoms: C_3  and  C_4
REMARK    3  A    between atoms: C_5  and  C_8
REMARK    4  A    between atoms: N_7  and  O_10
REMARK    5  A    between atoms: C_12  and  C_15
REMARK    6  A    between atoms: N_14  and  C_17
REMARK                            x       y       z     vdW  Elec       q    Type
REMARK                         _______ _______ _______ _____ _____    ______ ____
ROOT
ATOM      1  C   UNL     1      18.383   5.310  19.276  0.00  0.00    +0.000 C 
ATOM      2  C   UNL     1      19.203   6.603  19.272  0.00  0.00    +0.000 C 
ENDROOT
BRANCH   2   5
ATOM      3  O   UNL     1      20.347   8.281  20.337  0.00  0.00    +0.000 OA
ATOM      4  N   UNL     1      20.204   8.338  18.011  0.00  0.00    +0.000 N 
ATOM      5  C   UNL     1      19.975   7.824  19.267  0.00  0.00    +0.000 C 
ATOM      6  H   UNL     1      19.821   7.829  17.224  0.00  0.00    +0.000 HD
BRANCH   4   7
ATOM      7  C   UNL     1      20.924   9.511  17.725  0.00  0.00    +0.000 A 
ATOM      8  C   UNL     1      22.171   9.376  17.114  0.00  0.00    +0.000 A 
ATOM      9  C   UNL     1      20.443  10.785  18.025  0.00  0.00    +0.000 A 
ATOM     10  C   UNL     1      22.931  10.503  16.806  0.00  0.00    +0.000 A 
ATOM     11  C   UNL     1      21.201  11.914  17.718  0.00  0.00    +0.000 A 
ATOM     12  C   UNL     1      22.444  11.772  17.108  0.00  0.00    +0.000 A 
ENDBRANCH   4   7
ENDBRANCH   2   5
BRANCH   1  13
ATOM     13  C   UNL     1      17.563   4.017  19.282  0.00  0.00    +0.000 C 
ATOM     14  C   UNL     1      16.741   2.724  19.286  0.00  0.00    +0.000 C 
BRANCH  14  15
ATOM     15  C   UNL     1      15.919   1.433  19.291  0.00  0.00    +0.000 C 
ATOM     16  C   UNL     1      15.096   0.140  19.295  0.00  0.00    +0.000 C 
BRANCH  16  19
ATOM     17  O   UNL     1      14.229  -1.751  18.280  0.00  0.00    +0.000 OA
ATOM     18  N   UNL     1      13.731  -1.403  20.483  0.00  0.00    +0.000 N 
ATOM     19  C   UNL     1      14.324  -1.073  19.296  0.00  0.00    +0.000 C 
ATOM     20  H   UNL     1      13.832  -0.877  21.342  0.00  0.00    +0.000 HD
BRANCH  18  21
ATOM     21  O   UNL     1      12.992  -2.604  20.534  0.00  0.00    +0.000 OA
ATOM     22  H   UNL     1      13.362  -3.117  19.782  0.00  0.00    +0.000 HD
ENDBRANCH  18  21
ENDBRANCH  16  19
ENDBRANCH  14  15
ENDBRANCH   1  13
TORSDOF 6
ENDMDL
MODEL 3
REMARK VINA RESULT:      -5.5     16.585     17.165
REMARK  Name = Vorinostat.pdbqt.pdb
REMARK  6 active torsions:
REMARK  status: ('A' for Active; 'I' for Inactive)
REMARK    1  A    between atoms: C_1  and  C_2
REMARK    2  A    between atoms: C_3  and  C_4
REMARK    3  A    between atoms: C_5  and  C_8
REMARK    4  A    between atoms: N_7  and  O_10
REMARK    5  A    between atoms: C_12  and  C_15
REMARK    6  A    between atoms: N_14  and  C_17
REMARK                            x       y       z     vdW  Elec       q    Type
REMARK                         _______ _______ _______ _____ _____    ______ ____
ROOT
ATOM      1  C   UNL     1      18.337   3.914  19.040  0.00  0.00    +0.000 C 
ATOM      2  C   UNL     1      17.574   2.629  19.379  0.00  0.00    +0.000 C 
ENDROOT
BRANCH   2   5
ATOM      3  O   UNL     1      17.434   0.549  20.331  0.00  0.00    +0.000 OA
ATOM      4  N   UNL     1      15.562   1.393  19.229  0.00  0.00    +0.000 N 
ATOM      5  C   UNL     1      16.856   1.417  19.697  0.00  0.00    +0.000 C 
ATOM      6  H   UNL     1      15.238   2.205  18.717  0.00  0.00    +0.000 HD
BRANCH   4   7
ATOM      7  C   UNL     1      14.649   0.338  19.400  0.00  0.00    +0.000 A 
ATOM      8  C   UNL     1      13.780   0.399  20.490  0.00  0.00    +0.000 A 
ATOM      9  C   UNL     1      14.581  -0.750  18.531  0.00  0.00    +0.000 A 
ATOM     10  C   UNL     1      12.854  -0.618  20.711  0.00  0.00    +0.000 A 
ATOM     11  C   UNL     1      13.655  -1.769  18.749  0.00  0.00    +0.000 A 
ATOM     12  C   UNL     1      12.791  -1.702  19.839  0.00  0.00    +0.000 A 
ENDBRANCH   4   7
ENDBRANCH   2   5
BRANCH   1  13
ATOM     13  C   UNL     1      19.101   5.197  18.702  0.00  0.00    +0.000 C 
ATOM     14  C   UNL     1      19.864   6.481  18.364  0.00  0.00    +0.000 C 
BRANCH  14  15
ATOM     15  C   UNL     1      20.627   7.765  18.025  0.00  0.00    +0.000 C 
ATOM     16  C   UNL     1      21.392   9.048  17.687  0.00  0.00    +0.000 C 
BRANCH  16  19
ATOM     17  O   UNL     1      23.257  10.198  16.939  0.00  0.00    +0.000 OA
ATOM     18  N   UNL     1      21.436  11.423  17.575  0.00  0.00    +0.000 N 
ATOM     19  C   UNL     1      22.111  10.253  17.370  0.00  0.00    +0.000 C 
ATOM     20  H   UNL     1      20.477  11.487  17.892  0.00  0.00    +0.000 HD
BRANCH  18  21
ATOM     21  O   UNL     1      22.097  12.627  17.244  0.00  0.00    +0.000 OA
ATOM     22  H   UNL     1      21.884  12.735  16.291  0.00  0.00    +0.000 HD
ENDBRANCH  18  21
ENDBRANCH  16  19
ENDBRANCH  14  15
ENDBRANCH   1  13
TORSDOF 6
ENDMDL
MODEL 4
REMARK VINA RESULT:      -5.5     15.277     21.557
REMARK  Name = Vorinostat.pdbqt.pdb
REMARK  6 active torsions:
REMARK  status: ('A' for Active; 'I' for Inactive)
REMARK    1  A    between atoms: C_1  and  C_2
REMARK    2  A    between atoms: C_3  and  C_4
REMARK    3  A    between atoms: C_5  and  C_8
REMARK    4  A    between atoms: N_7  and  O_10
REMARK    5  A    between atoms: C_12  and  C_15
REMARK    6  A    between atoms: N_14  and  C_17
REMARK                            x       y       z     vdW  Elec       q    Type
REMARK                         _______ _______ _______ _____ _____    ______ ____
ROOT
ATOM      1  C   UNL     1      44.052  -2.871  11.167  0.00  0.00    +0.000 C 
ATOM      2  C   UNL     1      45.423  -3.329  11.671  0.00  0.00    +0.000 C 
ENDROOT
BRANCH   2   5
ATOM      3  O   UNL     1      47.542  -4.138  11.331  0.00  0.00    +0.000 OA
ATOM      4  N   UNL     1      46.861  -3.690  13.515  0.00  0.00    +0.000 N 
ATOM      5  C   UNL     1      46.717  -3.761  12.149  0.00  0.00    +0.000 C 
ATOM      6  H   UNL     1      46.070  -3.352  14.049  0.00  0.00    +0.000 HD
BRANCH   4   7
ATOM      7  C   UNL     1      48.014  -4.048  14.236  0.00  0.00    +0.000 A 
ATOM      8  C   UNL     1      48.038  -5.305  14.841  0.00  0.00    +0.000 A 
ATOM      9  C   UNL     1      49.117  -3.205  14.365  0.00  0.00    +0.000 A 
ATOM     10  C   UNL     1      49.153  -5.715  15.569  0.00  0.00    +0.000 A 
ATOM     11  C   UNL     1      50.234  -3.613  15.092  0.00  0.00    +0.000 A 
ATOM     12  C   UNL     1      50.252  -4.869  15.694  0.00  0.00    +0.000 A 
ENDBRANCH   4   7
ENDBRANCH   2   5
BRANCH   1  13
ATOM     13  C   UNL     1      42.680  -2.414  10.663  0.00  0.00    +0.000 C 
ATOM     14  C   UNL     1      41.307  -1.959  10.159  0.00  0.00    +0.000 C 
BRANCH  14  15
ATOM     15  C   UNL     1      39.935  -1.503   9.655  0.00  0.00    +0.000 C 
ATOM     16  C   UNL     1      38.562  -1.049   9.150  0.00  0.00    +0.000 C 
BRANCH  16  19
ATOM     17  O   UNL     1      36.267  -0.820   9.347  0.00  0.00    +0.000 OA
ATOM     18  N   UNL     1      37.259   0.000   7.459  0.00  0.00    +0.000 N 
ATOM     19  C   UNL     1      37.272  -0.624   8.675  0.00  0.00    +0.000 C 
ATOM     20  H   UNL     1      38.083   0.207   6.909  0.00  0.00    +0.000 HD
BRANCH  18  21
ATOM     21  O   UNL     1      36.016   0.462   6.974  0.00  0.00    +0.000 OA
ATOM     22  H   UNL     1      36.232   0.739   6.057  0.00  0.00    +0.000 HD
ENDBRANCH  18  21
ENDBRANCH  16  19
ENDBRANCH  14  15
ENDBRANCH   1  13
TORSDOF 6
ENDMDL
MODEL 5
REMARK VINA RESULT:      -5.4      1.449      1.908
REMARK  Name = Vorinostat.pdbqt.pdb
REMARK  6 active torsions:
REMARK  status: ('A' for Active; 'I' for Inactive)
REMARK    1  A    between atoms: C_1  and  C_2
REMARK    2  A    between atoms: C_3  and  C_4
REMARK    3  A    between atoms: C_5  and  C_8
REMARK    4  A    between atoms: N_7  and  O_10
REMARK    5  A    between atoms: C_12  and  C_15
REMARK    6  A    between atoms: N_14  and  C_17
REMARK                            x       y       z     vdW  Elec       q    Type
REMARK                         _______ _______ _______ _____ _____    ______ ____
ROOT
ATOM      1  C   UNL     1      25.152  -1.113   6.223  0.00  0.00    +0.000 C 
ATOM      2  C   UNL     1      23.762  -1.158   6.864  0.00  0.00    +0.000 C 
ENDROOT
BRANCH   2   5
ATOM      3  O   UNL     1      21.846  -0.151   7.621  0.00  0.00    +0.000 OA
ATOM      4  N   UNL     1      22.034  -2.467   7.812  0.00  0.00    +0.000 N 
ATOM      5  C   UNL     1      22.451  -1.201   7.470  0.00  0.00    +0.000 C 
ATOM      6  H   UNL     1      22.665  -3.233   7.615  0.00  0.00    +0.000 HD
BRANCH   4   7
ATOM      7  C   UNL     1      20.805  -2.789   8.413  0.00  0.00    +0.000 A 
ATOM      8  C   UNL     1      19.664  -2.779   7.609  0.00  0.00    +0.000 A 
ATOM      9  C   UNL     1      20.686  -3.114   9.764  0.00  0.00    +0.000 A 
ATOM     10  C   UNL     1      18.418  -3.089   8.149  0.00  0.00    +0.000 A 
ATOM     11  C   UNL     1      19.441  -3.425  10.307  0.00  0.00    +0.000 A 
ATOM     12  C   UNL     1      18.307  -3.413   9.499  0.00  0.00    +0.000 A 
ENDBRANCH   4   7
ENDBRANCH   2   5
BRANCH   1  13
ATOM     13  C   UNL     1      26.542  -1.070   5.583  0.00  0.00    +0.000 C 
ATOM     14  C   UNL     1      27.933  -1.027   4.942  0.00  0.00    +0.000 C 
BRANCH  14  15
ATOM     15  C   UNL     1      29.324  -0.984   4.303  0.00  0.00    +0.000 C 
ATOM     16  C   UNL     1      30.715  -0.941   3.663  0.00  0.00    +0.000 C 
BRANCH  16  19
ATOM     17  O   UNL     1      32.485   0.158   2.654  0.00  0.00    +0.000 OA
ATOM     18  N   UNL     1      32.687  -2.092   2.998  0.00  0.00    +0.000 N 
ATOM     19  C   UNL     1      32.022  -0.899   3.064  0.00  0.00    +0.000 C 
ATOM     20  H   UNL     1      32.337  -2.967   3.367  0.00  0.00    +0.000 HD
BRANCH  18  21
ATOM     21  O   UNL     1      33.987  -2.086   2.447  0.00  0.00    +0.000 OA
ATOM     22  H   UNL     1      34.016  -2.935   1.954  0.00  0.00    +0.000 HD
ENDBRANCH  18  21
ENDBRANCH  16  19
ENDBRANCH  14  15
ENDBRANCH   1  13
TORSDOF 6
ENDMDL
MODEL 6
REMARK VINA RESULT:      -5.2     14.325     15.748
REMARK  Name = Vorinostat.pdbqt.pdb
REMARK  6 active torsions:
REMARK  status: ('A' for Active; 'I' for Inactive)
REMARK    1  A    between atoms: C_1  and  C_2
REMARK    2  A    between atoms: C_3  and  C_4
REMARK    3  A    between atoms: C_5  and  C_8
REMARK    4  A    between atoms: N_7  and  O_10
REMARK    5  A    between atoms: C_12  and  C_15
REMARK    6  A    between atoms: N_14  and  C_17
REMARK                            x       y       z     vdW  Elec       q    Type
REMARK                         _______ _______ _______ _____ _____    ______ ____
ROOT
ATOM      1  C   UNL     1      40.549  -1.282  10.885  0.00  0.00    +0.000 C 
ATOM      2  C   UNL     1      39.326  -0.801  11.671  0.00  0.00    +0.000 C 
ENDROOT
BRANCH   2   5
ATOM      3  O   UNL     1      37.357   0.361  11.840  0.00  0.00    +0.000 OA
ATOM      4  N   UNL     1      38.132  -0.790  13.713  0.00  0.00    +0.000 N 
ATOM      5  C   UNL     1      38.171  -0.348  12.411  0.00  0.00    +0.000 C 
ATOM      6  H   UNL     1      38.895  -1.376  14.028  0.00  0.00    +0.000 HD
BRANCH   4   7
ATOM      7  C   UNL     1      37.123  -0.498  14.647  0.00  0.00    +0.000 A 
ATOM      8  C   UNL     1      36.510  -1.568  15.300  0.00  0.00    +0.000 A 
ATOM      9  C   UNL     1      36.719   0.804  14.940  0.00  0.00    +0.000 A 
ATOM     10  C   UNL     1      35.504  -1.339  16.236  0.00  0.00    +0.000 A 
ATOM     11  C   UNL     1      35.712   1.036  15.876  0.00  0.00    +0.000 A 
ATOM     12  C   UNL     1      35.105  -0.037  16.524  0.00  0.00    +0.000 A 
ENDBRANCH   4   7
ENDBRANCH   2   5
BRANCH   1  13
ATOM     13  C   UNL     1      41.772  -1.765  10.100  0.00  0.00    +0.000 C 
ATOM     14  C   UNL     1      42.996  -2.248   9.315  0.00  0.00    +0.000 C 
BRANCH  14  15
ATOM     15  C   UNL     1      44.220  -2.730   8.531  0.00  0.00    +0.000 C 
ATOM     16  C   UNL     1      45.445  -3.212   7.748  0.00  0.00    +0.000 C 
BRANCH  16  19
ATOM     17  O   UNL     1      47.659  -3.868   7.588  0.00  0.00    +0.000 OA
ATOM     18  N   UNL     1      46.415  -3.847   5.672  0.00  0.00    +0.000 N 
ATOM     19  C   UNL     1      46.596  -3.664   7.014  0.00  0.00    +0.000 C 
ATOM     20  H   UNL     1      45.534  -3.723   5.187  0.00  0.00    +0.000 HD
BRANCH  18  21
ATOM     21  O   UNL     1      47.513  -4.323   4.922  0.00  0.00    +0.000 OA
ATOM     22  H   UNL     1      47.580  -3.664   4.196  0.00  0.00    +0.000 HD
ENDBRANCH  18  21
ENDBRANCH  16  19
ENDBRANCH  14  15
ENDBRANCH   1  13
TORSDOF 6
ENDMDL
MODEL 7
REMARK VINA RESULT:      -5.2      4.602     12.290
REMARK  Name = Vorinostat.pdbqt.pdb
REMARK  6 active torsions:
REMARK  status: ('A' for Active; 'I' for Inactive)
REMARK    1  A    between atoms: C_1  and  C_2
REMARK    2  A    between atoms: C_3  and  C_4
REMARK    3  A    between atoms: C_5  and  C_8
REMARK    4  A    between atoms: N_7  and  O_10
REMARK    5  A    between atoms: C_12  and  C_15
REMARK    6  A    between atoms: N_14  and  C_17
REMARK                            x       y       z     vdW  Elec       q    Type
REMARK                         _______ _______ _______ _____ _____    ______ ____
ROOT
ATOM      1  C   UNL     1      22.472  -0.564   8.709  0.00  0.00    +0.000 C 
ATOM      2  C   UNL     1      23.434  -0.463   7.522  0.00  0.00    +0.000 C 
ENDROOT
BRANCH   2   5
ATOM      3  O   UNL     1      23.903  -0.582   5.281  0.00  0.00    +0.000 OA
ATOM      4  N   UNL     1      25.629  -0.037   6.749  0.00  0.00    +0.000 N 
ATOM      5  C   UNL     1      24.340  -0.368   6.401  0.00  0.00    +0.000 C 
ATOM      6  H   UNL     1      25.823   0.106   7.733  0.00  0.00    +0.000 HD
BRANCH   4   7
ATOM      7  C   UNL     1      26.704   0.120   5.857  0.00  0.00    +0.000 A 
ATOM      8  C   UNL     1      27.151   1.416   5.597  0.00  0.00    +0.000 A 
ATOM      9  C   UNL     1      27.330  -0.958   5.232  0.00  0.00    +0.000 A 
ATOM     10  C   UNL     1      28.212   1.633   4.721  0.00  0.00    +0.000 A 
ATOM     11  C   UNL     1      28.393  -0.743   4.355  0.00  0.00    +0.000 A 
ATOM     12  C   UNL     1      28.833   0.553   4.100  0.00  0.00    +0.000 A 
ENDBRANCH   4   7
ENDBRANCH   2   5
BRANCH   1  13
ATOM     13  C   UNL     1      21.509  -0.663   9.896  0.00  0.00    +0.000 C 
ATOM     14  C   UNL     1      20.546  -0.763  11.083  0.00  0.00    +0.000 C 
BRANCH  14  15
ATOM     15  C   UNL     1      19.582  -0.862  12.268  0.00  0.00    +0.000 C 
ATOM     16  C   UNL     1      18.617  -0.959  13.455  0.00  0.00    +0.000 C 
BRANCH  16  19
ATOM     17  O   UNL     1      18.046  -0.653  15.677  0.00  0.00    +0.000 OA
ATOM     18  N   UNL     1      16.484  -1.590  14.296  0.00  0.00    +0.000 N 
ATOM     19  C   UNL     1      17.711  -1.050  14.567  0.00  0.00    +0.000 C 
ATOM     20  H   UNL     1      16.176  -1.885  13.379  0.00  0.00    +0.000 HD
BRANCH  18  21
ATOM     21  O   UNL     1      15.554  -1.665  15.356  0.00  0.00    +0.000 OA
ATOM     22  H   UNL     1      15.152  -0.769  15.354  0.00  0.00    +0.000 HD
ENDBRANCH  18  21
ENDBRANCH  16  19
ENDBRANCH  14  15
ENDBRANCH   1  13
TORSDOF 6
ENDMDL
MODEL 8
REMARK VINA RESULT:      -5.2      6.347     12.505
REMARK  Name = Vorinostat.pdbqt.pdb
REMARK  6 active torsions:
REMARK  status: ('A' for Active; 'I' for Inactive)
REMARK    1  A    between atoms: C_1  and  C_2
REMARK    2  A    between atoms: C_3  and  C_4
REMARK    3  A    between atoms: C_5  and  C_8
REMARK    4  A    between atoms: N_7  and  O_10
REMARK    5  A    between atoms: C_12  and  C_15
REMARK    6  A    between atoms: N_14  and  C_17
REMARK                            x       y       z     vdW  Elec       q    Type
REMARK                         _______ _______ _______ _____ _____    ______ ____
ROOT
ATOM      1  C   UNL     1      20.835  -3.536   9.690  0.00  0.00    +0.000 C 
ATOM      2  C   UNL     1      21.452  -2.707   8.560  0.00  0.00    +0.000 C 
ENDROOT
BRANCH   2   5
ATOM      3  O   UNL     1      21.414  -0.960   7.077  0.00  0.00    +0.000 OA
ATOM      4  N   UNL     1      23.257  -2.386   7.065  0.00  0.00    +0.000 N 
ATOM      5  C   UNL     1      22.033  -1.926   7.493  0.00  0.00    +0.000 C 
ATOM      6  H   UNL     1      23.631  -3.208   7.522  0.00  0.00    +0.000 HD
BRANCH   4   7
ATOM      7  C   UNL     1      24.036  -1.813   6.044  0.00  0.00    +0.000 A 
ATOM      8  C   UNL     1      24.991  -0.863   6.409  0.00  0.00    +0.000 A 
ATOM      9  C   UNL     1      23.890  -2.155   4.700  0.00  0.00    +0.000 A 
ATOM     10  C   UNL     1      25.791  -0.261   5.441  0.00  0.00    +0.000 A 
ATOM     11  C   UNL     1      24.690  -1.554   3.730  0.00  0.00    +0.000 A 
ATOM     12  C   UNL     1      25.641  -0.607   4.101  0.00  0.00    +0.000 A 
ENDBRANCH   4   7
ENDBRANCH   2   5
BRANCH   1  13
ATOM     13  C   UNL     1      20.217  -4.365  10.820  0.00  0.00    +0.000 C 
ATOM     14  C   UNL     1      19.598  -5.193  11.951  0.00  0.00    +0.000 C 
BRANCH  14  15
ATOM     15  C   UNL     1      18.981  -6.021  13.081  0.00  0.00    +0.000 C 
ATOM     16  C   UNL     1      18.363  -6.850  14.211  0.00  0.00    +0.000 C 
BRANCH  16  19
ATOM     17  O   UNL     1      16.575  -7.623  15.462  0.00  0.00    +0.000 OA
ATOM     18  N   UNL     1      18.663  -8.362  16.023  0.00  0.00    +0.000 N 
ATOM     19  C   UNL     1      17.785  -7.631  15.272  0.00  0.00    +0.000 C 
ATOM     20  H   UNL     1      19.660  -8.412  15.856  0.00  0.00    +0.000 HD
BRANCH  18  21
ATOM     21  O   UNL     1      18.130  -9.167  17.053  0.00  0.00    +0.000 OA
ATOM     22  H   UNL     1      17.915 -10.003  16.584  0.00  0.00    +0.000 HD
ENDBRANCH  18  21
ENDBRANCH  16  19
ENDBRANCH  14  15
ENDBRANCH   1  13
TORSDOF 6
ENDMDL
MODEL 9
REMARK VINA RESULT:      -5.1     21.136     24.396
REMARK  Name = Vorinostat.pdbqt.pdb
REMARK  6 active torsions:
REMARK  status: ('A' for Active; 'I' for Inactive)
REMARK    1  A    between atoms: C_1  and  C_2
REMARK    2  A    between atoms: C_3  and  C_4
REMARK    3  A    between atoms: C_5  and  C_8
REMARK    4  A    between atoms: N_7  and  O_10
REMARK    5  A    between atoms: C_12  and  C_15
REMARK    6  A    between atoms: N_14  and  C_17
REMARK                            x       y       z     vdW  Elec       q    Type
REMARK                         _______ _______ _______ _____ _____    ______ ____
ROOT
ATOM      1  C   UNL     1      21.101  16.830  19.815  0.00  0.00    +0.000 C 
ATOM      2  C   UNL     1      20.939  18.218  20.443  0.00  0.00    +0.000 C 
ENDROOT
BRANCH   2   5
ATOM      3  O   UNL     1      20.544  20.472  20.303  0.00  0.00    +0.000 OA
ATOM      4  N   UNL     1      20.934  19.542  22.404  0.00  0.00    +0.000 N 
ATOM      5  C   UNL     1      20.785  19.526  21.036  0.00  0.00    +0.000 C 
ATOM      6  H   UNL     1      21.134  18.660  22.860  0.00  0.00    +0.000 HD
BRANCH   4   7
ATOM      7  C   UNL     1      20.835  20.678  23.225  0.00  0.00    +0.000 A 
ATOM      8  C   UNL     1      22.007  21.171  23.799  0.00  0.00    +0.000 A 
ATOM      9  C   UNL     1      19.625  21.321  23.483  0.00  0.00    +0.000 A 
ATOM     10  C   UNL     1      21.971  22.295  24.622  0.00  0.00    +0.000 A 
ATOM     11  C   UNL     1      19.585  22.445  24.306  0.00  0.00    +0.000 A 
ATOM     12  C   UNL     1      20.759  22.932  24.875  0.00  0.00    +0.000 A 
ENDBRANCH   4   7
ENDBRANCH   2   5
BRANCH   1  13
ATOM     13  C   UNL     1      21.265  15.442  19.189  0.00  0.00    +0.000 C 
ATOM     14  C   UNL     1      21.430  14.054  18.563  0.00  0.00    +0.000 C 
BRANCH  14  15
ATOM     15  C   UNL     1      21.595  12.667  17.936  0.00  0.00    +0.000 C 
ATOM     16  C   UNL     1      21.759  11.279  17.309  0.00  0.00    +0.000 C 
BRANCH  16  19
ATOM     17  O   UNL     1      22.456   9.845  15.632  0.00  0.00    +0.000 OA
ATOM     18  N   UNL     1      21.419   8.929  17.450  0.00  0.00    +0.000 N 
ATOM     19  C   UNL     1      21.910   9.975  16.720  0.00  0.00    +0.000 C 
ATOM     20  H   UNL     1      21.001   9.014  18.368  0.00  0.00    +0.000 HD
BRANCH  18  21
ATOM     21  O   UNL     1      21.578   7.630  16.920  0.00  0.00    +0.000 OA
ATOM     22  H   UNL     1      21.768   7.805  15.973  0.00  0.00    +0.000 HD
ENDBRANCH  18  21
ENDBRANCH  16  19
ENDBRANCH  14  15
ENDBRANCH   1  13
TORSDOF 6
ENDMDL
