MODEL 1
REMARK VINA RESULT:      -7.7      0.000      0.000
REMARK  Name = 10074640_Masitinib.pdbqt.pdb
REMARK  6 active torsions:
REMARK  status: ('A' for Active; 'I' for Inactive)
REMARK    1  A    between atoms: C_1  and  N_22
REMARK    2  A    between atoms: C_2  and  N_9
REMARK    3  A    between atoms: C_12  and  C_16
REMARK    4  A    between atoms: C_23  and  C_30
REMARK    5  A    between atoms: C_25  and  C_31
REMARK    6  A    between atoms: C_31  and  N_32
REMARK                            x       y       z     vdW  Elec       q    Type
REMARK                         _______ _______ _______ _____ _____    ______ ____
ROOT
ATOM      1  C   UNL     1     146.773 125.316  96.534  0.00  0.00    +0.000 A 
ATOM      2  C   UNL     1     147.317 126.453  98.635  0.00  0.00    +0.000 A 
ATOM      3  C   UNL     1     146.877 125.327  97.926  0.00  0.00    +0.000 A 
ATOM      4  C   UNL     1     147.656 127.594  97.881  0.00  0.00    +0.000 A 
ATOM      5  C   UNL     1     147.139 126.453  95.818  0.00  0.00    +0.000 A 
ATOM      6  C   UNL     1     147.570 127.594  96.489  0.00  0.00    +0.000 A 
ATOM      7  C   UNL     1     148.130 128.859  98.568  0.00  0.00    +0.000 C 
ENDROOT
BRANCH   2   9
ATOM      8  S   UNL     1     146.879 126.603 102.644  0.00  0.00    +0.000 S 
ATOM      9  N   UNL     1     147.461 126.444 100.043  0.00  0.00    +0.000 N 
ATOM     10  N   UNL     1     145.183 126.415 100.728  0.00  0.00    +0.000 NA
ATOM     11  C   UNL     1     146.474 126.484 100.966  0.00  0.00    +0.000 A 
ATOM     12  C   UNL     1     144.454 126.493 101.899  0.00  0.00    +0.000 A 
ATOM     13  C   UNL     1     145.227 126.600 103.030  0.00  0.00    +0.000 A 
ATOM     14  H   UNL     1     148.428 126.381 100.354  0.00  0.00    +0.000 HD
BRANCH  12  16
ATOM     15  N   UNL     1     140.927 127.077 102.977  0.00  0.00    +0.000 NA
ATOM     16  C   UNL     1     143.009 126.446 101.905  0.00  0.00    +0.000 A 
ATOM     17  C   UNL     1     142.290 125.811 100.897  0.00  0.00    +0.000 A 
ATOM     18  C   UNL     1     142.283 127.054 102.919  0.00  0.00    +0.000 A 
ATOM     19  C   UNL     1     140.899 125.800 100.926  0.00  0.00    +0.000 A 
ATOM     20  C   UNL     1     140.274 126.444 101.980  0.00  0.00    +0.000 A 
ENDBRANCH  12  16
ENDBRANCH   2   9
BRANCH   1  22
ATOM     21  O   UNL     1     144.064 124.298  96.282  0.00  0.00    +0.000 OA
ATOM     22  N   UNL     1     146.333 124.191  95.809  0.00  0.00    +0.000 N 
ATOM     23  C   UNL     1     145.024 123.734  95.772  0.00  0.00    +0.000 C 
ATOM     24  H   UNL     1     147.037 123.712  95.258  0.00  0.00    +0.000 HD
BRANCH  23  30
ATOM     25  C   UNL     1     144.279 120.079  93.694  0.00  0.00    +0.000 A 
ATOM     26  C   UNL     1     145.393 120.841  93.351  0.00  0.00    +0.000 A 
ATOM     27  C   UNL     1     143.418 120.508  94.700  0.00  0.00    +0.000 A 
ATOM     28  C   UNL     1     145.647 122.038  94.018  0.00  0.00    +0.000 A 
ATOM     29  C   UNL     1     143.672 121.705  95.365  0.00  0.00    +0.000 A 
ATOM     30  C   UNL     1     144.787 122.475  95.025  0.00  0.00    +0.000 A 
BRANCH  25  31
ATOM     31  C   UNL     1     144.020 118.853  93.013  0.00  0.00    +0.000 C 
BRANCH  31  32
ATOM     32  N   UNL     1     143.753 117.600  92.319  0.00  0.00    +0.000 N 
ATOM     33  N   UNL     1     144.666 114.656  94.081  0.00  0.00    +0.000 N 
ATOM     34  C   UNL     1     145.015 116.809  92.356  0.00  0.00    +0.000 C 
ATOM     35  C   UNL     1     143.003 116.731  93.268  0.00  0.00    +0.000 C 
ATOM     36  C   UNL     1     145.412 115.515  93.121  0.00  0.00    +0.000 C 
ATOM     37  C   UNL     1     143.400 115.437  94.034  0.00  0.00    +0.000 C 
ATOM     38  C   UNL     1     144.410 113.389  93.411  0.00  0.00    +0.000 C 
ENDBRANCH  31  32
ENDBRANCH  25  31
ENDBRANCH  23  30
ENDBRANCH   1  22
TORSDOF 6
ENDMDL
MODEL 2
REMARK VINA RESULT:      -7.2     39.012     45.677
REMARK  Name = 10074640_Masitinib.pdbqt.pdb
REMARK  6 active torsions:
REMARK  status: ('A' for Active; 'I' for Inactive)
REMARK    1  A    between atoms: C_1  and  N_22
REMARK    2  A    between atoms: C_2  and  N_9
REMARK    3  A    between atoms: C_12  and  C_16
REMARK    4  A    between atoms: C_23  and  C_30
REMARK    5  A    between atoms: C_25  and  C_31
REMARK    6  A    between atoms: C_31  and  N_32
REMARK                            x       y       z     vdW  Elec       q    Type
REMARK                         _______ _______ _______ _____ _____    ______ ____
ROOT
ATOM      1  C   UNL     1     134.060 122.368 140.030  0.00  0.00    +0.000 A 
ATOM      2  C   UNL     1     133.969 120.670 138.267  0.00  0.00    +0.000 A 
ATOM      3  C   UNL     1     134.690 121.507 139.130  0.00  0.00    +0.000 A 
ATOM      4  C   UNL     1     132.564 120.729 138.341  0.00  0.00    +0.000 A 
ATOM      5  C   UNL     1     132.669 122.384 140.095  0.00  0.00    +0.000 A 
ATOM      6  C   UNL     1     131.920 121.574 139.245  0.00  0.00    +0.000 A 
ATOM      7  C   UNL     1     131.707 119.867 137.436  0.00  0.00    +0.000 C 
ENDROOT
BRANCH   2   9
ATOM      8  S   UNL     1     135.972 118.813 135.296  0.00  0.00    +0.000 S 
ATOM      9  N   UNL     1     134.613 119.768 137.387  0.00  0.00    +0.000 N 
ATOM     10  N   UNL     1     135.801 121.279 135.985  0.00  0.00    +0.000 NA
ATOM     11  C   UNL     1     135.393 120.077 136.327  0.00  0.00    +0.000 A 
ATOM     12  C   UNL     1     136.579 121.237 134.844  0.00  0.00    +0.000 A 
ATOM     13  C   UNL     1     136.765 119.971 134.342  0.00  0.00    +0.000 A 
ATOM     14  H   UNL     1     134.462 118.790 137.623  0.00  0.00    +0.000 HD
BRANCH  12  16
ATOM     15  N   UNL     1     137.016 124.166 132.570  0.00  0.00    +0.000 NA
ATOM     16  C   UNL     1     137.146 122.432 134.260  0.00  0.00    +0.000 A 
ATOM     17  C   UNL     1     138.282 123.039 134.786  0.00  0.00    +0.000 A 
ATOM     18  C   UNL     1     136.560 123.030 133.154  0.00  0.00    +0.000 A 
ATOM     19  C   UNL     1     138.791 124.198 134.210  0.00  0.00    +0.000 A 
ATOM     20  C   UNL     1     138.124 124.715 133.113  0.00  0.00    +0.000 A 
ENDBRANCH  12  16
ENDBRANCH   2   9
BRANCH   1  22
ATOM     21  O   UNL     1     134.807 121.864 142.792  0.00  0.00    +0.000 OA
ATOM     22  N   UNL     1     134.772 123.214 140.905  0.00  0.00    +0.000 N 
ATOM     23  C   UNL     1     135.053 122.925 142.232  0.00  0.00    +0.000 C 
ATOM     24  H   UNL     1     135.120 124.078 140.505  0.00  0.00    +0.000 HD
BRANCH  23  30
ATOM     25  C   UNL     1     136.991 125.942 144.550  0.00  0.00    +0.000 A 
ATOM     26  C   UNL     1     136.554 126.250 143.264  0.00  0.00    +0.000 A 
ATOM     27  C   UNL     1     136.801 124.666 145.070  0.00  0.00    +0.000 A 
ATOM     28  C   UNL     1     135.923 125.274 142.495  0.00  0.00    +0.000 A 
ATOM     29  C   UNL     1     136.172 123.691 144.300  0.00  0.00    +0.000 A 
ATOM     30  C   UNL     1     135.732 123.991 143.008  0.00  0.00    +0.000 A 
BRANCH  25  31
ATOM     31  C   UNL     1     137.636 126.941 145.338  0.00  0.00    +0.000 C 
BRANCH  31  32
ATOM     32  N   UNL     1     138.292 127.962 146.145  0.00  0.00    +0.000 N 
ATOM     33  N   UNL     1     138.072 127.504 149.659  0.00  0.00    +0.000 N 
ATOM     34  C   UNL     1     137.295 128.423 147.151  0.00  0.00    +0.000 C 
ATOM     35  C   UNL     1     139.168 127.248 147.116  0.00  0.00    +0.000 C 
ATOM     36  C   UNL     1     137.204 128.230 148.692  0.00  0.00    +0.000 C 
ATOM     37  C   UNL     1     139.076 127.054 148.656  0.00  0.00    +0.000 C 
ATOM     38  C   UNL     1     138.720 128.510 150.489  0.00  0.00    +0.000 C 
ENDBRANCH  31  32
ENDBRANCH  25  31
ENDBRANCH  23  30
ENDBRANCH   1  22
TORSDOF 6
ENDMDL
MODEL 3
REMARK VINA RESULT:      -7.0     38.377     44.169
REMARK  Name = 10074640_Masitinib.pdbqt.pdb
REMARK  6 active torsions:
REMARK  status: ('A' for Active; 'I' for Inactive)
REMARK    1  A    between atoms: C_1  and  N_22
REMARK    2  A    between atoms: C_2  and  N_9
REMARK    3  A    between atoms: C_12  and  C_16
REMARK    4  A    between atoms: C_23  and  C_30
REMARK    5  A    between atoms: C_25  and  C_31
REMARK    6  A    between atoms: C_31  and  N_32
REMARK                            x       y       z     vdW  Elec       q    Type
REMARK                         _______ _______ _______ _____ _____    ______ ____
ROOT
ATOM      1  C   UNL     1     133.175 122.081 140.703  0.00  0.00    +0.000 A 
ATOM      2  C   UNL     1     131.818 123.062 142.491  0.00  0.00    +0.000 A 
ATOM      3  C   UNL     1     132.595 123.185 141.331  0.00  0.00    +0.000 A 
ATOM      4  C   UNL     1     131.640 121.765 143.011  0.00  0.00    +0.000 A 
ATOM      5  C   UNL     1     132.960 120.810 141.230  0.00  0.00    +0.000 A 
ATOM      6  C   UNL     1     132.203 120.651 142.387  0.00  0.00    +0.000 A 
ATOM      7  C   UNL     1     130.824 121.543 144.268  0.00  0.00    +0.000 C 
ENDROOT
BRANCH   2   9
ATOM      8  S   UNL     1     130.830 126.380 144.565  0.00  0.00    +0.000 S 
ATOM      9  N   UNL     1     131.196 124.179 143.098  0.00  0.00    +0.000 N 
ATOM     10  N   UNL     1     133.093 125.365 143.907  0.00  0.00    +0.000 NA
ATOM     11  C   UNL     1     131.797 125.178 143.782  0.00  0.00    +0.000 A 
ATOM     12  C   UNL     1     133.364 126.478 144.679  0.00  0.00    +0.000 A 
ATOM     13  C   UNL     1     132.243 127.140 145.116  0.00  0.00    +0.000 A 
ATOM     14  H   UNL     1     130.187 124.205 142.968  0.00  0.00    +0.000 HD
BRANCH  12  16
ATOM     15  N   UNL     1     136.833 127.758 144.157  0.00  0.00    +0.000 NA
ATOM     16  C   UNL     1     134.718 126.894 144.970  0.00  0.00    +0.000 A 
ATOM     17  C   UNL     1     135.224 126.897 146.267  0.00  0.00    +0.000 A 
ATOM     18  C   UNL     1     135.563 127.326 143.957  0.00  0.00    +0.000 A 
ATOM     19  C   UNL     1     136.525 127.320 146.513  0.00  0.00    +0.000 A 
ATOM     20  C   UNL     1     137.280 127.738 145.430  0.00  0.00    +0.000 A 
ENDBRANCH  12  16
ENDBRANCH   2   9
BRANCH   1  22
ATOM     21  O   UNL     1     136.049 122.455 140.506  0.00  0.00    +0.000 OA
ATOM     22  N   UNL     1     133.958 122.190 139.536  0.00  0.00    +0.000 N 
ATOM     23  C   UNL     1     135.326 122.416 139.518  0.00  0.00    +0.000 C 
ATOM     24  H   UNL     1     133.469 122.061 138.658  0.00  0.00    +0.000 HD
BRANCH  23  30
ATOM     25  C   UNL     1     137.022 122.925 135.633  0.00  0.00    +0.000 A 
ATOM     26  C   UNL     1     137.841 122.518 136.684  0.00  0.00    +0.000 A 
ATOM     27  C   UNL     1     135.669 123.166 135.849  0.00  0.00    +0.000 A 
ATOM     28  C   UNL     1     137.302 122.351 137.958  0.00  0.00    +0.000 A 
ATOM     29  C   UNL     1     135.132 123.000 137.124  0.00  0.00    +0.000 A 
ATOM     30  C   UNL     1     135.947 122.593 138.183  0.00  0.00    +0.000 A 
BRANCH  25  31
ATOM     31  C   UNL     1     137.573 123.094 134.328  0.00  0.00    +0.000 C 
BRANCH  31  32
ATOM     32  N   UNL     1     138.138 123.267 132.996  0.00  0.00    +0.000 N 
ATOM     33  N   UNL     1     140.439 125.949 132.650  0.00  0.00    +0.000 N 
ATOM     34  C   UNL     1     137.954 124.699 132.631  0.00  0.00    +0.000 C 
ATOM     35  C   UNL     1     139.617 123.341 133.161  0.00  0.00    +0.000 C 
ATOM     36  C   UNL     1     138.963 125.872 132.471  0.00  0.00    +0.000 C 
ATOM     37  C   UNL     1     140.626 124.514 133.001  0.00  0.00    +0.000 C 
ATOM     38  C   UNL     1     141.019 126.144 131.329  0.00  0.00    +0.000 C 
ENDBRANCH  31  32
ENDBRANCH  25  31
ENDBRANCH  23  30
ENDBRANCH   1  22
TORSDOF 6
ENDMDL
MODEL 4
REMARK VINA RESULT:      -6.8     37.243     43.675
REMARK  Name = 10074640_Masitinib.pdbqt.pdb
REMARK  6 active torsions:
REMARK  status: ('A' for Active; 'I' for Inactive)
REMARK    1  A    between atoms: C_1  and  N_22
REMARK    2  A    between atoms: C_2  and  N_9
REMARK    3  A    between atoms: C_12  and  C_16
REMARK    4  A    between atoms: C_23  and  C_30
REMARK    5  A    between atoms: C_25  and  C_31
REMARK    6  A    between atoms: C_31  and  N_32
REMARK                            x       y       z     vdW  Elec       q    Type
REMARK                         _______ _______ _______ _____ _____    ______ ____
ROOT
ATOM      1  C   UNL     1     134.669 122.359 135.856  0.00  0.00    +0.000 A 
ATOM      2  C   UNL     1     133.671 120.963 134.108  0.00  0.00    +0.000 A 
ATOM      3  C   UNL     1     133.743 121.402 135.437  0.00  0.00    +0.000 A 
ATOM      4  C   UNL     1     134.581 121.531 133.194  0.00  0.00    +0.000 A 
ATOM      5  C   UNL     1     135.538 122.918 134.923  0.00  0.00    +0.000 A 
ATOM      6  C   UNL     1     135.503 122.498 133.596  0.00  0.00    +0.000 A 
ATOM      7  C   UNL     1     134.581 121.106 131.740  0.00  0.00    +0.000 C 
ENDROOT
BRANCH   2   9
ATOM      8  S   UNL     1     131.522 117.705 133.081  0.00  0.00    +0.000 S 
ATOM      9  N   UNL     1     132.703 120.025 133.679  0.00  0.00    +0.000 N 
ATOM     10  N   UNL     1     133.672 117.994 134.452  0.00  0.00    +0.000 NA
ATOM     11  C   UNL     1     132.759 118.679 133.800  0.00  0.00    +0.000 A 
ATOM     12  C   UNL     1     133.432 116.636 134.368  0.00  0.00    +0.000 A 
ATOM     13  C   UNL     1     132.303 116.312 133.655  0.00  0.00    +0.000 A 
ATOM     14  H   UNL     1     131.882 120.450 133.255  0.00  0.00    +0.000 HD
BRANCH  12  16
ATOM     15  N   UNL     1     135.478 113.551 134.858  0.00  0.00    +0.000 NA
ATOM     16  C   UNL     1     134.299 115.666 134.998  0.00  0.00    +0.000 A 
ATOM     17  C   UNL     1     134.832 115.870 136.268  0.00  0.00    +0.000 A 
ATOM     18  C   UNL     1     134.647 114.493 134.344  0.00  0.00    +0.000 A 
ATOM     19  C   UNL     1     135.676 114.924 136.837  0.00  0.00    +0.000 A 
ATOM     20  C   UNL     1     135.965 113.792 136.094  0.00  0.00    +0.000 A 
ENDBRANCH  12  16
ENDBRANCH   2   9
BRANCH   1  22
ATOM     21  O   UNL     1     135.164 120.787 138.249  0.00  0.00    +0.000 OA
ATOM     22  N   UNL     1     134.751 122.810 137.189  0.00  0.00    +0.000 N 
ATOM     23  C   UNL     1     134.944 121.991 138.292  0.00  0.00    +0.000 C 
ATOM     24  H   UNL     1     134.691 123.813 137.325  0.00  0.00    +0.000 HD
BRANCH  23  30
ATOM     25  C   UNL     1     134.734 123.881 142.115  0.00  0.00    +0.000 A 
ATOM     26  C   UNL     1     135.860 124.080 141.319  0.00  0.00    +0.000 A 
ATOM     27  C   UNL     1     133.692 123.073 141.669  0.00  0.00    +0.000 A 
ATOM     28  C   UNL     1     135.943 123.467 140.071  0.00  0.00    +0.000 A 
ATOM     29  C   UNL     1     133.778 122.459 140.422  0.00  0.00    +0.000 A 
ATOM     30  C   UNL     1     134.905 122.653 139.618  0.00  0.00    +0.000 A 
BRANCH  25  31
ATOM     31  C   UNL     1     134.646 124.510 143.392  0.00  0.00    +0.000 C 
BRANCH  31  32
ATOM     32  N   UNL     1     134.556 125.155 144.696  0.00  0.00    +0.000 N 
ATOM     33  N   UNL     1     137.115 127.508 145.416  0.00  0.00    +0.000 N 
ATOM     34  C   UNL     1     135.890 125.012 145.342  0.00  0.00    +0.000 C 
ATOM     35  C   UNL     1     134.658 126.623 144.460  0.00  0.00    +0.000 C 
ATOM     36  C   UNL     1     137.008 126.045 145.665  0.00  0.00    +0.000 C 
ATOM     37  C   UNL     1     135.775 127.655 144.783  0.00  0.00    +0.000 C 
ATOM     38  C   UNL     1     137.048 128.168 146.712  0.00  0.00    +0.000 C 
ENDBRANCH  31  32
ENDBRANCH  25  31
ENDBRANCH  23  30
ENDBRANCH   1  22
TORSDOF 6
ENDMDL
MODEL 5
REMARK VINA RESULT:      -6.8     14.859     19.615
REMARK  Name = 10074640_Masitinib.pdbqt.pdb
REMARK  6 active torsions:
REMARK  status: ('A' for Active; 'I' for Inactive)
REMARK    1  A    between atoms: C_1  and  N_22
REMARK    2  A    between atoms: C_2  and  N_9
REMARK    3  A    between atoms: C_12  and  C_16
REMARK    4  A    between atoms: C_23  and  C_30
REMARK    5  A    between atoms: C_25  and  C_31
REMARK    6  A    between atoms: C_31  and  N_32
REMARK                            x       y       z     vdW  Elec       q    Type
REMARK                         _______ _______ _______ _____ _____    ______ ____
ROOT
ATOM      1  C   UNL     1     141.083 115.694 112.544  0.00  0.00    +0.000 A 
ATOM      2  C   UNL     1     143.046 115.717 111.079  0.00  0.00    +0.000 A 
ATOM      3  C   UNL     1     141.727 116.090 111.370  0.00  0.00    +0.000 A 
ATOM      4  C   UNL     1     143.711 114.916 112.028  0.00  0.00    +0.000 A 
ATOM      5  C   UNL     1     141.777 114.922 113.472  0.00  0.00    +0.000 A 
ATOM      6  C   UNL     1     143.086 114.524 113.212  0.00  0.00    +0.000 A 
ATOM      7  C   UNL     1     145.136 114.458 111.789  0.00  0.00    +0.000 C 
ENDROOT
BRANCH   2   9
ATOM      8  S   UNL     1     144.439 116.377 107.349  0.00  0.00    +0.000 S 
ATOM      9  N   UNL     1     143.709 116.156 109.908  0.00  0.00    +0.000 N 
ATOM     10  N   UNL     1     142.364 115.147 108.225  0.00  0.00    +0.000 NA
ATOM     11  C   UNL     1     143.409 115.835 108.630  0.00  0.00    +0.000 A 
ATOM     12  C   UNL     1     142.368 114.994 106.852  0.00  0.00    +0.000 A 
ATOM     13  C   UNL     1     143.430 115.602 106.226  0.00  0.00    +0.000 A 
ATOM     14  H   UNL     1     144.478 116.798 110.091  0.00  0.00    +0.000 HD
BRANCH  12  16
ATOM     15  N   UNL     1     140.718 112.549 104.563  0.00  0.00    +0.000 NA
ATOM     16  C   UNL     1     141.326 114.269 106.161  0.00  0.00    +0.000 A 
ATOM     17  C   UNL     1     139.976 114.506 106.408  0.00  0.00    +0.000 A 
ATOM     18  C   UNL     1     141.639 113.290 105.229  0.00  0.00    +0.000 A 
ATOM     19  C   UNL     1     139.000 113.778 105.737  0.00  0.00    +0.000 A 
ATOM     20  C   UNL     1     139.423 112.818 104.833  0.00  0.00    +0.000 A 
ENDBRANCH  12  16
ENDBRANCH   2   9
BRANCH   1  22
ATOM     21  O   UNL     1     138.633 114.298 111.845  0.00  0.00    +0.000 OA
ATOM     22  N   UNL     1     139.757 116.063 112.849  0.00  0.00    +0.000 N 
ATOM     23  C   UNL     1     138.628 115.369 112.440  0.00  0.00    +0.000 C 
ATOM     24  H   UNL     1     139.646 116.882 113.436  0.00  0.00    +0.000 HD
BRANCH  23  30
ATOM     25  C   UNL     1     134.819 117.057 113.373  0.00  0.00    +0.000 A 
ATOM     26  C   UNL     1     135.974 117.747 113.732  0.00  0.00    +0.000 A 
ATOM     27  C   UNL     1     134.907 115.830 112.722  0.00  0.00    +0.000 A 
ATOM     28  C   UNL     1     137.224 117.206 113.437  0.00  0.00    +0.000 A 
ATOM     29  C   UNL     1     136.157 115.290 112.429  0.00  0.00    +0.000 A 
ATOM     30  C   UNL     1     137.320 115.976 112.787  0.00  0.00    +0.000 A 
BRANCH  25  31
ATOM     31  C   UNL     1     133.539 117.610 113.673  0.00  0.00    +0.000 C 
BRANCH  31  32
ATOM     32  N   UNL     1     132.230 118.174 113.979  0.00  0.00    +0.000 N 
ATOM     33  N   UNL     1     132.211 120.746 116.426  0.00  0.00    +0.000 N 
ATOM     34  C   UNL     1     132.081 118.141 115.460  0.00  0.00    +0.000 C 
ATOM     35  C   UNL     1     132.362 119.654 113.873  0.00  0.00    +0.000 C 
ATOM     36  C   UNL     1     132.064 119.268 116.531  0.00  0.00    +0.000 C 
ATOM     37  C   UNL     1     132.345 120.782 114.944  0.00  0.00    +0.000 C 
ATOM     38  C   UNL     1     130.916 121.327 116.750  0.00  0.00    +0.000 C 
ENDBRANCH  31  32
ENDBRANCH  25  31
ENDBRANCH  23  30
ENDBRANCH   1  22
TORSDOF 6
ENDMDL
MODEL 6
REMARK VINA RESULT:      -6.8     30.974     36.031
REMARK  Name = 10074640_Masitinib.pdbqt.pdb
REMARK  6 active torsions:
REMARK  status: ('A' for Active; 'I' for Inactive)
REMARK    1  A    between atoms: C_1  and  N_22
REMARK    2  A    between atoms: C_2  and  N_9
REMARK    3  A    between atoms: C_12  and  C_16
REMARK    4  A    between atoms: C_23  and  C_30
REMARK    5  A    between atoms: C_25  and  C_31
REMARK    6  A    between atoms: C_31  and  N_32
REMARK                            x       y       z     vdW  Elec       q    Type
REMARK                         _______ _______ _______ _____ _____    ______ ____
ROOT
ATOM      1  C   UNL     1     135.017 121.036 134.010  0.00  0.00    +0.000 A 
ATOM      2  C   UNL     1     137.200 121.627 134.950  0.00  0.00    +0.000 A 
ATOM      3  C   UNL     1     136.411 121.046 133.948  0.00  0.00    +0.000 A 
ATOM      4  C   UNL     1     136.526 122.210 136.041  0.00  0.00    +0.000 A 
ATOM      5  C   UNL     1     134.381 121.641 135.091  0.00  0.00    +0.000 A 
ATOM      6  C   UNL     1     135.132 122.219 136.111  0.00  0.00    +0.000 A 
ATOM      7  C   UNL     1     137.302 122.850 137.175  0.00  0.00    +0.000 C 
ENDROOT
BRANCH   2   9
ATOM      8  S   UNL     1     141.076 122.399 134.133  0.00  0.00    +0.000 S 
ATOM      9  N   UNL     1     138.612 121.673 134.861  0.00  0.00    +0.000 N 
ATOM     10  N   UNL     1     138.923 123.726 133.700  0.00  0.00    +0.000 NA
ATOM     11  C   UNL     1     139.362 122.609 134.238  0.00  0.00    +0.000 A 
ATOM     12  C   UNL     1     139.958 124.451 133.141  0.00  0.00    +0.000 A 
ATOM     13  C   UNL     1     141.192 123.866 133.288  0.00  0.00    +0.000 A 
ATOM     14  H   UNL     1     139.076 120.909 135.347  0.00  0.00    +0.000 HD
BRANCH  12  16
ATOM     15  N   UNL     1     139.457 126.944 130.407  0.00  0.00    +0.000 NA
ATOM     16  C   UNL     1     139.734 125.717 132.480  0.00  0.00    +0.000 A 
ATOM     17  C   UNL     1     139.537 126.895 133.195  0.00  0.00    +0.000 A 
ATOM     18  C   UNL     1     139.691 125.799 131.096  0.00  0.00    +0.000 A 
ATOM     19  C   UNL     1     139.307 128.093 132.527  0.00  0.00    +0.000 A 
ATOM     20  C   UNL     1     139.277 128.061 131.143  0.00  0.00    +0.000 A 
ENDBRANCH  12  16
ENDBRANCH   2   9
BRANCH   1  22
ATOM     21  O   UNL     1     133.528 118.544 134.133  0.00  0.00    +0.000 OA
ATOM     22  N   UNL     1     134.211 120.456 133.009  0.00  0.00    +0.000 N 
ATOM     23  C   UNL     1     133.565 119.234 133.121  0.00  0.00    +0.000 C 
ATOM     24  H   UNL     1     134.086 121.004 132.165  0.00  0.00    +0.000 HD
BRANCH  23  30
ATOM     25  C   UNL     1     131.538 117.777 129.657  0.00  0.00    +0.000 A 
ATOM     26  C   UNL     1     131.514 119.142 129.935  0.00  0.00    +0.000 A 
ATOM     27  C   UNL     1     132.211 116.900 130.502  0.00  0.00    +0.000 A 
ATOM     28  C   UNL     1     132.168 119.631 131.064  0.00  0.00    +0.000 A 
ATOM     29  C   UNL     1     132.863 117.390 131.631  0.00  0.00    +0.000 A 
ATOM     30  C   UNL     1     132.843 118.758 131.917  0.00  0.00    +0.000 A 
BRANCH  25  31
ATOM     31  C   UNL     1     130.870 117.276 128.501  0.00  0.00    +0.000 C 
BRANCH  31  32
ATOM     32  N   UNL     1     130.188 116.766 127.318  0.00  0.00    +0.000 N 
ATOM     33  N   UNL     1     132.050 116.921 124.299  0.00  0.00    +0.000 N 
ATOM     34  C   UNL     1     130.302 117.817 126.268  0.00  0.00    +0.000 C 
ATOM     35  C   UNL     1     131.117 115.800 126.667  0.00  0.00    +0.000 C 
ATOM     36  C   UNL     1     131.110 117.881 124.941  0.00  0.00    +0.000 C 
ATOM     37  C   UNL     1     131.926 115.865 125.340  0.00  0.00    +0.000 C 
ATOM     38  C   UNL     1     131.392 116.418 123.101  0.00  0.00    +0.000 C 
ENDBRANCH  31  32
ENDBRANCH  25  31
ENDBRANCH  23  30
ENDBRANCH   1  22
TORSDOF 6
ENDMDL
MODEL 7
REMARK VINA RESULT:      -6.6      8.735     11.929
REMARK  Name = 10074640_Masitinib.pdbqt.pdb
REMARK  6 active torsions:
REMARK  status: ('A' for Active; 'I' for Inactive)
REMARK    1  A    between atoms: C_1  and  N_22
REMARK    2  A    between atoms: C_2  and  N_9
REMARK    3  A    between atoms: C_12  and  C_16
REMARK    4  A    between atoms: C_23  and  C_30
REMARK    5  A    between atoms: C_25  and  C_31
REMARK    6  A    between atoms: C_31  and  N_32
REMARK                            x       y       z     vdW  Elec       q    Type
REMARK                         _______ _______ _______ _____ _____    ______ ____
ROOT
ATOM      1  C   UNL     1     139.816 128.933  93.012  0.00  0.00    +0.000 A 
ATOM      2  C   UNL     1     138.919 130.602  91.460  0.00  0.00    +0.000 A 
ATOM      3  C   UNL     1     139.660 130.258  92.598  0.00  0.00    +0.000 A 
ATOM      4  C   UNL     1     138.326 129.549  90.736  0.00  0.00    +0.000 A 
ATOM      5  C   UNL     1     139.237 127.914  92.260  0.00  0.00    +0.000 A 
ATOM      6  C   UNL     1     138.484 128.220  91.130  0.00  0.00    +0.000 A 
ATOM      7  C   UNL     1     137.497 129.834  89.500  0.00  0.00    +0.000 C 
ENDROOT
BRANCH   2   9
ATOM      8  S   UNL     1     137.974 134.475  90.826  0.00  0.00    +0.000 S 
ATOM      9  N   UNL     1     138.800 131.942  91.021  0.00  0.00    +0.000 N 
ATOM     10  N   UNL     1     137.490 132.876  92.773  0.00  0.00    +0.000 NA
ATOM     11  C   UNL     1     138.097 132.936  91.609  0.00  0.00    +0.000 A 
ATOM     12  C   UNL     1     136.860 134.069  93.071  0.00  0.00    +0.000 A 
ATOM     13  C   UNL     1     137.025 135.040  92.114  0.00  0.00    +0.000 A 
ATOM     14  H   UNL     1     139.330 132.144  90.176  0.00  0.00    +0.000 HD
BRANCH  12  16
ATOM     15  N   UNL     1     134.510 133.381  95.891  0.00  0.00    +0.000 NA
ATOM     16  C   UNL     1     136.115 134.255  94.296  0.00  0.00    +0.000 A 
ATOM     17  C   UNL     1     136.270 135.391  95.086  0.00  0.00    +0.000 A 
ATOM     18  C   UNL     1     135.222 133.290  94.739  0.00  0.00    +0.000 A 
ATOM     19  C   UNL     1     135.550 135.530  96.267  0.00  0.00    +0.000 A 
ATOM     20  C   UNL     1     134.691 134.503  96.620  0.00  0.00    +0.000 A 
ENDBRANCH  12  16
ENDBRANCH   2   9
BRANCH   1  22
ATOM     21  O   UNL     1     139.049 129.192  95.802  0.00  0.00    +0.000 OA
ATOM     22  N   UNL     1     140.560 128.572  94.153  0.00  0.00    +0.000 N 
ATOM     23  C   UNL     1     140.147 128.769  95.463  0.00  0.00    +0.000 C 
ATOM     24  H   UNL     1     141.446 128.110  93.981  0.00  0.00    +0.000 HD
BRANCH  23  30
ATOM     25  C   UNL     1     142.945 127.816  98.545  0.00  0.00    +0.000 A 
ATOM     26  C   UNL     1     142.820 126.961  97.452  0.00  0.00    +0.000 A 
ATOM     27  C   UNL     1     142.163 128.964  98.632  0.00  0.00    +0.000 A 
ATOM     28  C   UNL     1     141.909 127.258  96.441  0.00  0.00    +0.000 A 
ATOM     29  C   UNL     1     141.252 129.259  97.620  0.00  0.00    +0.000 A 
ATOM     30  C   UNL     1     141.120 128.406  96.522  0.00  0.00    +0.000 A 
BRANCH  25  31
ATOM     31  C   UNL     1     143.878 127.514  99.580  0.00  0.00    +0.000 C 
BRANCH  31  32
ATOM     32  N   UNL     1     144.832 127.207 100.638  0.00  0.00    +0.000 N 
ATOM     33  N   UNL     1     143.418 126.007 103.666  0.00  0.00    +0.000 N 
ATOM     34  C   UNL     1     144.356 127.907 101.864  0.00  0.00    +0.000 C 
ATOM     35  C   UNL     1     144.518 125.832 101.118  0.00  0.00    +0.000 C 
ATOM     36  C   UNL     1     143.745 127.380 103.194  0.00  0.00    +0.000 C 
ATOM     37  C   UNL     1     143.906 125.305 102.447  0.00  0.00    +0.000 C 
ATOM     38  C   UNL     1     144.348 125.692 104.740  0.00  0.00    +0.000 C 
ENDBRANCH  31  32
ENDBRANCH  25  31
ENDBRANCH  23  30
ENDBRANCH   1  22
TORSDOF 6
ENDMDL
MODEL 8
REMARK VINA RESULT:      -6.6      7.222     10.964
REMARK  Name = 10074640_Masitinib.pdbqt.pdb
REMARK  6 active torsions:
REMARK  status: ('A' for Active; 'I' for Inactive)
REMARK    1  A    between atoms: C_1  and  N_22
REMARK    2  A    between atoms: C_2  and  N_9
REMARK    3  A    between atoms: C_12  and  C_16
REMARK    4  A    between atoms: C_23  and  C_30
REMARK    5  A    between atoms: C_25  and  C_31
REMARK    6  A    between atoms: C_31  and  N_32
REMARK                            x       y       z     vdW  Elec       q    Type
REMARK                         _______ _______ _______ _____ _____    ______ ____
ROOT
ATOM      1  C   UNL     1     140.678 126.952  93.348  0.00  0.00    +0.000 A 
ATOM      2  C   UNL     1     139.174 128.351  92.013  0.00  0.00    +0.000 A 
ATOM      3  C   UNL     1     139.813 128.040  93.221  0.00  0.00    +0.000 A 
ATOM      4  C   UNL     1     139.438 127.512  90.913  0.00  0.00    +0.000 A 
ATOM      5  C   UNL     1     140.936 126.156  92.234  0.00  0.00    +0.000 A 
ATOM      6  C   UNL     1     140.311 126.428  91.020  0.00  0.00    +0.000 A 
ATOM      7  C   UNL     1     138.780 127.768  89.572  0.00  0.00    +0.000 C 
ENDROOT
BRANCH   2   9
ATOM      8  S   UNL     1     137.431 131.991  92.008  0.00  0.00    +0.000 S 
ATOM      9  N   UNL     1     138.332 129.480  91.879  0.00  0.00    +0.000 N 
ATOM     10  N   UNL     1     139.859 131.239  92.363  0.00  0.00    +0.000 NA
ATOM     11  C   UNL     1     138.658 130.773  92.099  0.00  0.00    +0.000 A 
ATOM     12  C   UNL     1     139.836 132.609  92.541  0.00  0.00    +0.000 A 
ATOM     13  C   UNL     1     138.592 133.171  92.384  0.00  0.00    +0.000 A 
ATOM     14  H   UNL     1     137.392 129.253  91.563  0.00  0.00    +0.000 HD
BRANCH  12  16
ATOM     15  N   UNL     1     143.392 133.744  92.439  0.00  0.00    +0.000 NA
ATOM     16  C   UNL     1     141.032 133.361  92.847  0.00  0.00    +0.000 A 
ATOM     17  C   UNL     1     141.026 134.413  93.758  0.00  0.00    +0.000 A 
ATOM     18  C   UNL     1     142.236 133.065  92.224  0.00  0.00    +0.000 A 
ATOM     19  C   UNL     1     142.192 135.126  94.017  0.00  0.00    +0.000 A 
ATOM     20  C   UNL     1     143.337 134.752  93.334  0.00  0.00    +0.000 A 
ENDBRANCH  12  16
ENDBRANCH   2   9
BRANCH   1  22
ATOM     21  O   UNL     1     143.248 127.909  94.306  0.00  0.00    +0.000 OA
ATOM     22  N   UNL     1     141.328 126.629  94.556  0.00  0.00    +0.000 N 
ATOM     23  C   UNL     1     142.583 127.090  94.928  0.00  0.00    +0.000 C 
ATOM     24  H   UNL     1     140.811 126.038  95.197  0.00  0.00    +0.000 HD
BRANCH  23  30
ATOM     25  C   UNL     1     144.141 125.637  98.628  0.00  0.00    +0.000 A 
ATOM     26  C   UNL     1     144.448 124.961  97.449  0.00  0.00    +0.000 A 
ATOM     27  C   UNL     1     143.333 126.769  98.599  0.00  0.00    +0.000 A 
ATOM     28  C   UNL     1     143.944 125.422  96.235  0.00  0.00    +0.000 A 
ATOM     29  C   UNL     1     142.828 127.228  97.384  0.00  0.00    +0.000 A 
ATOM     30  C   UNL     1     143.131 126.555  96.198  0.00  0.00    +0.000 A 
BRANCH  25  31
ATOM     31  C   UNL     1     144.659 125.166  99.871  0.00  0.00    +0.000 C 
BRANCH  31  32
ATOM     32  N   UNL     1     145.187 124.684 101.141  0.00  0.00    +0.000 N 
ATOM     33  N   UNL     1     144.590 126.785 103.939  0.00  0.00    +0.000 N 
ATOM     34  C   UNL     1     145.972 125.801 101.735  0.00  0.00    +0.000 C 
ATOM     35  C   UNL     1     144.069 124.744 102.124  0.00  0.00    +0.000 C 
ATOM     36  C   UNL     1     145.714 126.716 102.966  0.00  0.00    +0.000 C 
ATOM     37  C   UNL     1     143.811 125.659 103.354  0.00  0.00    +0.000 C 
ATOM     38  C   UNL     1     145.106 126.327 105.221  0.00  0.00    +0.000 C 
ENDBRANCH  31  32
ENDBRANCH  25  31
ENDBRANCH  23  30
ENDBRANCH   1  22
TORSDOF 6
ENDMDL
MODEL 9
REMARK VINA RESULT:      -6.4      7.637     12.574
REMARK  Name = 10074640_Masitinib.pdbqt.pdb
REMARK  6 active torsions:
REMARK  status: ('A' for Active; 'I' for Inactive)
REMARK    1  A    between atoms: C_1  and  N_22
REMARK    2  A    between atoms: C_2  and  N_9
REMARK    3  A    between atoms: C_12  and  C_16
REMARK    4  A    between atoms: C_23  and  C_30
REMARK    5  A    between atoms: C_25  and  C_31
REMARK    6  A    between atoms: C_31  and  N_32
REMARK                            x       y       z     vdW  Elec       q    Type
REMARK                         _______ _______ _______ _____ _____    ______ ____
ROOT
ATOM      1  C   UNL     1     139.316 126.739  91.627  0.00  0.00    +0.000 A 
ATOM      2  C   UNL     1     139.154 125.120  89.796  0.00  0.00    +0.000 A 
ATOM      3  C   UNL     1     139.573 125.478  91.084  0.00  0.00    +0.000 A 
ATOM      4  C   UNL     1     138.453 126.091  89.055  0.00  0.00    +0.000 A 
ATOM      5  C   UNL     1     138.600 127.668  90.876  0.00  0.00    +0.000 A 
ATOM      6  C   UNL     1     138.177 127.350  89.588  0.00  0.00    +0.000 A 
ATOM      7  C   UNL     1     137.974 125.791  87.648  0.00  0.00    +0.000 C 
ENDROOT
BRANCH   2   9
ATOM      8  S   UNL     1     139.088 121.225  88.739  0.00  0.00    +0.000 S 
ATOM      9  N   UNL     1     139.380 123.827  89.267  0.00  0.00    +0.000 N 
ATOM     10  N   UNL     1     137.326 122.755  89.806  0.00  0.00    +0.000 NA
ATOM     11  C   UNL     1     138.554 122.759  89.337  0.00  0.00    +0.000 A 
ATOM     12  C   UNL     1     136.768 121.493  89.737  0.00  0.00    +0.000 A 
ATOM     13  C   UNL     1     137.597 120.547  89.184  0.00  0.00    +0.000 A 
ATOM     14  H   UNL     1     140.264 123.737  88.771  0.00  0.00    +0.000 HD
BRANCH  12  16
ATOM     15  N   UNL     1     133.301 120.111  89.833  0.00  0.00    +0.000 NA
ATOM     16  C   UNL     1     135.424 121.224  90.197  0.00  0.00    +0.000 A 
ATOM     17  C   UNL     1     134.944 121.730  91.402  0.00  0.00    +0.000 A 
ATOM     18  C   UNL     1     134.563 120.430  89.453  0.00  0.00    +0.000 A 
ATOM     19  C   UNL     1     133.651 121.438  91.822  0.00  0.00    +0.000 A 
ATOM     20  C   UNL     1     132.879 120.629  91.006  0.00  0.00    +0.000 A 
ENDBRANCH  12  16
ENDBRANCH   2   9
BRANCH   1  22
ATOM     21  O   UNL     1     141.864 127.881  92.429  0.00  0.00    +0.000 OA
ATOM     22  N   UNL     1     139.730 127.113  92.921  0.00  0.00    +0.000 N 
ATOM     23  C   UNL     1     140.985 127.610  93.238  0.00  0.00    +0.000 C 
ATOM     24  H   UNL     1     139.034 127.030  93.653  0.00  0.00    +0.000 HD
BRANCH  23  30
ATOM     25  C   UNL     1     141.792 128.218  97.387  0.00  0.00    +0.000 A 
ATOM     26  C   UNL     1     140.924 129.086  96.729  0.00  0.00    +0.000 A 
ATOM     27  C   UNL     1     142.391 127.168  96.698  0.00  0.00    +0.000 A 
ATOM     28  C   UNL     1     140.654 128.902  95.375  0.00  0.00    +0.000 A 
ATOM     29  C   UNL     1     142.121 126.986  95.343  0.00  0.00    +0.000 A 
ATOM     30  C   UNL     1     141.253 127.853  94.676  0.00  0.00    +0.000 A 
BRANCH  25  31
ATOM     31  C   UNL     1     142.067 128.404  98.774  0.00  0.00    +0.000 C 
BRANCH  31  32
ATOM     32  N   UNL     1     142.346 128.595 100.192  0.00  0.00    +0.000 N 
ATOM     33  N   UNL     1     143.286 125.668 101.967  0.00  0.00    +0.000 N 
ATOM     34  C   UNL     1     141.549 127.575 100.929  0.00  0.00    +0.000 C 
ATOM     35  C   UNL     1     143.673 127.971 100.458  0.00  0.00    +0.000 C 
ATOM     36  C   UNL     1     141.962 126.297 101.714  0.00  0.00    +0.000 C 
ATOM     37  C   UNL     1     144.085 126.694 101.243  0.00  0.00    +0.000 C 
ATOM     38  C   UNL     1     143.571 125.829 103.386  0.00  0.00    +0.000 C 
ENDBRANCH  31  32
ENDBRANCH  25  31
ENDBRANCH  23  30
ENDBRANCH   1  22
TORSDOF 6
ENDMDL
