MODEL 1
REMARK VINA RESULT:      -7.1      0.000      0.000
REMARK  Name = 101808842_CandidaspongiolideB.pdbqt.pdb
REMARK  12 active torsions:
REMARK  status: ('A' for Active; 'I' for Inactive)
REMARK    1  A    between atoms: C_6  and  C_42
REMARK    2  A    between atoms: C_7  and  O_28
REMARK    3  A    between atoms: C_10  and  O_30
REMARK    4  A    between atoms: C_13  and  O_32
REMARK    5  A    between atoms: C_19  and  O_34
REMARK    6  A    between atoms: C_20  and  O_38
REMARK    7  A    between atoms: C_21  and  O_36
REMARK    8  A    between atoms: O_38  and  C_40
REMARK    9  A    between atoms: C_42  and  C_44
REMARK   10  A    between atoms: C_42  and  O_52
REMARK   11  A    between atoms: C_45  and  C_47
REMARK   12  A    between atoms: C_47  and  C_49
REMARK                            x       y       z     vdW  Elec       q    Type
REMARK                         _______ _______ _______ _____ _____    ______ ____
ROOT
ATOM      1  O   UNL     1     141.622 122.631  96.594  0.00  0.00    +0.000 OA
ATOM      2  O   UNL     1     146.577 126.673  94.078  0.00  0.00    +0.000 OA
ATOM      3  O   UNL     1     142.543 125.352  94.093  0.00  0.00    +0.000 OA
ATOM      4  O   UNL     1     145.118 127.254  95.769  0.00  0.00    +0.000 OA
ATOM      5  O   UNL     1     145.727 126.109  98.430  0.00  0.00    +0.000 OA
ATOM      6  C   UNL     1     144.641 124.951  93.136  0.00  0.00    +0.000 C 
ATOM      7  C   UNL     1     143.717 123.369  94.961  0.00  0.00    +0.000 C 
ATOM      8  C   UNL     1     143.535 124.622  94.078  0.00  0.00    +0.000 C 
ATOM      9  C   UNL     1     145.649 125.859  93.570  0.00  0.00    +0.000 C 
ATOM     10  C   UNL     1     144.451 123.727  96.269  0.00  0.00    +0.000 C 
ATOM     11  C   UNL     1     143.740 123.426  97.469  0.00  0.00    +0.000 C 
ATOM     12  C   UNL     1     142.417 122.898  95.536  0.00  0.00    +0.000 C 
ATOM     13  C   UNL     1     142.394 122.886  97.838  0.00  0.00    +0.000 C 
ATOM     14  C   UNL     1     141.621 123.879  98.719  0.00  0.00    +0.000 C 
ATOM     15  C   UNL     1     142.054 125.231  98.859  0.00  0.00    +0.000 C 
ATOM     16  C   UNL     1     140.425 123.551  99.606  0.00  0.00    +0.000 C 
ATOM     17  C   UNL     1     146.228 127.260  95.257  0.00  0.00    +0.000 C 
ATOM     18  C   UNL     1     142.521 126.437  98.960  0.00  0.00    +0.000 C 
ATOM     19  C   UNL     1     147.417 127.853  95.912  0.00  0.00    +0.000 C 
ATOM     20  C   UNL     1     143.386 126.826 100.050  0.00  0.00    +0.000 C 
ATOM     21  C   UNL     1     147.419 128.168  97.327  0.00  0.00    +0.000 C 
ATOM     22  C   UNL     1     144.629 127.588  99.938  0.00  0.00    +0.000 C 
ATOM     23  C   UNL     1     146.258 128.434  98.164  0.00  0.00    +0.000 C 
ATOM     24  C   UNL     1     145.554 127.276  98.800  0.00  0.00    +0.000 C 
ATOM     25  C   UNL     1     142.284 127.350  97.791  0.00  0.00    +0.000 C 
ATOM     26  C   UNL     1     145.194 128.294 101.170  0.00  0.00    +0.000 C 
ATOM     27  C   UNL     1     145.659 129.836  98.157  0.00  0.00    +0.000 C 
ENDROOT
BRANCH   7  28
ATOM     28  O   UNL     1     144.370 122.272  94.356  0.00  0.00    +0.000 OA
ATOM     29  H   UNL     1     145.304 122.322  94.631  0.00  0.00    +0.000 HD
ENDBRANCH   7  28
BRANCH  10  30
ATOM     30  O   UNL     1     145.705 124.280  96.287  0.00  0.00    +0.000 OA
ATOM     31  H   UNL     1     146.396 123.598  96.156  0.00  0.00    +0.000 HD
ENDBRANCH  10  30
BRANCH  13  32
ATOM     32  O   UNL     1     142.591 121.647  98.512  0.00  0.00    +0.000 OA
ATOM     33  H   UNL     1     142.601 120.968  97.818  0.00  0.00    +0.000 HD
ENDBRANCH  13  32
BRANCH  19  34
ATOM     34  O   UNL     1     148.622 128.001  95.250  0.00  0.00    +0.000 OA
ATOM     35  H   UNL     1     148.872 127.212  94.725  0.00  0.00    +0.000 HD
ENDBRANCH  19  34
BRANCH  21  36
ATOM     36  O   UNL     1     148.638 128.600  97.822  0.00  0.00    +0.000 OA
ATOM     37  C   UNL     1     149.117 127.725  98.812  0.00  0.00    +0.000 C 
ENDBRANCH  21  36
BRANCH  20  38
ATOM     38  O   UNL     1     142.816 126.692 101.338  0.00  0.00    +0.000 OA
BRANCH  38  40
ATOM     39  O   UNL     1     141.573 128.661 101.262  0.00  0.00    +0.000 OA
ATOM     40  C   UNL     1     141.708 127.467 101.459  0.00  0.00    +0.000 C 
ATOM     41  C   UNL     1     140.504 126.769 101.972  0.00  0.00    +0.000 C 
ENDBRANCH  38  40
ENDBRANCH  20  38
BRANCH   6  42
ATOM     42  C   UNL     1     144.531 124.514  91.762  0.00  0.00    +0.000 C 
BRANCH  42  44
ATOM     43  O   UNL     1     145.712 124.110  89.564  0.00  0.00    +0.000 OA
ATOM     44  C   UNL     1     145.696 123.985  91.006  0.00  0.00    +0.000 C 
ATOM     45  C   UNL     1     146.428 125.024  90.288  0.00  0.00    +0.000 C 
ATOM     46  C   UNL     1     146.277 122.586  91.400  0.00  0.00    +0.000 C 
BRANCH  45  47
ATOM     47  C   UNL     1     147.848 125.036  90.105  0.00  0.00    +0.000 C 
ATOM     48  C   UNL     1     148.446 124.613  88.787  0.00  0.00    +0.000 C 
BRANCH  47  49
ATOM     49  C   UNL     1     148.670 125.838  90.936  0.00  0.00    +0.000 C 
ATOM     50  C   UNL     1     149.341 126.571  91.605  0.00  0.00    +0.000 C 
ATOM     51  C   UNL     1     150.167 127.600  92.384  0.00  0.00    +0.000 C 
ENDBRANCH  47  49
ENDBRANCH  45  47
ENDBRANCH  42  44
BRANCH  42  52
ATOM     52  O   UNL     1     143.258 124.595  91.213  0.00  0.00    +0.000 OA
ATOM     53  H   UNL     1     143.280 124.629  90.235  0.00  0.00    +0.000 HD
ENDBRANCH  42  52
ENDBRANCH   6  42
TORSDOF 12
ENDMDL
MODEL 2
REMARK VINA RESULT:      -7.0      1.675      2.782
REMARK  Name = 101808842_CandidaspongiolideB.pdbqt.pdb
REMARK  12 active torsions:
REMARK  status: ('A' for Active; 'I' for Inactive)
REMARK    1  A    between atoms: C_6  and  C_42
REMARK    2  A    between atoms: C_7  and  O_28
REMARK    3  A    between atoms: C_10  and  O_30
REMARK    4  A    between atoms: C_13  and  O_32
REMARK    5  A    between atoms: C_19  and  O_34
REMARK    6  A    between atoms: C_20  and  O_38
REMARK    7  A    between atoms: C_21  and  O_36
REMARK    8  A    between atoms: O_38  and  C_40
REMARK    9  A    between atoms: C_42  and  C_44
REMARK   10  A    between atoms: C_42  and  O_52
REMARK   11  A    between atoms: C_45  and  C_47
REMARK   12  A    between atoms: C_47  and  C_49
REMARK                            x       y       z     vdW  Elec       q    Type
REMARK                         _______ _______ _______ _____ _____    ______ ____
ROOT
ATOM      1  O   UNL     1     141.535 122.679  96.637  0.00  0.00    +0.000 OA
ATOM      2  O   UNL     1     146.422 126.725  93.999  0.00  0.00    +0.000 OA
ATOM      3  O   UNL     1     142.385 125.421  94.134  0.00  0.00    +0.000 OA
ATOM      4  O   UNL     1     145.022 127.296  95.742  0.00  0.00    +0.000 OA
ATOM      5  O   UNL     1     145.713 126.123  98.371  0.00  0.00    +0.000 OA
ATOM      6  C   UNL     1     144.449 125.021  93.105  0.00  0.00    +0.000 C 
ATOM      7  C   UNL     1     143.578 123.425  94.944  0.00  0.00    +0.000 C 
ATOM      8  C   UNL     1     143.373 124.687  94.079  0.00  0.00    +0.000 C 
ATOM      9  C   UNL     1     145.474 125.921  93.514  0.00  0.00    +0.000 C 
ATOM     10  C   UNL     1     144.356 123.767  96.230  0.00  0.00    +0.000 C 
ATOM     11  C   UNL     1     143.683 123.457  97.450  0.00  0.00    +0.000 C 
ATOM     12  C   UNL     1     142.295 122.953  95.557  0.00  0.00    +0.000 C 
ATOM     13  C   UNL     1     142.348 122.920  97.857  0.00  0.00    +0.000 C 
ATOM     14  C   UNL     1     141.609 123.907  98.773  0.00  0.00    +0.000 C 
ATOM     15  C   UNL     1     142.052 125.256  98.911  0.00  0.00    +0.000 C 
ATOM     16  C   UNL     1     140.441 123.576  99.696  0.00  0.00    +0.000 C 
ATOM     17  C   UNL     1     146.115 127.302  95.194  0.00  0.00    +0.000 C 
ATOM     18  C   UNL     1     142.528 126.459  99.009  0.00  0.00    +0.000 C 
ATOM     19  C   UNL     1     147.327 127.884  95.815  0.00  0.00    +0.000 C 
ATOM     20  C   UNL     1     143.430 126.834 100.073  0.00  0.00    +0.000 C 
ATOM     21  C   UNL     1     147.377 128.185  97.233  0.00  0.00    +0.000 C 
ATOM     22  C   UNL     1     144.672 127.591  99.928  0.00  0.00    +0.000 C 
ATOM     23  C   UNL     1     146.245 128.448  98.109  0.00  0.00    +0.000 C 
ATOM     24  C   UNL     1     145.558 127.286  98.757  0.00  0.00    +0.000 C 
ATOM     25  C   UNL     1     142.256 127.384  97.858  0.00  0.00    +0.000 C 
ATOM     26  C   UNL     1     145.280 128.283 101.147  0.00  0.00    +0.000 C 
ATOM     27  C   UNL     1     145.653 129.852  98.136  0.00  0.00    +0.000 C 
ENDROOT
BRANCH   7  28
ATOM     28  O   UNL     1     144.206 122.331  94.307  0.00  0.00    +0.000 OA
ATOM     29  H   UNL     1     143.530 121.633  94.229  0.00  0.00    +0.000 HD
ENDBRANCH   7  28
BRANCH  10  30
ATOM     30  O   UNL     1     145.612 124.315  96.213  0.00  0.00    +0.000 OA
ATOM     31  H   UNL     1     146.255 123.743  96.682  0.00  0.00    +0.000 HD
ENDBRANCH  10  30
BRANCH  13  32
ATOM     32  O   UNL     1     142.561 121.673  98.513  0.00  0.00    +0.000 OA
ATOM     33  H   UNL     1     141.940 121.658  99.259  0.00  0.00    +0.000 HD
ENDBRANCH  13  32
BRANCH  19  34
ATOM     34  O   UNL     1     148.510 128.033  95.115  0.00  0.00    +0.000 OA
ATOM     35  H   UNL     1     148.904 128.925  95.210  0.00  0.00    +0.000 HD
ENDBRANCH  19  34
BRANCH  21  36
ATOM     36  O   UNL     1     148.614 128.608  97.691  0.00  0.00    +0.000 OA
ATOM     37  C   UNL     1     149.070 127.784  98.735  0.00  0.00    +0.000 C 
ENDBRANCH  21  36
BRANCH  20  38
ATOM     38  O   UNL     1     142.902 126.689 101.379  0.00  0.00    +0.000 OA
BRANCH  38  40
ATOM     39  O   UNL     1     141.647 128.652 101.330  0.00  0.00    +0.000 OA
ATOM     40  C   UNL     1     141.797 127.462 101.541  0.00  0.00    +0.000 C 
ATOM     41  C   UNL     1     140.623 126.768 102.124  0.00  0.00    +0.000 C 
ENDBRANCH  38  40
ENDBRANCH  20  38
BRANCH   6  42
ATOM     42  C   UNL     1     144.291 124.598  91.731  0.00  0.00    +0.000 C 
BRANCH  42  44
ATOM     43  O   UNL     1     142.911 125.050  89.661  0.00  0.00    +0.000 OA
ATOM     44  C   UNL     1     143.838 125.530  90.665  0.00  0.00    +0.000 C 
ATOM     45  C   UNL     1     142.400 125.778  90.701  0.00  0.00    +0.000 C 
ATOM     46  C   UNL     1     144.894 126.458  89.978  0.00  0.00    +0.000 C 
BRANCH  45  47
ATOM     47  C   UNL     1     141.786 127.031  90.381  0.00  0.00    +0.000 C 
ATOM     48  C   UNL     1     141.002 127.188  89.103  0.00  0.00    +0.000 C 
BRANCH  47  49
ATOM     49  C   UNL     1     141.510 127.974  91.403  0.00  0.00    +0.000 C 
ATOM     50  C   UNL     1     141.305 128.728  92.312  0.00  0.00    +0.000 C 
ATOM     51  C   UNL     1     141.080 129.602  93.549  0.00  0.00    +0.000 C 
ENDBRANCH  47  49
ENDBRANCH  45  47
ENDBRANCH  42  44
BRANCH  42  52
ATOM     52  O   UNL     1     144.623 123.274  91.475  0.00  0.00    +0.000 OA
ATOM     53  H   UNL     1     145.379 123.196  90.858  0.00  0.00    +0.000 HD
ENDBRANCH  42  52
ENDBRANCH   6  42
TORSDOF 12
ENDMDL
MODEL 3
REMARK VINA RESULT:      -6.8      2.289      5.295
REMARK  Name = 101808842_CandidaspongiolideB.pdbqt.pdb
REMARK  12 active torsions:
REMARK  status: ('A' for Active; 'I' for Inactive)
REMARK    1  A    between atoms: C_6  and  C_42
REMARK    2  A    between atoms: C_7  and  O_28
REMARK    3  A    between atoms: C_10  and  O_30
REMARK    4  A    between atoms: C_13  and  O_32
REMARK    5  A    between atoms: C_19  and  O_34
REMARK    6  A    between atoms: C_20  and  O_38
REMARK    7  A    between atoms: C_21  and  O_36
REMARK    8  A    between atoms: O_38  and  C_40
REMARK    9  A    between atoms: C_42  and  C_44
REMARK   10  A    between atoms: C_42  and  O_52
REMARK   11  A    between atoms: C_45  and  C_47
REMARK   12  A    between atoms: C_47  and  C_49
REMARK                            x       y       z     vdW  Elec       q    Type
REMARK                         _______ _______ _______ _____ _____    ______ ____
ROOT
ATOM      1  O   UNL     1     148.730 126.939  98.821  0.00  0.00    +0.000 OA
ATOM      2  O   UNL     1     144.337 127.186  93.542  0.00  0.00    +0.000 OA
ATOM      3  O   UNL     1     147.643 125.395  95.513  0.00  0.00    +0.000 OA
ATOM      4  O   UNL     1     144.065 125.899  95.438  0.00  0.00    +0.000 OA
ATOM      5  O   UNL     1     143.144 127.354  97.847  0.00  0.00    +0.000 OA
ATOM      6  C   UNL     1     147.059 127.044  93.958  0.00  0.00    +0.000 C 
ATOM      7  C   UNL     1     147.753 127.705  96.359  0.00  0.00    +0.000 C 
ATOM      8  C   UNL     1     147.498 126.601  95.310  0.00  0.00    +0.000 C 
ATOM      9  C   UNL     1     145.662 127.104  93.689  0.00  0.00    +0.000 C 
ATOM     10  C   UNL     1     146.454 128.047  97.116  0.00  0.00    +0.000 C 
ATOM     11  C   UNL     1     146.511 127.874  98.532  0.00  0.00    +0.000 C 
ATOM     12  C   UNL     1     148.576 127.205  97.507  0.00  0.00    +0.000 C 
ATOM     13  C   UNL     1     147.502 127.376  99.535  0.00  0.00    +0.000 C 
ATOM     14  C   UNL     1     146.934 126.196 100.337  0.00  0.00    +0.000 C 
ATOM     15  C   UNL     1     145.752 125.519  99.915  0.00  0.00    +0.000 C 
ATOM     16  C   UNL     1     147.454 125.687 101.678  0.00  0.00    +0.000 C 
ATOM     17  C   UNL     1     143.623 126.613  94.550  0.00  0.00    +0.000 C 
ATOM     18  C   UNL     1     144.658 124.969  99.485  0.00  0.00    +0.000 C 
ATOM     19  C   UNL     1     142.207 127.044  94.490  0.00  0.00    +0.000 C 
ATOM     20  C   UNL     1     143.363 125.361  99.991  0.00  0.00    +0.000 C 
ATOM     21  C   UNL     1     141.334 126.926  95.642  0.00  0.00    +0.000 C 
ATOM     22  C   UNL     1     142.173 125.646  99.192  0.00  0.00    +0.000 C 
ATOM     23  C   UNL     1     141.483 126.005  96.760  0.00  0.00    +0.000 C 
ATOM     24  C   UNL     1     142.341 126.417  97.915  0.00  0.00    +0.000 C 
ATOM     25  C   UNL     1     144.787 124.053  98.302  0.00  0.00    +0.000 C 
ATOM     26  C   UNL     1     140.796 125.614  99.852  0.00  0.00    +0.000 C 
ATOM     27  C   UNL     1     140.974 124.577  96.602  0.00  0.00    +0.000 C 
ENDROOT
BRANCH   7  28
ATOM     28  O   UNL     1     148.329 128.902  95.875  0.00  0.00    +0.000 OA
ATOM     29  H   UNL     1     149.240 128.681  95.609  0.00  0.00    +0.000 HD
ENDBRANCH   7  28
BRANCH  10  30
ATOM     30  O   UNL     1     145.326 128.502  96.484  0.00  0.00    +0.000 OA
ATOM     31  H   UNL     1     145.166 129.448  96.682  0.00  0.00    +0.000 HD
ENDBRANCH  10  30
BRANCH  13  32
ATOM     32  O   UNL     1     147.839 128.464 100.392  0.00  0.00    +0.000 OA
ATOM     33  H   UNL     1     147.182 129.156 100.210  0.00  0.00    +0.000 HD
ENDBRANCH  13  32
BRANCH  19  34
ATOM     34  O   UNL     1     141.687 127.707  93.394  0.00  0.00    +0.000 OA
ATOM     35  H   UNL     1     142.096 128.585  93.245  0.00  0.00    +0.000 HD
ENDBRANCH  19  34
BRANCH  21  36
ATOM     36  O   UNL     1     140.076 127.482  95.474  0.00  0.00    +0.000 OA
ATOM     37  C   UNL     1     140.043 128.802  95.958  0.00  0.00    +0.000 C 
ENDBRANCH  21  36
BRANCH  20  38
ATOM     38  O   UNL     1     143.185 125.170 101.382  0.00  0.00    +0.000 OA
BRANCH  38  40
ATOM     39  O   UNL     1     143.396 127.467 101.714  0.00  0.00    +0.000 OA
ATOM     40  C   UNL     1     143.483 126.305 102.066  0.00  0.00    +0.000 C 
ATOM     41  C   UNL     1     144.062 126.093 103.415  0.00  0.00    +0.000 C 
ENDBRANCH  38  40
ENDBRANCH  20  38
BRANCH   6  42
ATOM     42  C   UNL     1     148.055 127.179  92.918  0.00  0.00    +0.000 C 
BRANCH  42  44
ATOM     43  O   UNL     1     149.503 125.829  91.346  0.00  0.00    +0.000 OA
ATOM     44  C   UNL     1     148.182 126.193  91.813  0.00  0.00    +0.000 C 
ATOM     45  C   UNL     1     148.879 124.976  92.214  0.00  0.00    +0.000 C 
ATOM     46  C   UNL     1     147.225 126.317  90.581  0.00  0.00    +0.000 C 
BRANCH  45  47
ATOM     47  C   UNL     1     148.565 123.665  91.730  0.00  0.00    +0.000 C 
ATOM     48  C   UNL     1     149.568 122.901  90.904  0.00  0.00    +0.000 C 
BRANCH  47  49
ATOM     49  C   UNL     1     147.555 122.893  92.359  0.00  0.00    +0.000 C 
ATOM     50  C   UNL     1     146.713 122.276  92.947  0.00  0.00    +0.000 C 
ATOM     51  C   UNL     1     145.677 121.541  93.803  0.00  0.00    +0.000 C 
ENDBRANCH  47  49
ENDBRANCH  45  47
ENDBRANCH  42  44
BRANCH  42  52
ATOM     52  O   UNL     1     148.860 128.308  93.009  0.00  0.00    +0.000 OA
ATOM     53  H   UNL     1     148.441 129.093  92.603  0.00  0.00    +0.000 HD
ENDBRANCH  42  52
ENDBRANCH   6  42
TORSDOF 12
ENDMDL
MODEL 4
REMARK VINA RESULT:      -6.6      3.648      5.584
REMARK  Name = 101808842_CandidaspongiolideB.pdbqt.pdb
REMARK  12 active torsions:
REMARK  status: ('A' for Active; 'I' for Inactive)
REMARK    1  A    between atoms: C_6  and  C_42
REMARK    2  A    between atoms: C_7  and  O_28
REMARK    3  A    between atoms: C_10  and  O_30
REMARK    4  A    between atoms: C_13  and  O_32
REMARK    5  A    between atoms: C_19  and  O_34
REMARK    6  A    between atoms: C_20  and  O_38
REMARK    7  A    between atoms: C_21  and  O_36
REMARK    8  A    between atoms: O_38  and  C_40
REMARK    9  A    between atoms: C_42  and  C_44
REMARK   10  A    between atoms: C_42  and  O_52
REMARK   11  A    between atoms: C_45  and  C_47
REMARK   12  A    between atoms: C_47  and  C_49
REMARK                            x       y       z     vdW  Elec       q    Type
REMARK                         _______ _______ _______ _____ _____    ______ ____
ROOT
ATOM      1  O   UNL     1     141.266 125.227  99.242  0.00  0.00    +0.000 OA
ATOM      2  O   UNL     1     144.429 127.522  93.591  0.00  0.00    +0.000 OA
ATOM      3  O   UNL     1     141.549 128.020  96.669  0.00  0.00    +0.000 OA
ATOM      4  O   UNL     1     145.046 128.027  95.756  0.00  0.00    +0.000 OA
ATOM      5  O   UNL     1     146.525 125.900  97.190  0.00  0.00    +0.000 OA
ATOM      6  C   UNL     1     141.857 127.161  94.513  0.00  0.00    +0.000 C 
ATOM      7  C   UNL     1     141.723 125.567  96.545  0.00  0.00    +0.000 C 
ATOM      8  C   UNL     1     141.699 127.006  95.987  0.00  0.00    +0.000 C 
ATOM      9  C   UNL     1     143.165 127.378  93.995  0.00  0.00    +0.000 C 
ATOM     10  C   UNL     1     143.168 125.129  96.859  0.00  0.00    +0.000 C 
ATOM     11  C   UNL     1     143.409 124.750  98.213  0.00  0.00    +0.000 C 
ATOM     12  C   UNL     1     141.145 125.494  97.925  0.00  0.00    +0.000 C 
ATOM     13  C   UNL     1     142.636 124.708  99.493  0.00  0.00    +0.000 C 
ATOM     14  C   UNL     1     143.311 125.562 100.577  0.00  0.00    +0.000 C 
ATOM     15  C   UNL     1     144.344 126.488 100.247  0.00  0.00    +0.000 C 
ATOM     16  C   UNL     1     143.069 125.463 102.080  0.00  0.00    +0.000 C 
ATOM     17  C   UNL     1     145.318 127.759  94.595  0.00  0.00    +0.000 C 
ATOM     18  C   UNL     1     145.296 127.289  99.878  0.00  0.00    +0.000 C 
ATOM     19  C   UNL     1     146.706 127.559  94.116  0.00  0.00    +0.000 C 
ATOM     20  C   UNL     1     146.685 126.899  99.946  0.00  0.00    +0.000 C 
ATOM     21  C   UNL     1     147.799 127.343  95.043  0.00  0.00    +0.000 C 
ATOM     22  C   UNL     1     147.687 127.084  98.898  0.00  0.00    +0.000 C 
ATOM     23  C   UNL     1     147.854 127.751  96.439  0.00  0.00    +0.000 C 
ATOM     24  C   UNL     1     147.282 126.834  97.475  0.00  0.00    +0.000 C 
ATOM     25  C   UNL     1     144.876 128.559  99.194  0.00  0.00    +0.000 C 
ATOM     26  C   UNL     1     149.171 127.036  99.257  0.00  0.00    +0.000 C 
ATOM     27  C   UNL     1     148.255 129.186  96.766  0.00  0.00    +0.000 C 
ENDROOT
BRANCH   7  28
ATOM     28  O   UNL     1     141.110 124.578  95.743  0.00  0.00    +0.000 OA
ATOM     29  H   UNL     1     140.931 123.820  96.330  0.00  0.00    +0.000 HD
ENDBRANCH   7  28
BRANCH  10  30
ATOM     30  O   UNL     1     144.153 125.088  95.906  0.00  0.00    +0.000 OA
ATOM     31  H   UNL     1     144.397 124.164  95.689  0.00  0.00    +0.000 HD
ENDBRANCH  10  30
BRANCH  13  32
ATOM     32  O   UNL     1     142.538 123.346  99.899  0.00  0.00    +0.000 OA
ATOM     33  H   UNL     1     141.678 123.264 100.343  0.00  0.00    +0.000 HD
ENDBRANCH  13  32
BRANCH  19  34
ATOM     34  O   UNL     1     147.006 127.426  92.773  0.00  0.00    +0.000 OA
ATOM     35  H   UNL     1     147.710 126.768  92.600  0.00  0.00    +0.000 HD
ENDBRANCH  19  34
BRANCH  21  36
ATOM     36  O   UNL     1     149.014 127.051  94.446  0.00  0.00    +0.000 OA
ATOM     37  C   UNL     1     149.376 125.711  94.675  0.00  0.00    +0.000 C 
ENDBRANCH  21  36
BRANCH  20  38
ATOM     38  O   UNL     1     147.149 126.575 101.243  0.00  0.00    +0.000 OA
BRANCH  38  40
ATOM     39  O   UNL     1     147.048 128.767 102.027  0.00  0.00    +0.000 OA
ATOM     40  C   UNL     1     146.858 127.568 102.122  0.00  0.00    +0.000 C 
ATOM     41  C   UNL     1     146.287 127.118 103.415  0.00  0.00    +0.000 C 
ENDBRANCH  38  40
ENDBRANCH  20  38
BRANCH   6  42
ATOM     42  C   UNL     1     140.667 127.304  93.703  0.00  0.00    +0.000 C 
BRANCH  42  44
ATOM     43  O   UNL     1     140.755 129.650  92.766  0.00  0.00    +0.000 OA
ATOM     44  C   UNL     1     140.021 128.623  93.476  0.00  0.00    +0.000 C 
ATOM     45  C   UNL     1     139.833 128.927  92.061  0.00  0.00    +0.000 C 
ATOM     46  C   UNL     1     139.229 129.286  94.651  0.00  0.00    +0.000 C 
BRANCH  45  47
ATOM     47  C   UNL     1     138.712 129.641  91.528  0.00  0.00    +0.000 C 
ATOM     48  C   UNL     1     138.704 131.148  91.524  0.00  0.00    +0.000 C 
BRANCH  47  49
ATOM     49  C   UNL     1     137.830 129.009  90.615  0.00  0.00    +0.000 C 
ATOM     50  C   UNL     1     137.130 128.487  89.794  0.00  0.00    +0.000 C 
ATOM     51  C   UNL     1     136.315 127.860  88.659  0.00  0.00    +0.000 C 
ENDBRANCH  47  49
ENDBRANCH  45  47
ENDBRANCH  42  44
BRANCH  42  52
ATOM     52  O   UNL     1     140.194 126.130  93.131  0.00  0.00    +0.000 OA
ATOM     53  H   UNL     1     140.789 125.372  93.299  0.00  0.00    +0.000 HD
ENDBRANCH  42  52
ENDBRANCH   6  42
TORSDOF 12
ENDMDL
MODEL 5
REMARK VINA RESULT:      -6.3      2.365      5.521
REMARK  Name = 101808842_CandidaspongiolideB.pdbqt.pdb
REMARK  12 active torsions:
REMARK  status: ('A' for Active; 'I' for Inactive)
REMARK    1  A    between atoms: C_6  and  C_42
REMARK    2  A    between atoms: C_7  and  O_28
REMARK    3  A    between atoms: C_10  and  O_30
REMARK    4  A    between atoms: C_13  and  O_32
REMARK    5  A    between atoms: C_19  and  O_34
REMARK    6  A    between atoms: C_20  and  O_38
REMARK    7  A    between atoms: C_21  and  O_36
REMARK    8  A    between atoms: O_38  and  C_40
REMARK    9  A    between atoms: C_42  and  C_44
REMARK   10  A    between atoms: C_42  and  O_52
REMARK   11  A    between atoms: C_45  and  C_47
REMARK   12  A    between atoms: C_47  and  C_49
REMARK                            x       y       z     vdW  Elec       q    Type
REMARK                         _______ _______ _______ _____ _____    ______ ____
ROOT
ATOM      1  O   UNL     1     148.980 126.183  97.461  0.00  0.00    +0.000 OA
ATOM      2  O   UNL     1     144.656 125.548  92.158  0.00  0.00    +0.000 OA
ATOM      3  O   UNL     1     147.044 123.804  95.203  0.00  0.00    +0.000 OA
ATOM      4  O   UNL     1     144.033 125.625  94.378  0.00  0.00    +0.000 OA
ATOM      5  O   UNL     1     144.043 128.315  95.615  0.00  0.00    +0.000 OA
ATOM      6  C   UNL     1     147.082 124.526  92.977  0.00  0.00    +0.000 C 
ATOM      7  C   UNL     1     148.206 125.942  94.826  0.00  0.00    +0.000 C 
ATOM      8  C   UNL     1     147.410 124.682  94.421  0.00  0.00    +0.000 C 
ATOM      9  C   UNL     1     145.826 125.014  92.515  0.00  0.00    +0.000 C 
ATOM     10  C   UNL     1     147.252 127.115  95.126  0.00  0.00    +0.000 C 
ATOM     11  C   UNL     1     147.357 127.666  96.438  0.00  0.00    +0.000 C 
ATOM     12  C   UNL     1     148.837 125.794  96.177  0.00  0.00    +0.000 C 
ATOM     13  C   UNL     1     148.127 127.378  97.688  0.00  0.00    +0.000 C 
ATOM     14  C   UNL     1     147.185 127.112  98.871  0.00  0.00    +0.000 C 
ATOM     15  C   UNL     1     145.793 126.872  98.665  0.00  0.00    +0.000 C 
ATOM     16  C   UNL     1     147.556 127.178 100.349  0.00  0.00    +0.000 C 
ATOM     17  C   UNL     1     143.860 125.908  93.202  0.00  0.00    +0.000 C 
ATOM     18  C   UNL     1     144.536 126.689  98.405  0.00  0.00    +0.000 C 
ATOM     19  C   UNL     1     142.764 126.791  92.738  0.00  0.00    +0.000 C 
ATOM     20  C   UNL     1     143.584 127.774  98.463  0.00  0.00    +0.000 C 
ATOM     21  C   UNL     1     142.033 127.635  93.662  0.00  0.00    +0.000 C 
ATOM     22  C   UNL     1     142.562 128.083  97.465  0.00  0.00    +0.000 C 
ATOM     23  C   UNL     1     141.875 127.429  95.094  0.00  0.00    +0.000 C 
ATOM     24  C   UNL     1     142.927 127.965  96.014  0.00  0.00    +0.000 C 
ATOM     25  C   UNL     1     144.153 125.347  97.848  0.00  0.00    +0.000 C 
ATOM     26  C   UNL     1     141.369 128.955  97.851  0.00  0.00    +0.000 C 
ATOM     27  C   UNL     1     140.792 126.470  95.579  0.00  0.00    +0.000 C 
ENDROOT
BRANCH   7  28
ATOM     28  O   UNL     1     149.191 126.376  93.910  0.00  0.00    +0.000 OA
ATOM     29  H   UNL     1     149.194 127.350  93.951  0.00  0.00    +0.000 HD
ENDBRANCH   7  28
BRANCH  10  30
ATOM     30  O   UNL     1     146.374 127.611  94.197  0.00  0.00    +0.000 OA
ATOM     31  H   UNL     1     145.733 126.926  93.912  0.00  0.00    +0.000 HD
ENDBRANCH  10  30
BRANCH  13  32
ATOM     32  O   UNL     1     148.972 128.496  97.946  0.00  0.00    +0.000 OA
ATOM     33  H   UNL     1     148.727 128.812  98.831  0.00  0.00    +0.000 HD
ENDBRANCH  13  32
BRANCH  19  34
ATOM     34  O   UNL     1     142.481 126.964  91.396  0.00  0.00    +0.000 OA
ATOM     35  H   UNL     1     142.971 127.710  90.991  0.00  0.00    +0.000 HD
ENDBRANCH  19  34
BRANCH  21  36
ATOM     36  O   UNL     1     141.124 128.493  93.067  0.00  0.00    +0.000 OA
ATOM     37  C   UNL     1     140.956 129.658  93.835  0.00  0.00    +0.000 C 
ENDBRANCH  21  36
BRANCH  20  38
ATOM     38  O   UNL     1     143.468 128.395  99.730  0.00  0.00    +0.000 OA
BRANCH  38  40
ATOM     39  O   UNL     1     143.949 127.009 101.540  0.00  0.00    +0.000 OA
ATOM     40  C   UNL     1     143.207 127.476 100.696  0.00  0.00    +0.000 C 
ATOM     41  C   UNL     1     141.836 126.911 100.673  0.00  0.00    +0.000 C 
ENDBRANCH  38  40
ENDBRANCH  20  38
BRANCH   6  42
ATOM     42  C   UNL     1     147.942 123.701  92.158  0.00  0.00    +0.000 C 
BRANCH  42  44
ATOM     43  O   UNL     1     148.607 121.279  91.868  0.00  0.00    +0.000 OA
ATOM     44  C   UNL     1     147.586 122.303  91.799  0.00  0.00    +0.000 C 
ATOM     45  C   UNL     1     147.731 121.374  92.914  0.00  0.00    +0.000 C 
ATOM     46  C   UNL     1     146.703 122.054  90.531  0.00  0.00    +0.000 C 
BRANCH  45  47
ATOM     47  C   UNL     1     146.873 120.253  93.153  0.00  0.00    +0.000 C 
ATOM     48  C   UNL     1     147.439 118.855  93.173  0.00  0.00    +0.000 C 
BRANCH  47  49
ATOM     49  C   UNL     1     145.627 120.431  93.804  0.00  0.00    +0.000 C 
ATOM     50  C   UNL     1     144.576 120.648  94.338  0.00  0.00    +0.000 C 
ATOM     51  C   UNL     1     143.255 121.046  95.003  0.00  0.00    +0.000 C 
ENDBRANCH  47  49
ENDBRANCH  45  47
ENDBRANCH  42  44
BRANCH  42  52
ATOM     52  O   UNL     1     149.104 124.315  91.709  0.00  0.00    +0.000 OA
ATOM     53  H   UNL     1     149.149 124.349  90.732  0.00  0.00    +0.000 HD
ENDBRANCH  42  52
ENDBRANCH   6  42
TORSDOF 12
ENDMDL
MODEL 6
REMARK VINA RESULT:      -6.2      3.365      6.220
REMARK  Name = 101808842_CandidaspongiolideB.pdbqt.pdb
REMARK  12 active torsions:
REMARK  status: ('A' for Active; 'I' for Inactive)
REMARK    1  A    between atoms: C_6  and  C_42
REMARK    2  A    between atoms: C_7  and  O_28
REMARK    3  A    between atoms: C_10  and  O_30
REMARK    4  A    between atoms: C_13  and  O_32
REMARK    5  A    between atoms: C_19  and  O_34
REMARK    6  A    between atoms: C_20  and  O_38
REMARK    7  A    between atoms: C_21  and  O_36
REMARK    8  A    between atoms: O_38  and  C_40
REMARK    9  A    between atoms: C_42  and  C_44
REMARK   10  A    between atoms: C_42  and  O_52
REMARK   11  A    between atoms: C_45  and  C_47
REMARK   12  A    between atoms: C_47  and  C_49
REMARK                            x       y       z     vdW  Elec       q    Type
REMARK                         _______ _______ _______ _____ _____    ______ ____
ROOT
ATOM      1  O   UNL     1     147.464 125.033  92.986  0.00  0.00    +0.000 OA
ATOM      2  O   UNL     1     141.079 127.373  93.967  0.00  0.00    +0.000 OA
ATOM      3  O   UNL     1     143.741 124.236  92.924  0.00  0.00    +0.000 OA
ATOM      4  O   UNL     1     142.355 126.290  95.555  0.00  0.00    +0.000 OA
ATOM      5  O   UNL     1     144.456 127.932  96.841  0.00  0.00    +0.000 OA
ATOM      6  C   UNL     1     142.506 126.016  92.038  0.00  0.00    +0.000 C 
ATOM      7  C   UNL     1     145.066 126.226  92.336  0.00  0.00    +0.000 C 
ATOM      8  C   UNL     1     143.780 125.384  92.482  0.00  0.00    +0.000 C 
ATOM      9  C   UNL     1     141.721 126.703  93.008  0.00  0.00    +0.000 C 
ATOM     10  C   UNL     1     145.295 127.091  93.592  0.00  0.00    +0.000 C 
ATOM     11  C   UNL     1     146.533 126.870  94.266  0.00  0.00    +0.000 C 
ATOM     12  C   UNL     1     146.299 125.378  92.400  0.00  0.00    +0.000 C 
ATOM     13  C   UNL     1     147.706 125.953  94.128  0.00  0.00    +0.000 C 
ATOM     14  C   UNL     1     147.919 125.129  95.406  0.00  0.00    +0.000 C 
ATOM     15  C   UNL     1     146.915 125.065  96.417  0.00  0.00    +0.000 C 
ATOM     16  C   UNL     1     149.200 124.402  95.805  0.00  0.00    +0.000 C 
ATOM     17  C   UNL     1     141.554 127.151  95.224  0.00  0.00    +0.000 C 
ATOM     18  C   UNL     1     145.969 125.075  97.305  0.00  0.00    +0.000 C 
ATOM     19  C   UNL     1     141.033 128.172  96.162  0.00  0.00    +0.000 C 
ATOM     20  C   UNL     1     145.988 125.991  98.423  0.00  0.00    +0.000 C 
ATOM     21  C   UNL     1     141.677 128.424  97.437  0.00  0.00    +0.000 C 
ATOM     22  C   UNL     1     144.868 126.802  98.896  0.00  0.00    +0.000 C 
ATOM     23  C   UNL     1     142.517 127.502  98.187  0.00  0.00    +0.000 C 
ATOM     24  C   UNL     1     143.980 127.452  97.876  0.00  0.00    +0.000 C 
ATOM     25  C   UNL     1     144.761 124.233  97.010  0.00  0.00    +0.000 C 
ATOM     26  C   UNL     1     144.893 127.370 100.314  0.00  0.00    +0.000 C 
ATOM     27  C   UNL     1     141.845 126.458  99.072  0.00  0.00    +0.000 C 
ENDROOT
BRANCH   7  28
ATOM     28  O   UNL     1     145.142 127.052  91.192  0.00  0.00    +0.000 OA
ATOM     29  H   UNL     1     145.708 126.584  90.551  0.00  0.00    +0.000 HD
ENDBRANCH   7  28
BRANCH  10  30
ATOM     30  O   UNL     1     144.386 128.021  94.027  0.00  0.00    +0.000 OA
ATOM     31  H   UNL     1     144.510 128.220  94.979  0.00  0.00    +0.000 HD
ENDBRANCH  10  30
BRANCH  13  32
ATOM     32  O   UNL     1     148.851 126.750  93.834  0.00  0.00    +0.000 OA
ATOM     33  H   UNL     1     149.561 126.123  93.622  0.00  0.00    +0.000 HD
ENDBRANCH  13  32
BRANCH  19  34
ATOM     34  O   UNL     1     140.004 129.029  95.817  0.00  0.00    +0.000 OA
ATOM     35  H   UNL     1     140.239 129.637  95.085  0.00  0.00    +0.000 HD
ENDBRANCH  19  34
BRANCH  21  36
ATOM     36  O   UNL     1     141.152 129.488  98.150  0.00  0.00    +0.000 OA
ATOM     37  C   UNL     1     142.133 130.079  98.965  0.00  0.00    +0.000 C 
ENDBRANCH  21  36
BRANCH  20  38
ATOM     38  O   UNL     1     147.106 125.860  99.280  0.00  0.00    +0.000 OA
BRANCH  38  40
ATOM     39  O   UNL     1     146.271 123.882 100.186  0.00  0.00    +0.000 OA
ATOM     40  C   UNL     1     146.864 124.943 100.252  0.00  0.00    +0.000 C 
ATOM     41  C   UNL     1     147.331 125.325 101.608  0.00  0.00    +0.000 C 
ENDBRANCH  38  40
ENDBRANCH  20  38
BRANCH   6  42
ATOM     42  C   UNL     1     142.014 125.721  90.710  0.00  0.00    +0.000 C 
BRANCH  42  44
ATOM     43  O   UNL     1     140.283 126.233  88.940  0.00  0.00    +0.000 OA
ATOM     44  C   UNL     1     141.238 126.711  89.919  0.00  0.00    +0.000 C 
ATOM     45  C   UNL     1     139.801 126.628  90.157  0.00  0.00    +0.000 C 
ATOM     46  C   UNL     1     141.981 127.958  89.334  0.00  0.00    +0.000 C 
BRANCH  45  47
ATOM     47  C   UNL     1     138.916 127.754  90.175  0.00  0.00    +0.000 C 
ATOM     48  C   UNL     1     137.604 127.699  89.434  0.00  0.00    +0.000 C 
BRANCH  47  49
ATOM     49  C   UNL     1     139.011 128.723  91.206  0.00  0.00    +0.000 C 
ATOM     50  C   UNL     1     139.064 129.587  92.034  0.00  0.00    +0.000 C 
ATOM     51  C   UNL     1     139.100 130.772  93.004  0.00  0.00    +0.000 C 
ENDBRANCH  47  49
ENDBRANCH  45  47
ENDBRANCH  42  44
BRANCH  42  52
ATOM     52  O   UNL     1     142.346 124.465  90.219  0.00  0.00    +0.000 OA
ATOM     53  H   UNL     1     141.556 123.954  89.951  0.00  0.00    +0.000 HD
ENDBRANCH  42  52
ENDBRANCH   6  42
TORSDOF 12
ENDMDL
MODEL 7
REMARK VINA RESULT:      -6.2     14.396     17.743
REMARK  Name = 101808842_CandidaspongiolideB.pdbqt.pdb
REMARK  12 active torsions:
REMARK  status: ('A' for Active; 'I' for Inactive)
REMARK    1  A    between atoms: C_6  and  C_42
REMARK    2  A    between atoms: C_7  and  O_28
REMARK    3  A    between atoms: C_10  and  O_30
REMARK    4  A    between atoms: C_13  and  O_32
REMARK    5  A    between atoms: C_19  and  O_34
REMARK    6  A    between atoms: C_20  and  O_38
REMARK    7  A    between atoms: C_21  and  O_36
REMARK    8  A    between atoms: O_38  and  C_40
REMARK    9  A    between atoms: C_42  and  C_44
REMARK   10  A    between atoms: C_42  and  O_52
REMARK   11  A    between atoms: C_45  and  C_47
REMARK   12  A    between atoms: C_47  and  C_49
REMARK                            x       y       z     vdW  Elec       q    Type
REMARK                         _______ _______ _______ _____ _____    ______ ____
ROOT
ATOM      1  O   UNL     1     146.862 114.639 106.071  0.00  0.00    +0.000 OA
ATOM      2  O   UNL     1     140.163 113.595 107.190  0.00  0.00    +0.000 OA
ATOM      3  O   UNL     1     143.997 112.130 106.105  0.00  0.00    +0.000 OA
ATOM      4  O   UNL     1     141.833 113.298 108.753  0.00  0.00    +0.000 OA
ATOM      5  O   UNL     1     142.892 115.777 109.978  0.00  0.00    +0.000 OA
ATOM      6  C   UNL     1     142.036 113.069 105.236  0.00  0.00    +0.000 C 
ATOM      7  C   UNL     1     144.175 114.503 105.471  0.00  0.00    +0.000 C 
ATOM      8  C   UNL     1     143.464 113.145 105.653  0.00  0.00    +0.000 C 
ATOM      9  C   UNL     1     141.033 113.305 106.220  0.00  0.00    +0.000 C 
ATOM     10  C   UNL     1     143.976 115.392 106.714  0.00  0.00    +0.000 C 
ATOM     11  C   UNL     1     145.177 115.813 107.360  0.00  0.00    +0.000 C 
ATOM     12  C   UNL     1     145.666 114.362 105.511  0.00  0.00    +0.000 C 
ATOM     13  C   UNL     1     146.646 115.580 107.200  0.00  0.00    +0.000 C 
ATOM     14  C   UNL     1     147.255 114.986 108.479  0.00  0.00    +0.000 C 
ATOM     15  C   UNL     1     146.427 114.460 109.515  0.00  0.00    +0.000 C 
ATOM     16  C   UNL     1     148.734 114.981 108.852  0.00  0.00    +0.000 C 
ATOM     17  C   UNL     1     140.708 113.655 108.436  0.00  0.00    +0.000 C 
ATOM     18  C   UNL     1     145.612 114.025 110.425  0.00  0.00    +0.000 C 
ATOM     19  C   UNL     1     139.773 114.310 109.379  0.00  0.00    +0.000 C 
ATOM     20  C   UNL     1     145.202 114.854 111.535  0.00  0.00    +0.000 C 
ATOM     21  C   UNL     1     140.236 114.866 110.636  0.00  0.00    +0.000 C 
ATOM     22  C   UNL     1     143.837 115.026 112.029  0.00  0.00    +0.000 C 
ATOM     23  C   UNL     1     141.431 114.482 111.373  0.00  0.00    +0.000 C 
ATOM     24  C   UNL     1     142.728 115.145 111.026  0.00  0.00    +0.000 C 
ATOM     25  C   UNL     1     144.961 112.697 110.165  0.00  0.00    +0.000 C 
ATOM     26  C   UNL     1     143.608 115.561 113.442  0.00  0.00    +0.000 C 
ATOM     27  C   UNL     1     141.367 113.259 112.281  0.00  0.00    +0.000 C 
ENDROOT
BRANCH   7  28
ATOM     28  O   UNL     1     143.820 115.241 104.319  0.00  0.00    +0.000 OA
ATOM     29  H   UNL     1     144.409 116.017 104.297  0.00  0.00    +0.000 HD
ENDBRANCH   7  28
BRANCH  10  30
ATOM     30  O   UNL     1     142.738 115.770 107.165  0.00  0.00    +0.000 OA
ATOM     31  H   UNL     1     142.732 115.877 108.139  0.00  0.00    +0.000 HD
ENDBRANCH  10  30
BRANCH  13  32
ATOM     32  O   UNL     1     147.253 116.827 106.874  0.00  0.00    +0.000 OA
ATOM     33  H   UNL     1     146.597 117.506 107.101  0.00  0.00    +0.000 HD
ENDBRANCH  13  32
BRANCH  19  34
ATOM     34  O   UNL     1     138.451 114.552 109.052  0.00  0.00    +0.000 OA
ATOM     35  H   UNL     1     137.818 114.141 109.677  0.00  0.00    +0.000 HD
ENDBRANCH  19  34
BRANCH  21  36
ATOM     36  O   UNL     1     139.271 115.553 111.354  0.00  0.00    +0.000 OA
ATOM     37  C   UNL     1     139.813 116.710 111.942  0.00  0.00    +0.000 C 
ENDBRANCH  21  36
BRANCH  20  38
ATOM     38  O   UNL     1     146.258 115.299 112.366  0.00  0.00    +0.000 OA
BRANCH  38  40
ATOM     39  O   UNL     1     146.335 113.359 113.654  0.00  0.00    +0.000 OA
ATOM     40  C   UNL     1     146.844 114.252 113.003  0.00  0.00    +0.000 C 
ATOM     41  C   UNL     1     148.327 114.235 112.952  0.00  0.00    +0.000 C 
ENDBRANCH  38  40
ENDBRANCH  20  38
BRANCH   6  42
ATOM     42  C   UNL     1     141.727 112.549 103.923  0.00  0.00    +0.000 C 
BRANCH  42  44
ATOM     43  O   UNL     1     139.300 111.940 104.288  0.00  0.00    +0.000 OA
ATOM     44  C   UNL     1     140.581 111.632 103.687  0.00  0.00    +0.000 C 
ATOM     45  C   UNL     1     139.480 112.269 102.973  0.00  0.00    +0.000 C 
ATOM     46  C   UNL     1     140.822 110.088 103.772  0.00  0.00    +0.000 C 
BRANCH  45  47
ATOM     47  C   UNL     1     138.645 111.610 102.014  0.00  0.00    +0.000 C 
ATOM     48  C   UNL     1     137.409 110.873 102.464  0.00  0.00    +0.000 C 
BRANCH  47  49
ATOM     49  C   UNL     1     138.683 111.993 100.649  0.00  0.00    +0.000 C 
ATOM     50  C   UNL     1     138.724 112.380  99.516  0.00  0.00    +0.000 C 
ATOM     51  C   UNL     1     138.773 112.991  98.113  0.00  0.00    +0.000 C 
ENDBRANCH  47  49
ENDBRANCH  45  47
ENDBRANCH  42  44
BRANCH  42  52
ATOM     52  O   UNL     1     142.554 112.991 102.899  0.00  0.00    +0.000 OA
ATOM     53  H   UNL     1     142.251 113.842 102.522  0.00  0.00    +0.000 HD
ENDBRANCH  42  52
ENDBRANCH   6  42
TORSDOF 12
ENDMDL
MODEL 8
REMARK VINA RESULT:      -6.1     15.034     19.807
REMARK  Name = 101808842_CandidaspongiolideB.pdbqt.pdb
REMARK  12 active torsions:
REMARK  status: ('A' for Active; 'I' for Inactive)
REMARK    1  A    between atoms: C_6  and  C_42
REMARK    2  A    between atoms: C_7  and  O_28
REMARK    3  A    between atoms: C_10  and  O_30
REMARK    4  A    between atoms: C_13  and  O_32
REMARK    5  A    between atoms: C_19  and  O_34
REMARK    6  A    between atoms: C_20  and  O_38
REMARK    7  A    between atoms: C_21  and  O_36
REMARK    8  A    between atoms: O_38  and  C_40
REMARK    9  A    between atoms: C_42  and  C_44
REMARK   10  A    between atoms: C_42  and  O_52
REMARK   11  A    between atoms: C_45  and  C_47
REMARK   12  A    between atoms: C_47  and  C_49
REMARK                            x       y       z     vdW  Elec       q    Type
REMARK                         _______ _______ _______ _____ _____    ______ ____
ROOT
ATOM      1  O   UNL     1     141.198 115.082 113.217  0.00  0.00    +0.000 OA
ATOM      2  O   UNL     1     145.995 114.620 108.319  0.00  0.00    +0.000 OA
ATOM      3  O   UNL     1     144.177 113.138 111.856  0.00  0.00    +0.000 OA
ATOM      4  O   UNL     1     143.945 113.562 108.275  0.00  0.00    +0.000 OA
ATOM      5  O   UNL     1     141.640 115.273 107.552  0.00  0.00    +0.000 OA
ATOM      6  C   UNL     1     145.845 114.580 111.071  0.00  0.00    +0.000 C 
ATOM      7  C   UNL     1     143.619 115.533 111.979  0.00  0.00    +0.000 C 
ATOM      8  C   UNL     1     144.502 114.308 111.655  0.00  0.00    +0.000 C 
ATOM      9  C   UNL     1     145.975 114.582 109.653  0.00  0.00    +0.000 C 
ATOM     10  C   UNL     1     142.779 115.937 110.751  0.00  0.00    +0.000 C 
ATOM     11  C   UNL     1     141.366 115.934 110.953  0.00  0.00    +0.000 C 
ATOM     12  C   UNL     1     142.511 115.188 112.926  0.00  0.00    +0.000 C 
ATOM     13  C   UNL     1     140.417 115.577 112.053  0.00  0.00    +0.000 C 
ATOM     14  C   UNL     1     139.431 114.489 111.604  0.00  0.00    +0.000 C 
ATOM     15  C   UNL     1     139.650 113.745 110.407  0.00  0.00    +0.000 C 
ATOM     16  C   UNL     1     138.100 114.152 112.269  0.00  0.00    +0.000 C 
ATOM     17  C   UNL     1     144.860 114.157 107.725  0.00  0.00    +0.000 C 
ATOM     18  C   UNL     1     139.899 113.127 109.294  0.00  0.00    +0.000 C 
ATOM     19  C   UNL     1     144.825 114.551 106.297  0.00  0.00    +0.000 C 
ATOM     20  C   UNL     1     139.313 113.552 108.043  0.00  0.00    +0.000 C 
ATOM     21  C   UNL     1     143.584 114.554 105.547  0.00  0.00    +0.000 C 
ATOM     22  C   UNL     1     140.015 113.718 106.771  0.00  0.00    +0.000 C 
ATOM     23  C   UNL     1     142.389 113.775 105.834  0.00  0.00    +0.000 C 
ATOM     24  C   UNL     1     141.382 114.336 106.789  0.00  0.00    +0.000 C 
ATOM     25  C   UNL     1     140.975 112.081 109.333  0.00  0.00    +0.000 C 
ATOM     26  C   UNL     1     139.218 113.738 105.468  0.00  0.00    +0.000 C 
ATOM     27  C   UNL     1     142.328 112.328 105.356  0.00  0.00    +0.000 C 
ENDROOT
BRANCH   7  28
ATOM     28  O   UNL     1     144.294 116.675 112.467  0.00  0.00    +0.000 OA
ATOM     29  H   UNL     1     143.610 117.262 112.836  0.00  0.00    +0.000 HD
ENDBRANCH   7  28
BRANCH  10  30
ATOM     30  O   UNL     1     143.341 116.293 109.553  0.00  0.00    +0.000 OA
ATOM     31  H   UNL     1     142.654 116.526 108.894  0.00  0.00    +0.000 HD
ENDBRANCH  10  30
BRANCH  13  32
ATOM     32  O   UNL     1     139.731 116.765 112.439  0.00  0.00    +0.000 OA
ATOM     33  H   UNL     1     139.908 117.411 111.737  0.00  0.00    +0.000 HD
ENDBRANCH  13  32
BRANCH  19  34
ATOM     34  O   UNL     1     145.932 115.070 105.652  0.00  0.00    +0.000 OA
ATOM     35  H   UNL     1     146.037 116.035 105.783  0.00  0.00    +0.000 HD
ENDBRANCH  19  34
BRANCH  21  36
ATOM     36  O   UNL     1     143.686 115.062 104.263  0.00  0.00    +0.000 OA
ATOM     37  C   UNL     1     144.082 114.062 103.357  0.00  0.00    +0.000 C 
ENDBRANCH  21  36
BRANCH  20  38
ATOM     38  O   UNL     1     137.899 113.523 108.010  0.00  0.00    +0.000 OA
BRANCH  38  40
ATOM     39  O   UNL     1     137.722 111.246 107.548  0.00  0.00    +0.000 OA
ATOM     40  C   UNL     1     137.438 112.255 108.167  0.00  0.00    +0.000 C 
ATOM     41  C   UNL     1     136.385 112.092 109.198  0.00  0.00    +0.000 C 
ENDBRANCH  38  40
ENDBRANCH  20  38
BRANCH   6  42
ATOM     42  C   UNL     1     146.989 114.610 111.955  0.00  0.00    +0.000 C 
BRANCH  42  44
ATOM     43  O   UNL     1     148.571 113.482 113.573  0.00  0.00    +0.000 OA
ATOM     44  C   UNL     1     147.585 113.370 112.518  0.00  0.00    +0.000 C 
ATOM     45  C   UNL     1     147.285 113.187 113.934  0.00  0.00    +0.000 C 
ATOM     46  C   UNL     1     148.019 112.231 111.537  0.00  0.00    +0.000 C 
BRANCH  45  47
ATOM     47  C   UNL     1     147.055 111.918 114.557  0.00  0.00    +0.000 C 
ATOM     48  C   UNL     1     148.018 111.396 115.593  0.00  0.00    +0.000 C 
BRANCH  47  49
ATOM     49  C   UNL     1     145.755 111.353 114.571  0.00  0.00    +0.000 C 
ATOM     50  C   UNL     1     144.635 110.927 114.543  0.00  0.00    +0.000 C 
ATOM     51  C   UNL     1     143.171 110.488 114.454  0.00  0.00    +0.000 C 
ENDBRANCH  47  49
ENDBRANCH  45  47
ENDBRANCH  42  44
BRANCH  42  52
ATOM     52  O   UNL     1     147.507 115.873 112.213  0.00  0.00    +0.000 OA
ATOM     53  H   UNL     1     146.828 116.573 112.135  0.00  0.00    +0.000 HD
ENDBRANCH  42  52
ENDBRANCH   6  42
TORSDOF 12
ENDMDL
MODEL 9
REMARK VINA RESULT:      -6.1     14.954     18.315
REMARK  Name = 101808842_CandidaspongiolideB.pdbqt.pdb
REMARK  12 active torsions:
REMARK  status: ('A' for Active; 'I' for Inactive)
REMARK    1  A    between atoms: C_6  and  C_42
REMARK    2  A    between atoms: C_7  and  O_28
REMARK    3  A    between atoms: C_10  and  O_30
REMARK    4  A    between atoms: C_13  and  O_32
REMARK    5  A    between atoms: C_19  and  O_34
REMARK    6  A    between atoms: C_20  and  O_38
REMARK    7  A    between atoms: C_21  and  O_36
REMARK    8  A    between atoms: O_38  and  C_40
REMARK    9  A    between atoms: C_42  and  C_44
REMARK   10  A    between atoms: C_42  and  O_52
REMARK   11  A    between atoms: C_45  and  C_47
REMARK   12  A    between atoms: C_47  and  C_49
REMARK                            x       y       z     vdW  Elec       q    Type
REMARK                         _______ _______ _______ _____ _____    ______ ____
ROOT
ATOM      1  O   UNL     1     146.938 114.666 105.921  0.00  0.00    +0.000 OA
ATOM      2  O   UNL     1     140.294 113.558 107.282  0.00  0.00    +0.000 OA
ATOM      3  O   UNL     1     144.097 112.132 106.047  0.00  0.00    +0.000 OA
ATOM      4  O   UNL     1     142.024 113.268 108.781  0.00  0.00    +0.000 OA
ATOM      5  O   UNL     1     143.106 115.750 109.978  0.00  0.00    +0.000 OA
ATOM      6  C   UNL     1     142.097 113.058 105.257  0.00  0.00    +0.000 C 
ATOM      7  C   UNL     1     144.232 114.510 105.420  0.00  0.00    +0.000 C 
ATOM      8  C   UNL     1     143.539 113.145 105.621  0.00  0.00    +0.000 C 
ATOM      9  C   UNL     1     141.130 113.281 106.278  0.00  0.00    +0.000 C 
ATOM     10  C   UNL     1     144.072 115.391 106.675  0.00  0.00    +0.000 C 
ATOM     11  C   UNL     1     145.292 115.819 107.278  0.00  0.00    +0.000 C 
ATOM     12  C   UNL     1     145.724 114.382 105.404  0.00  0.00    +0.000 C 
ATOM     13  C   UNL     1     146.756 115.599 107.062  0.00  0.00    +0.000 C 
ATOM     14  C   UNL     1     147.417 115.005 108.314  0.00  0.00    +0.000 C 
ATOM     15  C   UNL     1     146.632 114.466 109.377  0.00  0.00    +0.000 C 
ATOM     16  C   UNL     1     148.909 115.010 108.632  0.00  0.00    +0.000 C 
ATOM     17  C   UNL     1     140.885 113.617 108.507  0.00  0.00    +0.000 C 
ATOM     18  C   UNL     1     145.855 114.019 110.315  0.00  0.00    +0.000 C 
ATOM     19  C   UNL     1     139.979 114.259 109.488  0.00  0.00    +0.000 C 
ATOM     20  C   UNL     1     145.480 114.839 111.444  0.00  0.00    +0.000 C 
ATOM     21  C   UNL     1     140.484 114.812 110.730  0.00  0.00    +0.000 C 
ATOM     22  C   UNL     1     144.134 114.997 111.989  0.00  0.00    +0.000 C 
ATOM     23  C   UNL     1     141.709 114.435 111.420  0.00  0.00    +0.000 C 
ATOM     24  C   UNL     1     142.986 115.110 111.029  0.00  0.00    +0.000 C 
ATOM     25  C   UNL     1     145.206 112.687 110.072  0.00  0.00    +0.000 C 
ATOM     26  C   UNL     1     143.953 115.522 113.412  0.00  0.00    +0.000 C 
ATOM     27  C   UNL     1     141.690 113.207 112.323  0.00  0.00    +0.000 C 
ENDROOT
BRANCH   7  28
ATOM     28  O   UNL     1     143.827 115.251 104.287  0.00  0.00    +0.000 OA
ATOM     29  H   UNL     1     144.643 115.491 103.810  0.00  0.00    +0.000 HD
ENDBRANCH   7  28
BRANCH  10  30
ATOM     30  O   UNL     1     142.848 115.756 107.173  0.00  0.00    +0.000 OA
ATOM     31  H   UNL     1     142.537 116.594 106.770  0.00  0.00    +0.000 HD
ENDBRANCH  10  30
BRANCH  13  32
ATOM     32  O   UNL     1     147.340 116.854 106.721  0.00  0.00    +0.000 OA
ATOM     33  H   UNL     1     147.847 116.695 105.908  0.00  0.00    +0.000 HD
ENDBRANCH  13  32
BRANCH  19  34
ATOM     34  O   UNL     1     138.645 114.491 109.212  0.00  0.00    +0.000 OA
ATOM     35  H   UNL     1     138.445 114.498 108.253  0.00  0.00    +0.000 HD
ENDBRANCH  19  34
BRANCH  21  36
ATOM     36  O   UNL     1     139.541 115.488 111.487  0.00  0.00    +0.000 OA
ATOM     37  C   UNL     1     140.022 116.750 111.878  0.00  0.00    +0.000 C 
ENDBRANCH  21  36
BRANCH  20  38
ATOM     38  O   UNL     1     146.563 115.288 112.237  0.00  0.00    +0.000 OA
BRANCH  38  40
ATOM     39  O   UNL     1     146.712 113.471 113.689  0.00  0.00    +0.000 OA
ATOM     40  C   UNL     1     147.165 114.246 112.866  0.00  0.00    +0.000 C 
ATOM     41  C   UNL     1     148.605 114.070 112.555  0.00  0.00    +0.000 C 
ENDBRANCH  38  40
ENDBRANCH  20  38
BRANCH   6  42
ATOM     42  C   UNL     1     141.744 112.543 103.953  0.00  0.00    +0.000 C 
BRANCH  42  44
ATOM     43  O   UNL     1     140.849 110.357 103.050  0.00  0.00    +0.000 OA
ATOM     44  C   UNL     1     140.613 111.598 103.758  0.00  0.00    +0.000 C 
ATOM     45  C   UNL     1     140.824 110.314 104.417  0.00  0.00    +0.000 C 
ATOM     46  C   UNL     1     139.221 112.170 103.329  0.00  0.00    +0.000 C 
BRANCH  45  47
ATOM     47  C   UNL     1     139.789 109.535 105.028  0.00  0.00    +0.000 C 
ATOM     48  C   UNL     1     139.532 108.122 104.569  0.00  0.00    +0.000 C 
BRANCH  47  49
ATOM     49  C   UNL     1     139.308 109.871 106.318  0.00  0.00    +0.000 C 
ATOM     50  C   UNL     1     138.879 110.213 107.384  0.00  0.00    +0.000 C 
ATOM     51  C   UNL     1     138.308 110.761 108.695  0.00  0.00    +0.000 C 
ENDBRANCH  47  49
ENDBRANCH  45  47
ENDBRANCH  42  44
BRANCH  42  52
ATOM     52  O   UNL     1     142.514 113.015 102.898  0.00  0.00    +0.000 OA
ATOM     53  H   UNL     1     142.306 112.560 102.057  0.00  0.00    +0.000 HD
ENDBRANCH  42  52
ENDBRANCH   6  42
TORSDOF 12
ENDMDL
