MODEL 1
REMARK VINA RESULT:      -7.0      0.000      0.000
REMARK  Name = 101808841_CandidaspongiolideA.pdbqt.pdb
REMARK  13 active torsions:
REMARK  status: ('A' for Active; 'I' for Inactive)
REMARK    1  A    between atoms: C_6  and  C_39
REMARK    2  A    between atoms: C_9  and  O_27
REMARK    3  A    between atoms: C_9  and  C_51
REMARK    4  A    between atoms: C_10  and  O_29
REMARK    5  A    between atoms: C_14  and  O_31
REMARK    6  A    between atoms: C_15  and  O_33
REMARK    7  A    between atoms: C_20  and  O_35
REMARK    8  A    between atoms: O_35  and  C_37
REMARK    9  A    between atoms: C_39  and  C_41
REMARK   10  A    between atoms: C_39  and  O_49
REMARK   11  A    between atoms: C_42  and  C_44
REMARK   12  A    between atoms: C_44  and  C_46
REMARK   13  A    between atoms: C_51  and  O_52
REMARK                            x       y       z     vdW  Elec       q    Type
REMARK                         _______ _______ _______ _____ _____    ______ ____
ROOT
ATOM      1  O   UNL     1     146.747 125.644  95.976  0.00  0.00    +0.000 OA
ATOM      2  O   UNL     1     144.558 124.307  99.248  0.00  0.00    +0.000 OA
ATOM      3  O   UNL     1     148.757 124.875  96.807  0.00  0.00    +0.000 OA
ATOM      4  O   UNL     1     140.882 129.232  96.855  0.00  0.00    +0.000 OA
ATOM      5  O   UNL     1     144.753 126.126  94.005  0.00  0.00    +0.000 OA
ATOM      6  C   UNL     1     145.754 126.187  98.484  0.00  0.00    +0.000 C 
ATOM      7  C   UNL     1     144.491 125.471  98.848  0.00  0.00    +0.000 C 
ATOM      8  C   UNL     1     146.304 125.931  97.197  0.00  0.00    +0.000 C 
ATOM      9  C   UNL     1     143.168 126.244  98.595  0.00  0.00    +0.000 C 
ATOM     10  C   UNL     1     142.847 126.279  97.110  0.00  0.00    +0.000 C 
ATOM     11  C   UNL     1     142.147 127.360  96.498  0.00  0.00    +0.000 C 
ATOM     12  C   UNL     1     147.950 125.026  95.900  0.00  0.00    +0.000 C 
ATOM     13  C   UNL     1     141.423 128.524  96.012  0.00  0.00    +0.000 C 
ATOM     14  C   UNL     1     148.184 124.474  94.546  0.00  0.00    +0.000 C 
ATOM     15  C   UNL     1     147.321 124.696  93.403  0.00  0.00    +0.000 C 
ATOM     16  C   UNL     1     141.360 128.811  94.542  0.00  0.00    +0.000 C 
ATOM     17  C   UNL     1     146.858 125.985  92.904  0.00  0.00    +0.000 C 
ATOM     18  C   UNL     1     144.762 126.825  91.714  0.00  0.00    +0.000 C 
ATOM     19  C   UNL     1     145.391 126.276  92.961  0.00  0.00    +0.000 C 
ATOM     20  C   UNL     1     143.445 127.460  91.803  0.00  0.00    +0.000 C 
ATOM     21  C   UNL     1     141.899 127.923  93.577  0.00  0.00    +0.000 C 
ATOM     22  C   UNL     1     142.385 127.090  92.713  0.00  0.00    +0.000 C 
ATOM     23  C   UNL     1     140.712 130.053  93.969  0.00  0.00    +0.000 C 
ATOM     24  C   UNL     1     147.800 127.188  92.989  0.00  0.00    +0.000 C 
ATOM     25  C   UNL     1     145.428 126.638  90.356  0.00  0.00    +0.000 C 
ATOM     26  C   UNL     1     141.900 125.667  92.833  0.00  0.00    +0.000 C 
ENDROOT
BRANCH   9  27
ATOM     27  O   UNL     1     143.317 127.588  99.055  0.00  0.00    +0.000 OA
ATOM     28  H   UNL     1     144.266 127.804  99.005  0.00  0.00    +0.000 HD
ENDBRANCH   9  27
BRANCH  10  29
ATOM     29  O   UNL     1     143.228 125.204  96.333  0.00  0.00    +0.000 OA
ATOM     30  H   UNL     1     143.474 125.443  95.419  0.00  0.00    +0.000 HD
ENDBRANCH  10  29
BRANCH  14  31
ATOM     31  O   UNL     1     149.270 123.641  94.346  0.00  0.00    +0.000 OA
ATOM     32  H   UNL     1     149.768 123.515  95.181  0.00  0.00    +0.000 HD
ENDBRANCH  14  31
BRANCH  15  33
ATOM     33  O   UNL     1     147.356 123.679  92.464  0.00  0.00    +0.000 OA
ATOM     34  C   UNL     1     146.337 122.748  92.716  0.00  0.00    +0.000 C 
ENDBRANCH  15  33
BRANCH  20  35
ATOM     35  O   UNL     1     142.998 128.259  90.717  0.00  0.00    +0.000 OA
BRANCH  35  37
ATOM     36  O   UNL     1     143.284 130.386  91.632  0.00  0.00    +0.000 OA
ATOM     37  C   UNL     1     143.422 129.549  90.761  0.00  0.00    +0.000 C 
ATOM     38  C   UNL     1     144.113 130.014  89.534  0.00  0.00    +0.000 C 
ENDBRANCH  35  37
ENDBRANCH  20  35
BRANCH   6  39
ATOM     39  C   UNL     1     146.434 127.020  99.455  0.00  0.00    +0.000 C 
BRANCH  39  41
ATOM     40  O   UNL     1     146.914 127.636 101.883  0.00  0.00    +0.000 OA
ATOM     41  C   UNL     1     146.460 126.669 100.903  0.00  0.00    +0.000 C 
ATOM     42  C   UNL     1     145.567 127.472 101.734  0.00  0.00    +0.000 C 
ATOM     43  C   UNL     1     147.014 125.259 101.307  0.00  0.00    +0.000 C 
BRANCH  42  44
ATOM     44  C   UNL     1     144.815 126.907 102.817  0.00  0.00    +0.000 C 
ATOM     45  C   UNL     1     145.421 126.820 104.195  0.00  0.00    +0.000 C 
BRANCH  44  46
ATOM     46  C   UNL     1     143.396 126.951 102.762  0.00  0.00    +0.000 C 
ATOM     47  C   UNL     1     142.198 126.895 102.759  0.00  0.00    +0.000 C 
ATOM     48  C   UNL     1     140.677 126.683 102.789  0.00  0.00    +0.000 C 
ENDBRANCH  44  46
ENDBRANCH  42  44
ENDBRANCH  39  41
BRANCH  39  49
ATOM     49  O   UNL     1     147.321 127.941  98.916  0.00  0.00    +0.000 OA
ATOM     50  H   UNL     1     147.434 128.728  99.483  0.00  0.00    +0.000 HD
ENDBRANCH  39  49
ENDBRANCH   6  39
BRANCH   9  51
ATOM     51  C   UNL     1     142.041 125.608  99.317  0.00  0.00    +0.000 C 
BRANCH  51  52
ATOM     52  O   UNL     1     141.044 125.028  99.985  0.00  0.00    +0.000 OA
ATOM     53  H   UNL     1     140.794 124.184  99.565  0.00  0.00    +0.000 HD
ENDBRANCH  51  52
ENDBRANCH   9  51
TORSDOF 13
ENDMDL
MODEL 2
REMARK VINA RESULT:      -6.2     16.081     19.396
REMARK  Name = 101808841_CandidaspongiolideA.pdbqt.pdb
REMARK  13 active torsions:
REMARK  status: ('A' for Active; 'I' for Inactive)
REMARK    1  A    between atoms: C_6  and  C_39
REMARK    2  A    between atoms: C_9  and  O_27
REMARK    3  A    between atoms: C_9  and  C_51
REMARK    4  A    between atoms: C_10  and  O_29
REMARK    5  A    between atoms: C_14  and  O_31
REMARK    6  A    between atoms: C_15  and  O_33
REMARK    7  A    between atoms: C_20  and  O_35
REMARK    8  A    between atoms: O_35  and  C_37
REMARK    9  A    between atoms: C_39  and  C_41
REMARK   10  A    between atoms: C_39  and  O_49
REMARK   11  A    between atoms: C_42  and  C_44
REMARK   12  A    between atoms: C_44  and  C_46
REMARK   13  A    between atoms: C_51  and  O_52
REMARK                            x       y       z     vdW  Elec       q    Type
REMARK                         _______ _______ _______ _____ _____    ______ ____
ROOT
ATOM      1  O   UNL     1     144.827 114.810 110.807  0.00  0.00    +0.000 OA
ATOM      2  O   UNL     1     148.252 115.587 108.582  0.00  0.00    +0.000 OA
ATOM      3  O   UNL     1     145.726 115.624 112.768  0.00  0.00    +0.000 OA
ATOM      4  O   UNL     1     145.324 110.716 105.235  0.00  0.00    +0.000 OA
ATOM      5  O   UNL     1     142.829 114.415 108.820  0.00  0.00    +0.000 OA
ATOM      6  C   UNL     1     147.262 113.904 109.899  0.00  0.00    +0.000 C 
ATOM      7  C   UNL     1     147.718 114.476 108.593  0.00  0.00    +0.000 C 
ATOM      8  C   UNL     1     146.009 114.349 110.406  0.00  0.00    +0.000 C 
ATOM      9  C   UNL     1     147.386 113.642 107.326  0.00  0.00    +0.000 C 
ATOM     10  C   UNL     1     145.910 113.756 106.984  0.00  0.00    +0.000 C 
ATOM     11  C   UNL     1     145.180 112.706 106.354  0.00  0.00    +0.000 C 
ATOM     12  C   UNL     1     144.815 115.520 111.959  0.00  0.00    +0.000 C 
ATOM     13  C   UNL     1     144.566 111.557 105.708  0.00  0.00    +0.000 C 
ATOM     14  C   UNL     1     143.533 116.243 112.129  0.00  0.00    +0.000 C 
ATOM     15  C   UNL     1     142.380 116.092 111.266  0.00  0.00    +0.000 C 
ATOM     16  C   UNL     1     143.074 111.440 105.642  0.00  0.00    +0.000 C 
ATOM     17  C   UNL     1     141.735 114.840 110.890  0.00  0.00    +0.000 C 
ATOM     18  C   UNL     1     140.471 113.992 108.841  0.00  0.00    +0.000 C 
ATOM     19  C   UNL     1     141.770 114.436 109.450  0.00  0.00    +0.000 C 
ATOM     20  C   UNL     1     140.496 113.254 107.575  0.00  0.00    +0.000 C 
ATOM     21  C   UNL     1     142.216 112.472 106.098  0.00  0.00    +0.000 C 
ATOM     22  C   UNL     1     141.452 113.435 106.507  0.00  0.00    +0.000 C 
ATOM     23  C   UNL     1     142.363 110.229 105.077  0.00  0.00    +0.000 C 
ATOM     24  C   UNL     1     141.670 113.710 111.918  0.00  0.00    +0.000 C 
ATOM     25  C   UNL     1     139.140 114.386 109.469  0.00  0.00    +0.000 C 
ATOM     26  C   UNL     1     141.743 114.794 105.921  0.00  0.00    +0.000 C 
ENDROOT
BRANCH   9  27
ATOM     27  O   UNL     1     147.683 112.268 107.580  0.00  0.00    +0.000 OA
ATOM     28  H   UNL     1     148.441 112.248 108.193  0.00  0.00    +0.000 HD
ENDBRANCH   9  27
BRANCH  10  29
ATOM     29  O   UNL     1     145.263 114.941 107.272  0.00  0.00    +0.000 OA
ATOM     30  H   UNL     1     144.548 114.852 107.931  0.00  0.00    +0.000 HD
ENDBRANCH  10  29
BRANCH  14  31
ATOM     31  O   UNL     1     143.424 117.172 113.149  0.00  0.00    +0.000 OA
ATOM     32  H   UNL     1     144.261 117.228 113.657  0.00  0.00    +0.000 HD
ENDBRANCH  14  31
BRANCH  15  33
ATOM     33  O   UNL     1     141.567 117.212 111.211  0.00  0.00    +0.000 OA
ATOM     34  C   UNL     1     140.338 116.954 111.836  0.00  0.00    +0.000 C 
ENDBRANCH  15  33
BRANCH  20  35
ATOM     35  O   UNL     1     139.326 112.556 107.170  0.00  0.00    +0.000 OA
BRANCH  35  37
ATOM     36  O   UNL     1     138.118 114.240 106.098  0.00  0.00    +0.000 OA
ATOM     37  C   UNL     1     138.649 113.148 106.152  0.00  0.00    +0.000 C 
ATOM     38  C   UNL     1     138.493 112.303 104.942  0.00  0.00    +0.000 C 
ENDBRANCH  35  37
ENDBRANCH  20  35
BRANCH   6  39
ATOM     39  C   UNL     1     148.121 113.016 110.654  0.00  0.00    +0.000 C 
BRANCH  39  41
ATOM     40  O   UNL     1     148.849 114.872 112.245  0.00  0.00    +0.000 OA
ATOM     41  C   UNL     1     149.011 113.524 111.737  0.00  0.00    +0.000 C 
ATOM     42  C   UNL     1     148.319 113.852 112.980  0.00  0.00    +0.000 C 
ATOM     43  C   UNL     1     150.544 113.216 111.632  0.00  0.00    +0.000 C 
BRANCH  42  44
ATOM     44  C   UNL     1     148.882 113.563 114.268  0.00  0.00    +0.000 C 
ATOM     45  C   UNL     1     149.491 114.668 115.093  0.00  0.00    +0.000 C 
BRANCH  44  46
ATOM     46  C   UNL     1     148.397 112.439 114.991  0.00  0.00    +0.000 C 
ATOM     47  C   UNL     1     147.922 111.475 115.522  0.00  0.00    +0.000 C 
ATOM     48  C   UNL     1     147.209 110.245 116.102  0.00  0.00    +0.000 C 
ENDBRANCH  44  46
ENDBRANCH  42  44
ENDBRANCH  39  41
BRANCH  39  49
ATOM     49  O   UNL     1     147.811 111.668 110.545  0.00  0.00    +0.000 OA
ATOM     50  H   UNL     1     147.255 111.474 109.765  0.00  0.00    +0.000 HD
ENDBRANCH  39  49
ENDBRANCH   6  39
BRANCH   9  51
ATOM     51  C   UNL     1     148.187 114.103 106.168  0.00  0.00    +0.000 C 
BRANCH  51  52
ATOM     52  O   UNL     1     148.885 114.527 105.115  0.00  0.00    +0.000 OA
ATOM     53  H   UNL     1     149.799 114.749 105.374  0.00  0.00    +0.000 HD
ENDBRANCH  51  52
ENDBRANCH   9  51
TORSDOF 13
ENDMDL
MODEL 3
REMARK VINA RESULT:      -6.0     14.952     19.394
REMARK  Name = 101808841_CandidaspongiolideA.pdbqt.pdb
REMARK  13 active torsions:
REMARK  status: ('A' for Active; 'I' for Inactive)
REMARK    1  A    between atoms: C_6  and  C_39
REMARK    2  A    between atoms: C_9  and  O_27
REMARK    3  A    between atoms: C_9  and  C_51
REMARK    4  A    between atoms: C_10  and  O_29
REMARK    5  A    between atoms: C_14  and  O_31
REMARK    6  A    between atoms: C_15  and  O_33
REMARK    7  A    between atoms: C_20  and  O_35
REMARK    8  A    between atoms: O_35  and  C_37
REMARK    9  A    between atoms: C_39  and  C_41
REMARK   10  A    between atoms: C_39  and  O_49
REMARK   11  A    between atoms: C_42  and  C_44
REMARK   12  A    between atoms: C_44  and  C_46
REMARK   13  A    between atoms: C_51  and  O_52
REMARK                            x       y       z     vdW  Elec       q    Type
REMARK                         _______ _______ _______ _____ _____    ______ ____
ROOT
ATOM      1  O   UNL     1     139.855 113.209 109.816  0.00  0.00    +0.000 OA
ATOM      2  O   UNL     1     140.421 116.202 112.645  0.00  0.00    +0.000 OA
ATOM      3  O   UNL     1     137.822 112.555 110.685  0.00  0.00    +0.000 OA
ATOM      4  O   UNL     1     146.558 114.717 110.739  0.00  0.00    +0.000 OA
ATOM      5  O   UNL     1     141.732 113.866 107.781  0.00  0.00    +0.000 OA
ATOM      6  C   UNL     1     140.845 113.914 112.285  0.00  0.00    +0.000 C 
ATOM      7  C   UNL     1     141.275 115.341 112.426  0.00  0.00    +0.000 C 
ATOM      8  C   UNL     1     140.324 113.509 111.025  0.00  0.00    +0.000 C 
ATOM      9  C   UNL     1     142.781 115.630 112.184  0.00  0.00    +0.000 C 
ATOM     10  C   UNL     1     143.105 115.567 110.701  0.00  0.00    +0.000 C 
ATOM     11  C   UNL     1     144.377 115.155 110.205  0.00  0.00    +0.000 C 
ATOM     12  C   UNL     1     138.556 112.834 109.748  0.00  0.00    +0.000 C 
ATOM     13  C   UNL     1     145.717 114.720 109.846  0.00  0.00    +0.000 C 
ATOM     14  C   UNL     1     138.069 112.843 108.349  0.00  0.00    +0.000 C 
ATOM     15  C   UNL     1     138.903 113.067 107.186  0.00  0.00    +0.000 C 
ATOM     16  C   UNL     1     146.021 114.304 108.438  0.00  0.00    +0.000 C 
ATOM     17  C   UNL     1     140.137 112.365 106.854  0.00  0.00    +0.000 C 
ATOM     18  C   UNL     1     142.297 112.966 105.635  0.00  0.00    +0.000 C 
ATOM     19  C   UNL     1     141.410 113.151 106.831  0.00  0.00    +0.000 C 
ATOM     20  C   UNL     1     143.691 113.409 105.709  0.00  0.00    +0.000 C 
ATOM     21  C   UNL     1     145.066 114.417 107.397  0.00  0.00    +0.000 C 
ATOM     22  C   UNL     1     144.182 114.543 106.458  0.00  0.00    +0.000 C 
ATOM     23  C   UNL     1     147.362 113.748 108.010  0.00  0.00    +0.000 C 
ATOM     24  C   UNL     1     140.253 110.880 107.203  0.00  0.00    +0.000 C 
ATOM     25  C   UNL     1     141.739 112.421 104.325  0.00  0.00    +0.000 C 
ATOM     26  C   UNL     1     143.571 115.915 106.316  0.00  0.00    +0.000 C 
ENDROOT
BRANCH   9  27
ATOM     27  O   UNL     1     143.561 114.641 112.857  0.00  0.00    +0.000 OA
ATOM     28  H   UNL     1     143.295 114.656 113.794  0.00  0.00    +0.000 HD
ENDBRANCH   9  27
BRANCH  10  29
ATOM     29  O   UNL     1     142.131 115.953 109.802  0.00  0.00    +0.000 OA
ATOM     30  H   UNL     1     142.395 116.695 109.226  0.00  0.00    +0.000 HD
ENDBRANCH  10  29
BRANCH  14  31
ATOM     31  O   UNL     1     136.715 112.678 108.115  0.00  0.00    +0.000 OA
ATOM     32  H   UNL     1     136.556 112.404 107.187  0.00  0.00    +0.000 HD
ENDBRANCH  14  31
BRANCH  15  33
ATOM     33  O   UNL     1     138.230 113.616 106.107  0.00  0.00    +0.000 OA
ATOM     34  C   UNL     1     138.421 115.006 106.070  0.00  0.00    +0.000 C 
ENDBRANCH  15  33
BRANCH  20  35
ATOM     35  O   UNL     1     144.607 112.948 104.725  0.00  0.00    +0.000 OA
BRANCH  35  37
ATOM     36  O   UNL     1     144.260 114.532 103.048  0.00  0.00    +0.000 OA
ATOM     37  C   UNL     1     144.956 113.884 103.806  0.00  0.00    +0.000 C 
ATOM     38  C   UNL     1     146.417 114.107 103.675  0.00  0.00    +0.000 C 
ENDBRANCH  35  37
ENDBRANCH  20  35
BRANCH   6  39
ATOM     39  C   UNL     1     140.867 113.022 113.426  0.00  0.00    +0.000 C 
BRANCH  39  41
ATOM     40  O   UNL     1     140.012 112.711 115.809  0.00  0.00    +0.000 OA
ATOM     41  C   UNL     1     139.748 112.986 114.411  0.00  0.00    +0.000 C 
ATOM     42  C   UNL     1     139.825 114.012 115.447  0.00  0.00    +0.000 C 
ATOM     43  C   UNL     1     138.433 112.241 113.998  0.00  0.00    +0.000 C 
BRANCH  42  44
ATOM     44  C   UNL     1     138.662 114.704 115.926  0.00  0.00    +0.000 C 
ATOM     45  C   UNL     1     138.412 114.826 117.408  0.00  0.00    +0.000 C 
BRANCH  44  46
ATOM     46  C   UNL     1     138.078 115.710 115.110  0.00  0.00    +0.000 C 
ATOM     47  C   UNL     1     137.623 116.508 114.339  0.00  0.00    +0.000 C 
ATOM     48  C   UNL     1     137.120 117.466 113.249  0.00  0.00    +0.000 C 
ENDBRANCH  44  46
ENDBRANCH  42  44
ENDBRANCH  39  41
BRANCH  39  49
ATOM     49  O   UNL     1     141.798 111.996 113.350  0.00  0.00    +0.000 OA
ATOM     50  H   UNL     1     141.578 111.247 113.936  0.00  0.00    +0.000 HD
ENDBRANCH  39  49
ENDBRANCH   6  39
BRANCH   9  51
ATOM     51  C   UNL     1     143.150 116.969 112.701  0.00  0.00    +0.000 C 
BRANCH  51  52
ATOM     52  O   UNL     1     143.489 118.162 113.190  0.00  0.00    +0.000 OA
ATOM     53  H   UNL     1     142.740 118.784 113.129  0.00  0.00    +0.000 HD
ENDBRANCH  51  52
ENDBRANCH   9  51
TORSDOF 13
ENDMDL
MODEL 4
REMARK VINA RESULT:      -6.0     37.141     42.867
REMARK  Name = 101808841_CandidaspongiolideA.pdbqt.pdb
REMARK  13 active torsions:
REMARK  status: ('A' for Active; 'I' for Inactive)
REMARK    1  A    between atoms: C_6  and  C_39
REMARK    2  A    between atoms: C_9  and  O_27
REMARK    3  A    between atoms: C_9  and  C_51
REMARK    4  A    between atoms: C_10  and  O_29
REMARK    5  A    between atoms: C_14  and  O_31
REMARK    6  A    between atoms: C_15  and  O_33
REMARK    7  A    between atoms: C_20  and  O_35
REMARK    8  A    between atoms: O_35  and  C_37
REMARK    9  A    between atoms: C_39  and  C_41
REMARK   10  A    between atoms: C_39  and  O_49
REMARK   11  A    between atoms: C_42  and  C_44
REMARK   12  A    between atoms: C_44  and  C_46
REMARK   13  A    between atoms: C_51  and  O_52
REMARK                            x       y       z     vdW  Elec       q    Type
REMARK                         _______ _______ _______ _____ _____    ______ ____
ROOT
ATOM      1  O   UNL     1     138.188 135.704 136.136  0.00  0.00    +0.000 OA
ATOM      2  O   UNL     1     136.226 137.532 132.960  0.00  0.00    +0.000 OA
ATOM      3  O   UNL     1     140.154 135.423 134.965  0.00  0.00    +0.000 OA
ATOM      4  O   UNL     1     131.304 134.995 136.542  0.00  0.00    +0.000 OA
ATOM      5  O   UNL     1     136.555 136.348 138.375  0.00  0.00    +0.000 OA
ATOM      6  C   UNL     1     136.636 135.405 133.883  0.00  0.00    +0.000 C 
ATOM      7  C   UNL     1     135.748 136.563 133.552  0.00  0.00    +0.000 C 
ATOM      8  C   UNL     1     137.458 135.520 135.039  0.00  0.00    +0.000 C 
ATOM      9  C   UNL     1     134.290 136.481 134.080  0.00  0.00    +0.000 C 
ATOM     10  C   UNL     1     134.249 136.739 135.577  0.00  0.00    +0.000 C 
ATOM     11  C   UNL     1     133.279 136.145 136.436  0.00  0.00    +0.000 C 
ATOM     12  C   UNL     1     139.531 135.734 135.970  0.00  0.00    +0.000 C 
ATOM     13  C   UNL     1     132.230 135.474 137.188  0.00  0.00    +0.000 C 
ATOM     14  C   UNL     1     140.208 136.259 137.179  0.00  0.00    +0.000 C 
ATOM     15  C   UNL     1     139.547 136.554 138.433  0.00  0.00    +0.000 C 
ATOM     16  C   UNL     1     132.312 135.392 138.682  0.00  0.00    +0.000 C 
ATOM     17  C   UNL     1     138.680 135.658 139.189  0.00  0.00    +0.000 C 
ATOM     18  C   UNL     1     136.670 135.950 140.734  0.00  0.00    +0.000 C 
ATOM     19  C   UNL     1     137.242 136.038 139.349  0.00  0.00    +0.000 C 
ATOM     20  C   UNL     1     135.215 135.954 140.903  0.00  0.00    +0.000 C 
ATOM     21  C   UNL     1     133.333 136.043 139.419  0.00  0.00    +0.000 C 
ATOM     22  C   UNL     1     134.267 136.660 140.071  0.00  0.00    +0.000 C 
ATOM     23  C   UNL     1     131.313 134.627 139.525  0.00  0.00    +0.000 C 
ATOM     24  C   UNL     1     139.000 134.162 139.199  0.00  0.00    +0.000 C 
ATOM     25  C   UNL     1     137.580 135.960 141.957  0.00  0.00    +0.000 C 
ATOM     26  C   UNL     1     134.411 138.131 139.772  0.00  0.00    +0.000 C 
ENDROOT
BRANCH   9  27
ATOM     27  O   UNL     1     133.777 135.171 133.836  0.00  0.00    +0.000 OA
ATOM     28  H   UNL     1     132.981 135.273 133.283  0.00  0.00    +0.000 HD
ENDBRANCH   9  27
BRANCH  10  29
ATOM     29  O   UNL     1     135.176 137.609 136.115  0.00  0.00    +0.000 OA
ATOM     30  H   UNL     1     134.826 138.505 136.285  0.00  0.00    +0.000 HD
ENDBRANCH  10  29
BRANCH  14  31
ATOM     31  O   UNL     1     141.561 136.544 137.112  0.00  0.00    +0.000 OA
ATOM     32  H   UNL     1     141.776 137.006 136.274  0.00  0.00    +0.000 HD
ENDBRANCH  14  31
BRANCH  15  33
ATOM     33  O   UNL     1     140.169 137.541 139.180  0.00  0.00    +0.000 OA
ATOM     34  C   UNL     1     139.603 138.793 138.900  0.00  0.00    +0.000 C 
ENDBRANCH  15  33
BRANCH  20  35
ATOM     35  O   UNL     1     134.672 135.547 142.151  0.00  0.00    +0.000 OA
BRANCH  35  37
ATOM     36  O   UNL     1     134.769 137.529 143.378  0.00  0.00    +0.000 OA
ATOM     37  C   UNL     1     134.193 136.565 142.910  0.00  0.00    +0.000 C 
ATOM     38  C   UNL     1     132.756 136.450 143.262  0.00  0.00    +0.000 C 
ENDBRANCH  35  37
ENDBRANCH  20  35
BRANCH   6  39
ATOM     39  C   UNL     1     136.722 134.265 132.994  0.00  0.00    +0.000 C 
BRANCH  39  41
ATOM     40  O   UNL     1     137.670 131.942 132.539  0.00  0.00    +0.000 OA
ATOM     41  C   UNL     1     137.177 132.930 133.477  0.00  0.00    +0.000 C 
ATOM     42  C   UNL     1     138.593 132.657 133.245  0.00  0.00    +0.000 C 
ATOM     43  C   UNL     1     136.299 132.200 134.550  0.00  0.00    +0.000 C 
BRANCH  42  44
ATOM     44  C   UNL     1     139.409 131.975 134.209  0.00  0.00    +0.000 C 
ATOM     45  C   UNL     1     139.139 132.144 135.682  0.00  0.00    +0.000 C 
BRANCH  44  46
ATOM     46  C   UNL     1     140.055 130.769 133.827  0.00  0.00    +0.000 C 
ATOM     47  C   UNL     1     140.663 129.808 133.445  0.00  0.00    +0.000 C 
ATOM     48  C   UNL     1     141.499 128.664 132.854  0.00  0.00    +0.000 C 
ENDBRANCH  44  46
ENDBRANCH  42  44
ENDBRANCH  39  41
BRANCH  39  49
ATOM     49  O   UNL     1     136.042 134.407 131.793  0.00  0.00    +0.000 OA
ATOM     50  H   UNL     1     135.497 133.626 131.576  0.00  0.00    +0.000 HD
ENDBRANCH  39  49
ENDBRANCH   6  39
BRANCH   9  51
ATOM     51  C   UNL     1     133.426 137.472 133.396  0.00  0.00    +0.000 C 
BRANCH  51  52
ATOM     52  O   UNL     1     132.664 138.361 132.758  0.00  0.00    +0.000 OA
ATOM     53  H   UNL     1     132.016 137.910 132.186  0.00  0.00    +0.000 HD
ENDBRANCH  51  52
ENDBRANCH   9  51
TORSDOF 13
ENDMDL
MODEL 5
REMARK VINA RESULT:      -5.9      2.534      8.635
REMARK  Name = 101808841_CandidaspongiolideA.pdbqt.pdb
REMARK  13 active torsions:
REMARK  status: ('A' for Active; 'I' for Inactive)
REMARK    1  A    between atoms: C_6  and  C_39
REMARK    2  A    between atoms: C_9  and  O_27
REMARK    3  A    between atoms: C_9  and  C_51
REMARK    4  A    between atoms: C_10  and  O_29
REMARK    5  A    between atoms: C_14  and  O_31
REMARK    6  A    between atoms: C_15  and  O_33
REMARK    7  A    between atoms: C_20  and  O_35
REMARK    8  A    between atoms: O_35  and  C_37
REMARK    9  A    between atoms: C_39  and  C_41
REMARK   10  A    between atoms: C_39  and  O_49
REMARK   11  A    between atoms: C_42  and  C_44
REMARK   12  A    between atoms: C_44  and  C_46
REMARK   13  A    between atoms: C_51  and  O_52
REMARK                            x       y       z     vdW  Elec       q    Type
REMARK                         _______ _______ _______ _____ _____    ______ ____
ROOT
ATOM      1  O   UNL     1     142.546 128.059  95.410  0.00  0.00    +0.000 OA
ATOM      2  O   UNL     1     140.112 126.992  92.213  0.00  0.00    +0.000 OA
ATOM      3  O   UNL     1     141.191 129.809  96.060  0.00  0.00    +0.000 OA
ATOM      4  O   UNL     1     146.046 124.719  90.446  0.00  0.00    +0.000 OA
ATOM      5  O   UNL     1     144.207 125.777  95.761  0.00  0.00    +0.000 OA
ATOM      6  C   UNL     1     141.932 128.387  92.747  0.00  0.00    +0.000 C 
ATOM      7  C   UNL     1     141.319 127.199  92.074  0.00  0.00    +0.000 C 
ATOM      8  C   UNL     1     142.261 128.261  94.126  0.00  0.00    +0.000 C 
ATOM      9  C   UNL     1     142.297 126.257  91.321  0.00  0.00    +0.000 C 
ATOM     10  C   UNL     1     143.097 125.421  92.305  0.00  0.00    +0.000 C 
ATOM     11  C   UNL     1     144.426 124.979  92.040  0.00  0.00    +0.000 C 
ATOM     12  C   UNL     1     141.878 128.827  96.303  0.00  0.00    +0.000 C 
ATOM     13  C   UNL     1     145.769 124.595  91.634  0.00  0.00    +0.000 C 
ATOM     14  C   UNL     1     142.030 128.301  97.679  0.00  0.00    +0.000 C 
ATOM     15  C   UNL     1     142.901 127.206  98.053  0.00  0.00    +0.000 C 
ATOM     16  C   UNL     1     146.742 124.075  92.649  0.00  0.00    +0.000 C 
ATOM     17  C   UNL     1     144.321 127.083  97.746  0.00  0.00    +0.000 C 
ATOM     18  C   UNL     1     145.924 125.146  97.307  0.00  0.00    +0.000 C 
ATOM     19  C   UNL     1     144.754 125.966  96.849  0.00  0.00    +0.000 C 
ATOM     20  C   UNL     1     146.616 124.293  96.338  0.00  0.00    +0.000 C 
ATOM     21  C   UNL     1     146.371 123.838  93.996  0.00  0.00    +0.000 C 
ATOM     22  C   UNL     1     146.005 123.613  95.218  0.00  0.00    +0.000 C 
ATOM     23  C   UNL     1     148.184 123.750  92.322  0.00  0.00    +0.000 C 
ATOM     24  C   UNL     1     145.181 128.348  97.730  0.00  0.00    +0.000 C 
ATOM     25  C   UNL     1     146.330 125.117  98.776  0.00  0.00    +0.000 C 
ATOM     26  C   UNL     1     144.790 122.736  95.386  0.00  0.00    +0.000 C 
ENDROOT
BRANCH   9  27
ATOM     27  O   UNL     1     143.209 127.046  90.556  0.00  0.00    +0.000 OA
ATOM     28  H   UNL     1     142.716 127.391  89.789  0.00  0.00    +0.000 HD
ENDBRANCH   9  27
BRANCH  10  29
ATOM     29  O   UNL     1     142.495 125.055  93.492  0.00  0.00    +0.000 OA
ATOM     30  H   UNL     1     142.179 124.132  93.508  0.00  0.00    +0.000 HD
ENDBRANCH  10  29
BRANCH  14  31
ATOM     31  O   UNL     1     141.255 128.845  98.688  0.00  0.00    +0.000 OA
ATOM     32  H   UNL     1     141.819 129.289  99.356  0.00  0.00    +0.000 HD
ENDBRANCH  14  31
BRANCH  15  33
ATOM     33  O   UNL     1     142.478 126.504  99.170  0.00  0.00    +0.000 OA
ATOM     34  C   UNL     1     141.803 125.337  98.784  0.00  0.00    +0.000 C 
ENDBRANCH  15  33
BRANCH  20  35
ATOM     35  O   UNL     1     147.898 123.780  96.674  0.00  0.00    +0.000 OA
BRANCH  35  37
ATOM     36  O   UNL     1     149.804 123.660  95.333  0.00  0.00    +0.000 OA
ATOM     37  C   UNL     1     148.909 124.255  95.901  0.00  0.00    +0.000 C 
ATOM     38  C   UNL     1     148.949 125.734  95.779  0.00  0.00    +0.000 C 
ENDBRANCH  35  37
ENDBRANCH  20  35
BRANCH   6  39
ATOM     39  C   UNL     1     142.080 129.641  92.036  0.00  0.00    +0.000 C 
BRANCH  39  41
ATOM     40  O   UNL     1     139.869 130.570  92.903  0.00  0.00    +0.000 OA
ATOM     41  C   UNL     1     140.968 130.630  91.960  0.00  0.00    +0.000 C 
ATOM     42  C   UNL     1     140.848 131.493  93.132  0.00  0.00    +0.000 C 
ATOM     43  C   UNL     1     140.388 130.974  90.545  0.00  0.00    +0.000 C 
BRANCH  42  44
ATOM     44  C   UNL     1     140.524 132.887  93.026  0.00  0.00    +0.000 C 
ATOM     45  C   UNL     1     139.083 133.326  92.971  0.00  0.00    +0.000 C 
BRANCH  44  46
ATOM     46  C   UNL     1     141.450 133.844  93.521  0.00  0.00    +0.000 C 
ATOM     47  C   UNL     1     142.250 134.587  94.018  0.00  0.00    +0.000 C 
ATOM     48  C   UNL     1     143.270 135.454  94.771  0.00  0.00    +0.000 C 
ENDBRANCH  44  46
ENDBRANCH  42  44
ENDBRANCH  39  41
BRANCH  39  49
ATOM     49  O   UNL     1     143.389 129.998  91.745  0.00  0.00    +0.000 OA
ATOM     50  H   UNL     1     143.542 130.959  91.828  0.00  0.00    +0.000 HD
ENDBRANCH  39  49
ENDBRANCH   6  39
BRANCH   9  51
ATOM     51  C   UNL     1     141.559 125.352  90.409  0.00  0.00    +0.000 C 
BRANCH  51  52
ATOM     52  O   UNL     1     140.875 124.557  89.586  0.00  0.00    +0.000 OA
ATOM     53  H   UNL     1     141.156 124.695  88.662  0.00  0.00    +0.000 HD
ENDBRANCH  51  52
ENDBRANCH   9  51
TORSDOF 13
ENDMDL
MODEL 6
REMARK VINA RESULT:      -5.8      2.494      4.033
REMARK  Name = 101808841_CandidaspongiolideA.pdbqt.pdb
REMARK  13 active torsions:
REMARK  status: ('A' for Active; 'I' for Inactive)
REMARK    1  A    between atoms: C_6  and  C_39
REMARK    2  A    between atoms: C_9  and  O_27
REMARK    3  A    between atoms: C_9  and  C_51
REMARK    4  A    between atoms: C_10  and  O_29
REMARK    5  A    between atoms: C_14  and  O_31
REMARK    6  A    between atoms: C_15  and  O_33
REMARK    7  A    between atoms: C_20  and  O_35
REMARK    8  A    between atoms: O_35  and  C_37
REMARK    9  A    between atoms: C_39  and  C_41
REMARK   10  A    between atoms: C_39  and  O_49
REMARK   11  A    between atoms: C_42  and  C_44
REMARK   12  A    between atoms: C_44  and  C_46
REMARK   13  A    between atoms: C_51  and  O_52
REMARK                            x       y       z     vdW  Elec       q    Type
REMARK                         _______ _______ _______ _____ _____    ______ ____
ROOT
ATOM      1  O   UNL     1     145.570 124.851  94.167  0.00  0.00    +0.000 OA
ATOM      2  O   UNL     1     143.700 123.146  97.465  0.00  0.00    +0.000 OA
ATOM      3  O   UNL     1     147.575 123.777  94.551  0.00  0.00    +0.000 OA
ATOM      4  O   UNL     1     140.303 128.714  96.487  0.00  0.00    +0.000 OA
ATOM      5  O   UNL     1     143.398 125.844  92.621  0.00  0.00    +0.000 OA
ATOM      6  C   UNL     1     144.984 125.022  96.850  0.00  0.00    +0.000 C 
ATOM      7  C   UNL     1     143.710 124.364  97.277  0.00  0.00    +0.000 C 
ATOM      8  C   UNL     1     145.327 124.953  95.471  0.00  0.00    +0.000 C 
ATOM      9  C   UNL     1     142.458 125.280  97.353  0.00  0.00    +0.000 C 
ATOM     10  C   UNL     1     141.949 125.606  95.959  0.00  0.00    +0.000 C 
ATOM     11  C   UNL     1     141.296 126.834  95.644  0.00  0.00    +0.000 C 
ATOM     12  C   UNL     1     146.677 124.156  93.813  0.00  0.00    +0.000 C 
ATOM     13  C   UNL     1     140.647 128.123  95.469  0.00  0.00    +0.000 C 
ATOM     14  C   UNL     1     146.667 123.835  92.366  0.00  0.00    +0.000 C 
ATOM     15  C   UNL     1     145.691 124.330  91.418  0.00  0.00    +0.000 C 
ATOM     16  C   UNL     1     140.422 128.671  94.092  0.00  0.00    +0.000 C 
ATOM     17  C   UNL     1     145.310 125.722  91.211  0.00  0.00    +0.000 C 
ATOM     18  C   UNL     1     143.180 126.936  90.501  0.00  0.00    +0.000 C 
ATOM     19  C   UNL     1     143.905 126.122  91.533  0.00  0.00    +0.000 C 
ATOM     20  C   UNL     1     141.964 127.655  90.889  0.00  0.00    +0.000 C 
ATOM     21  C   UNL     1     140.728 127.927  92.925  0.00  0.00    +0.000 C 
ATOM     22  C   UNL     1     141.000 127.221  91.873  0.00  0.00    +0.000 C 
ATOM     23  C   UNL     1     139.844 130.046  93.833  0.00  0.00    +0.000 C 
ATOM     24  C   UNL     1     146.381 126.805  91.350  0.00  0.00    +0.000 C 
ATOM     25  C   UNL     1     143.636 126.937  89.046  0.00  0.00    +0.000 C 
ATOM     26  C   UNL     1     140.382 125.846  91.830  0.00  0.00    +0.000 C 
ENDROOT
BRANCH   9  27
ATOM     27  O   UNL     1     142.813 126.503  98.000  0.00  0.00    +0.000 OA
ATOM     28  H   UNL     1     142.152 127.169  97.735  0.00  0.00    +0.000 HD
ENDBRANCH   9  27
BRANCH  10  29
ATOM     29  O   UNL     1     142.103 124.657  94.969  0.00  0.00    +0.000 OA
ATOM     30  H   UNL     1     141.489 123.902  95.045  0.00  0.00    +0.000 HD
ENDBRANCH  10  29
BRANCH  14  31
ATOM     31  O   UNL     1     147.620 122.961  91.872  0.00  0.00    +0.000 OA
ATOM     32  H   UNL     1     148.523 123.307  92.035  0.00  0.00    +0.000 HD
ENDBRANCH  14  31
BRANCH  15  33
ATOM     33  O   UNL     1     145.489 123.497  90.330  0.00  0.00    +0.000 OA
ATOM     34  C   UNL     1     145.969 124.100  89.158  0.00  0.00    +0.000 C 
ENDBRANCH  15  33
BRANCH  20  35
ATOM     35  O   UNL     1     141.468 128.670  90.027  0.00  0.00    +0.000 OA
BRANCH  35  37
ATOM     36  O   UNL     1     142.382 130.465  91.205  0.00  0.00    +0.000 OA
ATOM     37  C   UNL     1     142.065 129.880  90.188  0.00  0.00    +0.000 C 
ATOM     38  C   UNL     1     142.319 130.616  88.924  0.00  0.00    +0.000 C 
ENDBRANCH  35  37
ENDBRANCH  20  35
BRANCH   6  39
ATOM     39  C   UNL     1     145.874 125.609  97.831  0.00  0.00    +0.000 C 
BRANCH  39  41
ATOM     40  O   UNL     1     147.581 127.425  98.369  0.00  0.00    +0.000 OA
ATOM     41  C   UNL     1     146.363 127.011  97.702  0.00  0.00    +0.000 C 
ATOM     42  C   UNL     1     147.657 127.138  97.037  0.00  0.00    +0.000 C 
ATOM     43  C   UNL     1     145.313 128.168  97.825  0.00  0.00    +0.000 C 
BRANCH  42  44
ATOM     44  C   UNL     1     147.942 128.201  96.115  0.00  0.00    +0.000 C 
ATOM     45  C   UNL     1     148.258 129.582  96.628  0.00  0.00    +0.000 C 
BRANCH  44  46
ATOM     46  C   UNL     1     148.467 127.874  94.836  0.00  0.00    +0.000 C 
ATOM     47  C   UNL     1     148.997 127.649  93.784  0.00  0.00    +0.000 C 
ATOM     48  C   UNL     1     149.777 127.457  92.475  0.00  0.00    +0.000 C 
ENDBRANCH  44  46
ENDBRANCH  42  44
ENDBRANCH  39  41
BRANCH  39  49
ATOM     49  O   UNL     1     145.953 124.922  99.034  0.00  0.00    +0.000 OA
ATOM     50  H   UNL     1     145.854 123.957  98.922  0.00  0.00    +0.000 HD
ENDBRANCH  39  49
ENDBRANCH   6  39
BRANCH   9  51
ATOM     51  C   UNL     1     141.373 124.625  98.122  0.00  0.00    +0.000 C 
BRANCH  51  52
ATOM     52  O   UNL     1     140.379 124.047  98.796  0.00  0.00    +0.000 OA
ATOM     53  H   UNL     1     140.708 123.285  99.308  0.00  0.00    +0.000 HD
ENDBRANCH  51  52
ENDBRANCH   9  51
TORSDOF 13
ENDMDL
MODEL 7
REMARK VINA RESULT:      -5.8     15.948     19.318
REMARK  Name = 101808841_CandidaspongiolideA.pdbqt.pdb
REMARK  13 active torsions:
REMARK  status: ('A' for Active; 'I' for Inactive)
REMARK    1  A    between atoms: C_6  and  C_39
REMARK    2  A    between atoms: C_9  and  O_27
REMARK    3  A    between atoms: C_9  and  C_51
REMARK    4  A    between atoms: C_10  and  O_29
REMARK    5  A    between atoms: C_14  and  O_31
REMARK    6  A    between atoms: C_15  and  O_33
REMARK    7  A    between atoms: C_20  and  O_35
REMARK    8  A    between atoms: O_35  and  C_37
REMARK    9  A    between atoms: C_39  and  C_41
REMARK   10  A    between atoms: C_39  and  O_49
REMARK   11  A    between atoms: C_42  and  C_44
REMARK   12  A    between atoms: C_44  and  C_46
REMARK   13  A    between atoms: C_51  and  O_52
REMARK                            x       y       z     vdW  Elec       q    Type
REMARK                         _______ _______ _______ _____ _____    ______ ____
ROOT
ATOM      1  O   UNL     1     145.136 114.781 110.960  0.00  0.00    +0.000 OA
ATOM      2  O   UNL     1     148.521 115.616 108.696  0.00  0.00    +0.000 OA
ATOM      3  O   UNL     1     146.091 115.490 112.936  0.00  0.00    +0.000 OA
ATOM      4  O   UNL     1     145.449 110.950 105.192  0.00  0.00    +0.000 OA
ATOM      5  O   UNL     1     143.088 114.508 109.003  0.00  0.00    +0.000 OA
ATOM      6  C   UNL     1     147.536 113.887 109.955  0.00  0.00    +0.000 C 
ATOM      7  C   UNL     1     147.972 114.514 108.668  0.00  0.00    +0.000 C 
ATOM      8  C   UNL     1     146.302 114.324 110.511  0.00  0.00    +0.000 C 
ATOM      9  C   UNL     1     147.599 113.745 107.371  0.00  0.00    +0.000 C 
ATOM     10  C   UNL     1     146.118 113.896 107.068  0.00  0.00    +0.000 C 
ATOM     11  C   UNL     1     145.359 112.886 106.406  0.00  0.00    +0.000 C 
ATOM     12  C   UNL     1     145.160 115.437 112.145  0.00  0.00    +0.000 C 
ATOM     13  C   UNL     1     144.715 111.777 105.721  0.00  0.00    +0.000 C 
ATOM     14  C   UNL     1     143.893 116.168 112.378  0.00  0.00    +0.000 C 
ATOM     15  C   UNL     1     142.718 116.074 111.535  0.00  0.00    +0.000 C 
ATOM     16  C   UNL     1     143.219 111.684 105.684  0.00  0.00    +0.000 C 
ATOM     17  C   UNL     1     142.048 114.849 111.115  0.00  0.00    +0.000 C 
ATOM     18  C   UNL     1     140.726 114.116 109.058  0.00  0.00    +0.000 C 
ATOM     19  C   UNL     1     142.044 114.514 109.657  0.00  0.00    +0.000 C 
ATOM     20  C   UNL     1     140.712 113.439 107.759  0.00  0.00    +0.000 C 
ATOM     21  C   UNL     1     142.387 112.705 106.208  0.00  0.00    +0.000 C 
ATOM     22  C   UNL     1     141.646 113.657 106.678  0.00  0.00    +0.000 C 
ATOM     23  C   UNL     1     142.478 110.510 105.078  0.00  0.00    +0.000 C 
ATOM     24  C   UNL     1     141.988 113.673 112.091  0.00  0.00    +0.000 C 
ATOM     25  C   UNL     1     139.415 114.498 109.734  0.00  0.00    +0.000 C 
ATOM     26  C   UNL     1     141.944 115.038 106.151  0.00  0.00    +0.000 C 
ENDROOT
BRANCH   9  27
ATOM     27  O   UNL     1     147.882 112.357 107.553  0.00  0.00    +0.000 OA
ATOM     28  H   UNL     1     148.239 112.253 108.454  0.00  0.00    +0.000 HD
ENDBRANCH   9  27
BRANCH  10  29
ATOM     29  O   UNL     1     145.495 115.074 107.426  0.00  0.00    +0.000 OA
ATOM     30  H   UNL     1     145.823 115.457 108.261  0.00  0.00    +0.000 HD
ENDBRANCH  10  29
BRANCH  14  31
ATOM     31  O   UNL     1     143.820 117.049 113.442  0.00  0.00    +0.000 OA
ATOM     32  H   UNL     1     143.777 116.562 114.292  0.00  0.00    +0.000 HD
ENDBRANCH  14  31
BRANCH  15  33
ATOM     33  O   UNL     1     141.921 117.206 111.551  0.00  0.00    +0.000 OA
ATOM     34  C   UNL     1     142.486 118.211 110.751  0.00  0.00    +0.000 C 
ENDBRANCH  15  33
BRANCH  20  35
ATOM     35  O   UNL     1     139.523 112.777 107.348  0.00  0.00    +0.000 OA
BRANCH  35  37
ATOM     36  O   UNL     1     138.351 114.551 106.387  0.00  0.00    +0.000 OA
ATOM     37  C   UNL     1     138.825 113.431 106.384  0.00  0.00    +0.000 C 
ATOM     38  C   UNL     1     138.562 112.631 105.162  0.00  0.00    +0.000 C 
ENDBRANCH  35  37
ENDBRANCH  20  35
BRANCH   6  39
ATOM     39  C   UNL     1     148.399 112.952 110.647  0.00  0.00    +0.000 C 
BRANCH  39  41
ATOM     40  O   UNL     1     148.088 111.312 112.575  0.00  0.00    +0.000 OA
ATOM     41  C   UNL     1     147.881 111.661 111.184  0.00  0.00    +0.000 C 
ATOM     42  C   UNL     1     146.866 111.806 112.224  0.00  0.00    +0.000 C 
ATOM     43  C   UNL     1     148.080 110.373 110.314  0.00  0.00    +0.000 C 
BRANCH  42  44
ATOM     44  C   UNL     1     145.722 110.943 112.301  0.00  0.00    +0.000 C 
ATOM     45  C   UNL     1     145.276 110.396 113.634  0.00  0.00    +0.000 C 
BRANCH  44  46
ATOM     46  C   UNL     1     144.717 111.047 111.302  0.00  0.00    +0.000 C 
ATOM     47  C   UNL     1     143.854 111.032 110.470  0.00  0.00    +0.000 C 
ATOM     48  C   UNL     1     142.756 110.869 109.409  0.00  0.00    +0.000 C 
ENDBRANCH  44  46
ENDBRANCH  42  44
ENDBRANCH  39  41
BRANCH  39  49
ATOM     49  O   UNL     1     149.758 113.171 110.474  0.00  0.00    +0.000 OA
ATOM     50  H   UNL     1     150.305 112.477 110.891  0.00  0.00    +0.000 HD
ENDBRANCH  39  49
ENDBRANCH   6  39
BRANCH   9  51
ATOM     51  C   UNL     1     148.381 114.249 106.217  0.00  0.00    +0.000 C 
BRANCH  51  52
ATOM     52  O   UNL     1     149.073 114.727 105.183  0.00  0.00    +0.000 OA
ATOM     53  H   UNL     1     149.869 115.199 105.490  0.00  0.00    +0.000 HD
ENDBRANCH  51  52
ENDBRANCH   9  51
TORSDOF 13
ENDMDL
MODEL 8
REMARK VINA RESULT:      -5.6     15.246     19.054
REMARK  Name = 101808841_CandidaspongiolideA.pdbqt.pdb
REMARK  13 active torsions:
REMARK  status: ('A' for Active; 'I' for Inactive)
REMARK    1  A    between atoms: C_6  and  C_39
REMARK    2  A    between atoms: C_9  and  O_27
REMARK    3  A    between atoms: C_9  and  C_51
REMARK    4  A    between atoms: C_10  and  O_29
REMARK    5  A    between atoms: C_14  and  O_31
REMARK    6  A    between atoms: C_15  and  O_33
REMARK    7  A    between atoms: C_20  and  O_35
REMARK    8  A    between atoms: O_35  and  C_37
REMARK    9  A    between atoms: C_39  and  C_41
REMARK   10  A    between atoms: C_39  and  O_49
REMARK   11  A    between atoms: C_42  and  C_44
REMARK   12  A    between atoms: C_44  and  C_46
REMARK   13  A    between atoms: C_51  and  O_52
REMARK                            x       y       z     vdW  Elec       q    Type
REMARK                         _______ _______ _______ _____ _____    ______ ____
ROOT
ATOM      1  O   UNL     1     142.383 113.108 108.072  0.00  0.00    +0.000 OA
ATOM      2  O   UNL     1     141.257 116.095 110.734  0.00  0.00    +0.000 OA
ATOM      3  O   UNL     1     140.210 112.551 107.534  0.00  0.00    +0.000 OA
ATOM      4  O   UNL     1     147.243 114.325 112.862  0.00  0.00    +0.000 OA
ATOM      5  O   UNL     1     145.130 113.664 107.584  0.00  0.00    +0.000 OA
ATOM      6  C   UNL     1     141.720 113.788 110.655  0.00  0.00    +0.000 C 
ATOM      7  C   UNL     1     142.035 115.195 111.054  0.00  0.00    +0.000 C 
ATOM      8  C   UNL     1     142.043 113.396 109.325  0.00  0.00    +0.000 C 
ATOM      9  C   UNL     1     143.396 115.415 111.770  0.00  0.00    +0.000 C 
ATOM     10  C   UNL     1     144.542 115.326 110.777  0.00  0.00    +0.000 C 
ATOM     11  C   UNL     1     145.839 114.854 111.136  0.00  0.00    +0.000 C 
ATOM     12  C   UNL     1     141.371 112.789 107.231  0.00  0.00    +0.000 C 
ATOM     13  C   UNL     1     147.108 114.358 111.643  0.00  0.00    +0.000 C 
ATOM     14  C   UNL     1     141.822 112.808 105.820  0.00  0.00    +0.000 C 
ATOM     15  C   UNL     1     143.195 112.986 105.394  0.00  0.00    +0.000 C 
ATOM     16  C   UNL     1     148.178 113.918 110.691  0.00  0.00    +0.000 C 
ATOM     17  C   UNL     1     144.351 112.228 105.855  0.00  0.00    +0.000 C 
ATOM     18  C   UNL     1     146.833 112.722 106.188  0.00  0.00    +0.000 C 
ATOM     19  C   UNL     1     145.414 112.956 106.616  0.00  0.00    +0.000 C 
ATOM     20  C   UNL     1     147.920 113.104 107.093  0.00  0.00    +0.000 C 
ATOM     21  C   UNL     1     148.045 114.064 109.287  0.00  0.00    +0.000 C 
ATOM     22  C   UNL     1     147.908 114.222 108.009  0.00  0.00    +0.000 C 
ATOM     23  C   UNL     1     149.484 113.299 111.142  0.00  0.00    +0.000 C 
ATOM     24  C   UNL     1     144.175 110.742 106.174  0.00  0.00    +0.000 C 
ATOM     25  C   UNL     1     147.151 112.192 104.795  0.00  0.00    +0.000 C 
ATOM     26  C   UNL     1     147.560 115.618 107.556  0.00  0.00    +0.000 C 
ENDROOT
BRANCH   9  27
ATOM     27  O   UNL     1     143.575 114.398 112.756  0.00  0.00    +0.000 OA
ATOM     28  H   UNL     1     143.954 113.623 112.302  0.00  0.00    +0.000 HD
ENDBRANCH   9  27
BRANCH  10  29
ATOM     29  O   UNL     1     144.319 115.748 109.481  0.00  0.00    +0.000 OA
ATOM     30  H   UNL     1     143.511 115.377 109.078  0.00  0.00    +0.000 HD
ENDBRANCH  10  29
BRANCH  14  31
ATOM     31  O   UNL     1     140.874 112.702 104.817  0.00  0.00    +0.000 OA
ATOM     32  H   UNL     1     141.279 112.354 103.994  0.00  0.00    +0.000 HD
ENDBRANCH  14  31
BRANCH  15  33
ATOM     33  O   UNL     1     143.327 113.556 104.139  0.00  0.00    +0.000 OA
ATOM     34  C   UNL     1     143.819 114.865 104.247  0.00  0.00    +0.000 C 
ENDBRANCH  15  33
BRANCH  20  35
ATOM     35  O   UNL     1     149.223 112.595 106.846  0.00  0.00    +0.000 OA
BRANCH  35  37
ATOM     36  O   UNL     1     150.038 114.116 105.276  0.00  0.00    +0.000 OA
ATOM     37  C   UNL     1     150.088 113.503 106.325  0.00  0.00    +0.000 C 
ATOM     38  C   UNL     1     151.302 113.741 107.144  0.00  0.00    +0.000 C 
ENDBRANCH  35  37
ENDBRANCH  20  35
BRANCH   6  39
ATOM     39  C   UNL     1     141.016 112.905 111.563  0.00  0.00    +0.000 C 
BRANCH  39  41
ATOM     40  O   UNL     1     138.633 112.832 112.468  0.00  0.00    +0.000 OA
ATOM     41  C   UNL     1     139.569 112.596 111.386  0.00  0.00    +0.000 C 
ATOM     42  C   UNL     1     138.690 113.759 111.469  0.00  0.00    +0.000 C 
ATOM     43  C   UNL     1     139.187 111.246 110.686  0.00  0.00    +0.000 C 
BRANCH  42  44
ATOM     44  C   UNL     1     137.553 113.922 110.609  0.00  0.00    +0.000 C 
ATOM     45  C   UNL     1     136.180 114.116 111.200  0.00  0.00    +0.000 C 
BRANCH  44  46
ATOM     46  C   UNL     1     137.751 114.448 109.304  0.00  0.00    +0.000 C 
ATOM     47  C   UNL     1     137.820 114.864 108.181  0.00  0.00    +0.000 C 
ATOM     48  C   UNL     1     137.784 115.327 106.718  0.00  0.00    +0.000 C 
ENDBRANCH  44  46
ENDBRANCH  42  44
ENDBRANCH  39  41
BRANCH  39  49
ATOM     49  O   UNL     1     141.832 112.122 112.367  0.00  0.00    +0.000 OA
ATOM     50  H   UNL     1     142.644 111.833 111.908  0.00  0.00    +0.000 HD
ENDBRANCH  39  49
ENDBRANCH   6  39
BRANCH   9  51
ATOM     51  C   UNL     1     143.434 116.741 112.431  0.00  0.00    +0.000 C 
BRANCH  51  52
ATOM     52  O   UNL     1     143.444 117.940 113.014  0.00  0.00    +0.000 OA
ATOM     53  H   UNL     1     143.851 118.604 112.427  0.00  0.00    +0.000 HD
ENDBRANCH  51  52
ENDBRANCH   9  51
TORSDOF 13
ENDMDL
MODEL 9
REMARK VINA RESULT:      -5.6      2.735      7.558
REMARK  Name = 101808841_CandidaspongiolideA.pdbqt.pdb
REMARK  13 active torsions:
REMARK  status: ('A' for Active; 'I' for Inactive)
REMARK    1  A    between atoms: C_6  and  C_39
REMARK    2  A    between atoms: C_9  and  O_27
REMARK    3  A    between atoms: C_9  and  C_51
REMARK    4  A    between atoms: C_10  and  O_29
REMARK    5  A    between atoms: C_14  and  O_31
REMARK    6  A    between atoms: C_15  and  O_33
REMARK    7  A    between atoms: C_20  and  O_35
REMARK    8  A    between atoms: O_35  and  C_37
REMARK    9  A    between atoms: C_39  and  C_41
REMARK   10  A    between atoms: C_39  and  O_49
REMARK   11  A    between atoms: C_42  and  C_44
REMARK   12  A    between atoms: C_44  and  C_46
REMARK   13  A    between atoms: C_51  and  O_52
REMARK                            x       y       z     vdW  Elec       q    Type
REMARK                         _______ _______ _______ _____ _____    ______ ____
ROOT
ATOM      1  O   UNL     1     143.510 125.743  91.736  0.00  0.00    +0.000 OA
ATOM      2  O   UNL     1     144.496 121.709  91.554  0.00  0.00    +0.000 OA
ATOM      3  O   UNL     1     143.700 126.053  89.458  0.00  0.00    +0.000 OA
ATOM      4  O   UNL     1     146.155 123.416  97.705  0.00  0.00    +0.000 OA
ATOM      5  O   UNL     1     142.347 126.020  94.317  0.00  0.00    +0.000 OA
ATOM      6  C   UNL     1     145.489 123.832  91.785  0.00  0.00    +0.000 C 
ATOM      7  C   UNL     1     145.080 122.491  92.307  0.00  0.00    +0.000 C 
ATOM      8  C   UNL     1     144.494 124.848  91.739  0.00  0.00    +0.000 C 
ATOM      9  C   UNL     1     145.347 122.232  93.815  0.00  0.00    +0.000 C 
ATOM     10  C   UNL     1     144.348 122.991  94.672  0.00  0.00    +0.000 C 
ATOM     11  C   UNL     1     144.664 123.484  95.972  0.00  0.00    +0.000 C 
ATOM     12  C   UNL     1     143.124 126.212  90.525  0.00  0.00    +0.000 C 
ATOM     13  C   UNL     1     145.124 123.925  97.279  0.00  0.00    +0.000 C 
ATOM     14  C   UNL     1     141.835 126.936  90.618  0.00  0.00    +0.000 C 
ATOM     15  C   UNL     1     141.148 127.244  91.855  0.00  0.00    +0.000 C 
ATOM     16  C   UNL     1     144.346 124.953  98.043  0.00  0.00    +0.000 C 
ATOM     17  C   UNL     1     141.717 127.911  93.020  0.00  0.00    +0.000 C 
ATOM     18  C   UNL     1     141.330 127.810  95.541  0.00  0.00    +0.000 C 
ATOM     19  C   UNL     1     141.823 127.135  94.294  0.00  0.00    +0.000 C 
ATOM     20  C   UNL     1     141.726 127.272  96.845  0.00  0.00    +0.000 C 
ATOM     21  C   UNL     1     143.100 125.451  97.584  0.00  0.00    +0.000 C 
ATOM     22  C   UNL     1     141.956 125.879  97.152  0.00  0.00    +0.000 C 
ATOM     23  C   UNL     1     144.812 125.533  99.362  0.00  0.00    +0.000 C 
ATOM     24  C   UNL     1     142.753 129.015  92.801  0.00  0.00    +0.000 C 
ATOM     25  C   UNL     1     140.350 128.975  95.462  0.00  0.00    +0.000 C 
ATOM     26  C   UNL     1     140.941 124.813  96.826  0.00  0.00    +0.000 C 
ENDROOT
BRANCH   9  27
ATOM     27  O   UNL     1     146.659 122.691  94.142  0.00  0.00    +0.000 OA
ATOM     28  H   UNL     1     147.010 122.091  94.825  0.00  0.00    +0.000 HD
ENDBRANCH   9  27
BRANCH  10  29
ATOM     29  O   UNL     1     143.074 123.182  94.176  0.00  0.00    +0.000 OA
ATOM     30  H   UNL     1     142.413 123.409  94.858  0.00  0.00    +0.000 HD
ENDBRANCH  10  29
BRANCH  14  31
ATOM     31  O   UNL     1     141.196 127.308  89.448  0.00  0.00    +0.000 OA
ATOM     32  H   UNL     1     141.697 128.016  88.991  0.00  0.00    +0.000 HD
ENDBRANCH  14  31
BRANCH  15  33
ATOM     33  O   UNL     1     139.774 127.358  91.725  0.00  0.00    +0.000 OA
ATOM     34  C   UNL     1     139.370 128.681  91.959  0.00  0.00    +0.000 C 
ENDBRANCH  15  33
BRANCH  20  35
ATOM     35  O   UNL     1     141.543 128.079  98.000  0.00  0.00    +0.000 OA
BRANCH  35  37
ATOM     36  O   UNL     1     142.623 130.103  97.574  0.00  0.00    +0.000 OA
ATOM     37  C   UNL     1     142.483 129.046  98.159  0.00  0.00    +0.000 C 
ATOM     38  C   UNL     1     143.526 128.734  99.168  0.00  0.00    +0.000 C 
ENDBRANCH  35  37
ENDBRANCH  20  35
BRANCH   6  39
ATOM     39  C   UNL     1     146.820 124.039  91.252  0.00  0.00    +0.000 C 
BRANCH  39  41
ATOM     40  O   UNL     1     148.798 125.644  91.371  0.00  0.00    +0.000 OA
ATOM     41  C   UNL     1     147.873 124.747  92.034  0.00  0.00    +0.000 C 
ATOM     42  C   UNL     1     147.746 126.202  92.035  0.00  0.00    +0.000 C 
ATOM     43  C   UNL     1     148.663 123.927  93.111  0.00  0.00    +0.000 C 
BRANCH  42  44
ATOM     44  C   UNL     1     148.005 126.992  93.205  0.00  0.00    +0.000 C 
ATOM     45  C   UNL     1     149.079 128.049  93.180  0.00  0.00    +0.000 C 
BRANCH  44  46
ATOM     46  C   UNL     1     146.958 127.187  94.146  0.00  0.00    +0.000 C 
ATOM     47  C   UNL     1     146.102 127.452  94.942  0.00  0.00    +0.000 C 
ATOM     48  C   UNL     1     145.072 127.919  95.981  0.00  0.00    +0.000 C 
ENDBRANCH  44  46
ENDBRANCH  42  44
ENDBRANCH  39  41
BRANCH  39  49
ATOM     49  O   UNL     1     147.139 123.255  90.152  0.00  0.00    +0.000 OA
ATOM     50  H   UNL     1     147.021 123.731  89.307  0.00  0.00    +0.000 HD
ENDBRANCH  39  49
ENDBRANCH   6  39
BRANCH   9  51
ATOM     51  C   UNL     1     145.249 120.787  94.127  0.00  0.00    +0.000 C 
BRANCH  51  52
ATOM     52  O   UNL     1     145.165 119.492  94.433  0.00  0.00    +0.000 OA
ATOM     53  H   UNL     1     145.968 119.018  94.148  0.00  0.00    +0.000 HD
ENDBRANCH  51  52
ENDBRANCH   9  51
TORSDOF 13
ENDMDL
