MODEL 1
REMARK VINA RESULT:      -6.2      0.000      0.000
REMARK  Name = 102471178_CandidaspongiolideCore.pdbqt.pdb
REMARK  13 active torsions:
REMARK  status: ('A' for Active; 'I' for Inactive)
REMARK    1  A    between atoms: C_6  and  C_39
REMARK    2  A    between atoms: C_8  and  O_27
REMARK    3  A    between atoms: C_8  and  C_51
REMARK    4  A    between atoms: C_10  and  O_29
REMARK    5  A    between atoms: C_15  and  O_31
REMARK    6  A    between atoms: C_16  and  O_33
REMARK    7  A    between atoms: C_21  and  O_35
REMARK    8  A    between atoms: O_35  and  C_37
REMARK    9  A    between atoms: C_39  and  C_41
REMARK   10  A    between atoms: C_39  and  O_49
REMARK   11  A    between atoms: C_42  and  C_44
REMARK   12  A    between atoms: C_44  and  C_46
REMARK   13  A    between atoms: C_51  and  O_52
REMARK                            x       y       z     vdW  Elec       q    Type
REMARK                         _______ _______ _______ _____ _____    ______ ____
ROOT
ATOM      1  O   UNL     1     142.891 114.352 107.045  0.00  0.00    +0.000 OA
ATOM      2  O   UNL     1     142.332 114.395 109.272  0.00  0.00    +0.000 OA
ATOM      3  O   UNL     1     142.820 115.596 114.043  0.00  0.00    +0.000 OA
ATOM      4  O   UNL     1     140.903 114.834 106.089  0.00  0.00    +0.000 OA
ATOM      5  O   UNL     1     139.052 113.547 108.792  0.00  0.00    +0.000 OA
ATOM      6  C   UNL     1     144.521 115.047 108.539  0.00  0.00    +0.000 C 
ATOM      7  C   UNL     1     145.250 114.775 109.730  0.00  0.00    +0.000 C 
ATOM      8  C   UNL     1     146.131 114.465 110.859  0.00  0.00    +0.000 C 
ATOM      9  C   UNL     1     143.124 114.573 108.355  0.00  0.00    +0.000 C 
ATOM     10  C   UNL     1     145.837 115.327 112.067  0.00  0.00    +0.000 C 
ATOM     11  C   UNL     1     144.531 115.659 112.519  0.00  0.00    +0.000 C 
ATOM     12  C   UNL     1     143.167 115.936 112.917  0.00  0.00    +0.000 C 
ATOM     13  C   UNL     1     141.616 114.065 106.723  0.00  0.00    +0.000 C 
ATOM     14  C   UNL     1     142.213 116.573 111.959  0.00  0.00    +0.000 C 
ATOM     15  C   UNL     1     141.204 112.649 106.893  0.00  0.00    +0.000 C 
ATOM     16  C   UNL     1     141.455 111.857 108.080  0.00  0.00    +0.000 C 
ATOM     17  C   UNL     1     140.585 111.777 109.246  0.00  0.00    +0.000 C 
ATOM     18  C   UNL     1     140.835 116.257 112.031  0.00  0.00    +0.000 C 
ATOM     19  C   UNL     1     139.885 113.496 111.014  0.00  0.00    +0.000 C 
ATOM     20  C   UNL     1     142.682 117.325 110.721  0.00  0.00    +0.000 C 
ATOM     21  C   UNL     1     139.128 114.696 111.353  0.00  0.00    +0.000 C 
ATOM     22  C   UNL     1     139.762 112.968 109.617  0.00  0.00    +0.000 C 
ATOM     23  C   UNL     1     139.601 115.858 112.093  0.00  0.00    +0.000 C 
ATOM     24  C   UNL     1     140.261 110.438 109.902  0.00  0.00    +0.000 C 
ATOM     25  C   UNL     1     140.968 113.011 111.967  0.00  0.00    +0.000 C 
ATOM     26  C   UNL     1     138.679 116.698 112.938  0.00  0.00    +0.000 C 
ENDROOT
BRANCH   8  27
ATOM     27  O   UNL     1     147.456 114.754 110.405  0.00  0.00    +0.000 OA
ATOM     28  H   UNL     1     147.486 115.731 110.354  0.00  0.00    +0.000 HD
ENDBRANCH   8  27
BRANCH  10  29
ATOM     29  O   UNL     1     146.925 115.772 112.801  0.00  0.00    +0.000 OA
ATOM     30  H   UNL     1     147.648 115.118 112.823  0.00  0.00    +0.000 HD
ENDBRANCH  10  29
BRANCH  15  31
ATOM     31  O   UNL     1     140.138 112.192 106.135  0.00  0.00    +0.000 OA
ATOM     32  H   UNL     1     140.460 111.781 105.304  0.00  0.00    +0.000 HD
ENDBRANCH  15  31
BRANCH  16  33
ATOM     33  O   UNL     1     142.282 110.763 107.894  0.00  0.00    +0.000 OA
ATOM     34  C   UNL     1     143.570 111.068 108.370  0.00  0.00    +0.000 C 
ENDBRANCH  16  33
BRANCH  21  35
ATOM     35  O   UNL     1     137.742 114.617 111.062  0.00  0.00    +0.000 OA
BRANCH  35  37
ATOM     36  O   UNL     1     137.067 113.541 113.025  0.00  0.00    +0.000 OA
ATOM     37  C   UNL     1     137.093 113.688 111.817  0.00  0.00    +0.000 C 
ATOM     38  C   UNL     1     136.262 112.733 111.040  0.00  0.00    +0.000 C 
ENDBRANCH  35  37
ENDBRANCH  21  35
BRANCH   6  39
ATOM     39  C   UNL     1     145.157 115.880 107.545  0.00  0.00    +0.000 C 
BRANCH  39  41
ATOM     40  O   UNL     1     147.083 114.224 107.320  0.00  0.00    +0.000 OA
ATOM     41  C   UNL     1     146.474 115.488 106.969  0.00  0.00    +0.000 C 
ATOM     42  C   UNL     1     146.381 114.283 106.150  0.00  0.00    +0.000 C 
ATOM     43  C   UNL     1     147.592 116.579 106.806  0.00  0.00    +0.000 C 
BRANCH  42  44
ATOM     44  C   UNL     1     147.107 114.071 104.935  0.00  0.00    +0.000 C 
ATOM     45  C   UNL     1     146.529 114.528 103.615  0.00  0.00    +0.000 C 
BRANCH  44  46
ATOM     46  C   UNL     1     148.511 113.876 104.960  0.00  0.00    +0.000 C 
ATOM     47  C   UNL     1     149.694 113.686 105.023  0.00  0.00    +0.000 C 
ATOM     48  C   UNL     1     151.194 113.399 105.159  0.00  0.00    +0.000 C 
ENDBRANCH  44  46
ENDBRANCH  42  44
ENDBRANCH  39  41
BRANCH  39  49
ATOM     49  O   UNL     1     144.521 117.067 107.221  0.00  0.00    +0.000 OA
ATOM     50  H   UNL     1     143.566 117.082 107.424  0.00  0.00    +0.000 HD
ENDBRANCH  39  49
ENDBRANCH   6  39
BRANCH   8  51
ATOM     51  C   UNL     1     146.083 113.039 111.222  0.00  0.00    +0.000 C 
BRANCH  51  52
ATOM     52  O   UNL     1     146.076 111.741 111.527  0.00  0.00    +0.000 OA
ATOM     53  H   UNL     1     145.346 111.531 112.144  0.00  0.00    +0.000 HD
ENDBRANCH  51  52
ENDBRANCH   8  51
TORSDOF 13
ENDMDL
MODEL 2
REMARK VINA RESULT:      -5.8      2.191      8.795
REMARK  Name = 102471178_CandidaspongiolideCore.pdbqt.pdb
REMARK  13 active torsions:
REMARK  status: ('A' for Active; 'I' for Inactive)
REMARK    1  A    between atoms: C_6  and  C_39
REMARK    2  A    between atoms: C_8  and  O_27
REMARK    3  A    between atoms: C_8  and  C_51
REMARK    4  A    between atoms: C_10  and  O_29
REMARK    5  A    between atoms: C_15  and  O_31
REMARK    6  A    between atoms: C_16  and  O_33
REMARK    7  A    between atoms: C_21  and  O_35
REMARK    8  A    between atoms: O_35  and  C_37
REMARK    9  A    between atoms: C_39  and  C_41
REMARK   10  A    between atoms: C_39  and  O_49
REMARK   11  A    between atoms: C_42  and  C_44
REMARK   12  A    between atoms: C_44  and  C_46
REMARK   13  A    between atoms: C_51  and  O_52
REMARK                            x       y       z     vdW  Elec       q    Type
REMARK                         _______ _______ _______ _____ _____    ______ ____
ROOT
ATOM      1  O   UNL     1     143.876 114.751 112.262  0.00  0.00    +0.000 OA
ATOM      2  O   UNL     1     144.488 114.510 110.062  0.00  0.00    +0.000 OA
ATOM      3  O   UNL     1     143.996 114.874 105.156  0.00  0.00    +0.000 OA
ATOM      4  O   UNL     1     145.765 115.616 113.146  0.00  0.00    +0.000 OA
ATOM      5  O   UNL     1     147.831 114.153 110.701  0.00  0.00    +0.000 OA
ATOM      6  C   UNL     1     142.218 114.998 110.661  0.00  0.00    +0.000 C 
ATOM      7  C   UNL     1     141.560 114.455 109.523  0.00  0.00    +0.000 C 
ATOM      8  C   UNL     1     140.754 113.866 108.450  0.00  0.00    +0.000 C 
ATOM      9  C   UNL     1     143.656 114.733 110.932  0.00  0.00    +0.000 C 
ATOM     10  C   UNL     1     140.978 114.556 107.122  0.00  0.00    +0.000 C 
ATOM     11  C   UNL     1     142.247 114.968 106.635  0.00  0.00    +0.000 C 
ATOM     12  C   UNL     1     143.580 115.343 106.210  0.00  0.00    +0.000 C 
ATOM     13  C   UNL     1     145.167 114.676 112.637  0.00  0.00    +0.000 C 
ATOM     14  C   UNL     1     144.424 116.235 107.062  0.00  0.00    +0.000 C 
ATOM     15  C   UNL     1     145.748 113.311 112.699  0.00  0.00    +0.000 C 
ATOM     16  C   UNL     1     145.626 112.317 111.653  0.00  0.00    +0.000 C 
ATOM     17  C   UNL     1     146.532 112.161 110.522  0.00  0.00    +0.000 C 
ATOM     18  C   UNL     1     145.832 116.080 107.054  0.00  0.00    +0.000 C 
ATOM     19  C   UNL     1     147.073 113.651 108.508  0.00  0.00    +0.000 C 
ATOM     20  C   UNL     1     143.834 117.109 108.159  0.00  0.00    +0.000 C 
ATOM     21  C   UNL     1     147.691 114.866 107.988  0.00  0.00    +0.000 C 
ATOM     22  C   UNL     1     147.218 113.370 109.973  0.00  0.00    +0.000 C 
ATOM     23  C   UNL     1     147.105 115.829 107.067  0.00  0.00    +0.000 C 
ATOM     24  C   UNL     1     147.031 110.784 110.092  0.00  0.00    +0.000 C 
ATOM     25  C   UNL     1     146.082 112.894 107.636  0.00  0.00    +0.000 C 
ATOM     26  C   UNL     1     147.945 116.631 106.107  0.00  0.00    +0.000 C 
ENDROOT
BRANCH   8  27
ATOM     27  O   UNL     1     139.392 114.060 108.840  0.00  0.00    +0.000 OA
ATOM     28  H   UNL     1     139.321 113.605 109.703  0.00  0.00    +0.000 HD
ENDBRANCH   8  27
BRANCH  10  29
ATOM     29  O   UNL     1     139.866 114.744 106.317  0.00  0.00    +0.000 OA
ATOM     30  H   UNL     1     139.523 113.903 105.960  0.00  0.00    +0.000 HD
ENDBRANCH  10  29
BRANCH  15  31
ATOM     31  O   UNL     1     146.839 113.113 113.531  0.00  0.00    +0.000 OA
ATOM     32  H   UNL     1     146.646 113.444 114.434  0.00  0.00    +0.000 HD
ENDBRANCH  15  31
BRANCH  16  33
ATOM     33  O   UNL     1     144.930 111.174 112.004  0.00  0.00    +0.000 OA
ATOM     34  C   UNL     1     143.654 111.208 111.413  0.00  0.00    +0.000 C 
ENDBRANCH  16  33
BRANCH  21  35
ATOM     35  O   UNL     1     149.068 115.003 108.301  0.00  0.00    +0.000 OA
BRANCH  35  37
ATOM     36  O   UNL     1     149.913 113.786 106.489  0.00  0.00    +0.000 OA
ATOM     37  C   UNL     1     149.850 114.084 107.669  0.00  0.00    +0.000 C 
ATOM     38  C   UNL     1     150.796 113.362 108.559  0.00  0.00    +0.000 C 
ENDBRANCH  35  37
ENDBRANCH  21  35
BRANCH   6  39
ATOM     39  C   UNL     1     141.460 115.895 111.504  0.00  0.00    +0.000 C 
BRANCH  39  41
ATOM     40  O   UNL     1     139.648 114.131 111.835  0.00  0.00    +0.000 OA
ATOM     41  C   UNL     1     140.132 115.479 112.037  0.00  0.00    +0.000 C 
ATOM     42  C   UNL     1     140.246 114.415 113.031  0.00  0.00    +0.000 C 
ATOM     43  C   UNL     1     138.928 116.484 111.958  0.00  0.00    +0.000 C 
BRANCH  42  44
ATOM     44  C   UNL     1     139.440 114.318 114.210  0.00  0.00    +0.000 C 
ATOM     45  C   UNL     1     138.002 113.862 114.112  0.00  0.00    +0.000 C 
BRANCH  44  46
ATOM     46  C   UNL     1     140.043 114.186 115.486  0.00  0.00    +0.000 C 
ATOM     47  C   UNL     1     140.554 114.125 116.569  0.00  0.00    +0.000 C 
ATOM     48  C   UNL     1     141.195 114.116 117.963  0.00  0.00    +0.000 C 
ENDBRANCH  44  46
ENDBRANCH  42  44
ENDBRANCH  39  41
BRANCH  39  49
ATOM     49  O   UNL     1     141.994 117.154 111.721  0.00  0.00    +0.000 OA
ATOM     50  H   UNL     1     142.610 117.206 112.477  0.00  0.00    +0.000 HD
ENDBRANCH  39  49
ENDBRANCH   6  39
BRANCH   8  51
ATOM     51  C   UNL     1     140.981 112.417 108.321  0.00  0.00    +0.000 C 
BRANCH  51  52
ATOM     52  O   UNL     1     141.225 111.110 108.224  0.00  0.00    +0.000 OA
ATOM     53  H   UNL     1     141.896 110.929 107.535  0.00  0.00    +0.000 HD
ENDBRANCH  51  52
ENDBRANCH   8  51
TORSDOF 13
ENDMDL
MODEL 3
REMARK VINA RESULT:      -5.6      2.233      8.090
REMARK  Name = 102471178_CandidaspongiolideCore.pdbqt.pdb
REMARK  13 active torsions:
REMARK  status: ('A' for Active; 'I' for Inactive)
REMARK    1  A    between atoms: C_6  and  C_39
REMARK    2  A    between atoms: C_8  and  O_27
REMARK    3  A    between atoms: C_8  and  C_51
REMARK    4  A    between atoms: C_10  and  O_29
REMARK    5  A    between atoms: C_15  and  O_31
REMARK    6  A    between atoms: C_16  and  O_33
REMARK    7  A    between atoms: C_21  and  O_35
REMARK    8  A    between atoms: O_35  and  C_37
REMARK    9  A    between atoms: C_39  and  C_41
REMARK   10  A    between atoms: C_39  and  O_49
REMARK   11  A    between atoms: C_42  and  C_44
REMARK   12  A    between atoms: C_44  and  C_46
REMARK   13  A    between atoms: C_51  and  O_52
REMARK                            x       y       z     vdW  Elec       q    Type
REMARK                         _______ _______ _______ _____ _____    ______ ____
ROOT
ATOM      1  O   UNL     1     140.767 113.180 108.877  0.00  0.00    +0.000 OA
ATOM      2  O   UNL     1     142.914 113.561 109.600  0.00  0.00    +0.000 OA
ATOM      3  O   UNL     1     146.448 115.350 112.558  0.00  0.00    +0.000 OA
ATOM      4  O   UNL     1     140.834 110.961 108.465  0.00  0.00    +0.000 OA
ATOM      5  O   UNL     1     144.300 110.965 107.853  0.00  0.00    +0.000 OA
ATOM      6  C   UNL     1     141.081 114.850 110.453  0.00  0.00    +0.000 C 
ATOM      7  C   UNL     1     141.787 116.027 110.829  0.00  0.00    +0.000 C 
ATOM      8  C   UNL     1     142.372 117.322 111.186  0.00  0.00    +0.000 C 
ATOM      9  C   UNL     1     141.712 113.797 109.616  0.00  0.00    +0.000 C 
ATOM     10  C   UNL     1     143.355 117.208 112.331  0.00  0.00    +0.000 C 
ATOM     11  C   UNL     1     144.307 116.164 112.473  0.00  0.00    +0.000 C 
ATOM     12  C   UNL     1     145.254 115.071 112.532  0.00  0.00    +0.000 C 
ATOM     13  C   UNL     1     141.184 112.102 108.187  0.00  0.00    +0.000 C 
ATOM     14  C   UNL     1     144.779 113.654 112.514  0.00  0.00    +0.000 C 
ATOM     15  C   UNL     1     141.830 112.377 106.879  0.00  0.00    +0.000 C 
ATOM     16  C   UNL     1     142.878 113.355 106.669  0.00  0.00    +0.000 C 
ATOM     17  C   UNL     1     144.307 113.112 106.813  0.00  0.00    +0.000 C 
ATOM     18  C   UNL     1     145.584 112.654 111.917  0.00  0.00    +0.000 C 
ATOM     19  C   UNL     1     145.779 112.542 108.833  0.00  0.00    +0.000 C 
ATOM     20  C   UNL     1     143.343 113.273 112.846  0.00  0.00    +0.000 C 
ATOM     21  C   UNL     1     146.182 111.574 109.847  0.00  0.00    +0.000 C 
ATOM     22  C   UNL     1     144.771 112.104 107.815  0.00  0.00    +0.000 C 
ATOM     23  C   UNL     1     146.328 111.804 111.278  0.00  0.00    +0.000 C 
ATOM     24  C   UNL     1     145.305 113.617 105.776  0.00  0.00    +0.000 C 
ATOM     25  C   UNL     1     146.154 114.006 109.018  0.00  0.00    +0.000 C 
ATOM     26  C   UNL     1     147.316 111.033 112.115  0.00  0.00    +0.000 C 
ENDROOT
BRANCH   8  27
ATOM     27  O   UNL     1     141.277 118.140 111.604  0.00  0.00    +0.000 OA
ATOM     28  H   UNL     1     141.699 118.961 111.930  0.00  0.00    +0.000 HD
ENDBRANCH   8  27
BRANCH  10  29
ATOM     29  O   UNL     1     143.345 118.228 113.270  0.00  0.00    +0.000 OA
ATOM     30  H   UNL     1     143.130 117.905 114.164  0.00  0.00    +0.000 HD
ENDBRANCH  10  29
BRANCH  15  31
ATOM     31  O   UNL     1     141.811 111.370 105.927  0.00  0.00    +0.000 OA
ATOM     32  H   UNL     1     142.366 111.616 105.156  0.00  0.00    +0.000 HD
ENDBRANCH  15  31
BRANCH  16  33
ATOM     33  O   UNL     1     142.547 114.400 105.825  0.00  0.00    +0.000 OA
ATOM     34  C   UNL     1     142.680 115.617 106.517  0.00  0.00    +0.000 C 
ENDBRANCH  16  33
BRANCH  21  35
ATOM     35  O   UNL     1     146.634 110.334 109.327  0.00  0.00    +0.000 OA
BRANCH  35  37
ATOM     36  O   UNL     1     148.857 110.939 108.924  0.00  0.00    +0.000 OA
ATOM     37  C   UNL     1     147.787 110.447 108.612  0.00  0.00    +0.000 C 
ATOM     38  C   UNL     1     147.735 109.842 107.256  0.00  0.00    +0.000 C 
ENDBRANCH  35  37
ENDBRANCH  21  35
BRANCH   6  39
ATOM     39  C   UNL     1     139.751 114.671 110.990  0.00  0.00    +0.000 C 
BRANCH  39  41
ATOM     40  O   UNL     1     140.284 115.519 113.336  0.00  0.00    +0.000 OA
ATOM     41  C   UNL     1     139.536 114.640 112.464  0.00  0.00    +0.000 C 
ATOM     42  C   UNL     1     139.025 115.909 112.974  0.00  0.00    +0.000 C 
ATOM     43  C   UNL     1     139.323 113.256 113.176  0.00  0.00    +0.000 C 
BRANCH  42  44
ATOM     44  C   UNL     1     138.049 116.031 114.014  0.00  0.00    +0.000 C 
ATOM     45  C   UNL     1     138.479 116.035 115.463  0.00  0.00    +0.000 C 
BRANCH  44  46
ATOM     46  C   UNL     1     136.777 116.598 113.746  0.00  0.00    +0.000 C 
ATOM     47  C   UNL     1     135.682 117.044 113.548  0.00  0.00    +0.000 C 
ATOM     48  C   UNL     1     134.256 117.573 113.349  0.00  0.00    +0.000 C 
ENDBRANCH  44  46
ENDBRANCH  42  44
ENDBRANCH  39  41
BRANCH  39  49
ATOM     49  O   UNL     1     138.729 114.466 110.078  0.00  0.00    +0.000 OA
ATOM     50  H   UNL     1     137.836 114.660 110.422  0.00  0.00    +0.000 HD
ENDBRANCH  39  49
ENDBRANCH   6  39
BRANCH   8  51
ATOM     51  C   UNL     1     143.006 117.978 110.031  0.00  0.00    +0.000 C 
BRANCH  51  52
ATOM     52  O   UNL     1     143.552 118.551 108.957  0.00  0.00    +0.000 OA
ATOM     53  H   UNL     1     143.997 117.886 108.395  0.00  0.00    +0.000 HD
ENDBRANCH  51  52
ENDBRANCH   8  51
TORSDOF 13
ENDMDL
MODEL 4
REMARK VINA RESULT:      -5.6      2.558      6.419
REMARK  Name = 102471178_CandidaspongiolideCore.pdbqt.pdb
REMARK  13 active torsions:
REMARK  status: ('A' for Active; 'I' for Inactive)
REMARK    1  A    between atoms: C_6  and  C_39
REMARK    2  A    between atoms: C_8  and  O_27
REMARK    3  A    between atoms: C_8  and  C_51
REMARK    4  A    between atoms: C_10  and  O_29
REMARK    5  A    between atoms: C_15  and  O_31
REMARK    6  A    between atoms: C_16  and  O_33
REMARK    7  A    between atoms: C_21  and  O_35
REMARK    8  A    between atoms: O_35  and  C_37
REMARK    9  A    between atoms: C_39  and  C_41
REMARK   10  A    between atoms: C_39  and  O_49
REMARK   11  A    between atoms: C_42  and  C_44
REMARK   12  A    between atoms: C_44  and  C_46
REMARK   13  A    between atoms: C_51  and  O_52
REMARK                            x       y       z     vdW  Elec       q    Type
REMARK                         _______ _______ _______ _____ _____    ______ ____
ROOT
ATOM      1  O   UNL     1     146.059 112.135 109.801  0.00  0.00    +0.000 OA
ATOM      2  O   UNL     1     144.837 113.191 108.168  0.00  0.00    +0.000 OA
ATOM      3  O   UNL     1     143.841 114.866 103.624  0.00  0.00    +0.000 OA
ATOM      4  O   UNL     1     144.476 110.843 110.762  0.00  0.00    +0.000 OA
ATOM      5  O   UNL     1     141.853 112.998 109.832  0.00  0.00    +0.000 OA
ATOM      6  C   UNL     1     147.156 112.682 107.834  0.00  0.00    +0.000 C 
ATOM      7  C   UNL     1     147.474 113.686 106.878  0.00  0.00    +0.000 C 
ATOM      8  C   UNL     1     147.956 114.717 105.954  0.00  0.00    +0.000 C 
ATOM      9  C   UNL     1     145.877 112.703 108.591  0.00  0.00    +0.000 C 
ATOM     10  C   UNL     1     147.316 114.603 104.588  0.00  0.00    +0.000 C 
ATOM     11  C   UNL     1     145.942 114.323 104.364  0.00  0.00    +0.000 C 
ATOM     12  C   UNL     1     144.527 114.048 104.228  0.00  0.00    +0.000 C 
ATOM     13  C   UNL     1     144.941 111.953 110.529  0.00  0.00    +0.000 C 
ATOM     14  C   UNL     1     143.930 112.826 104.848  0.00  0.00    +0.000 C 
ATOM     15  C   UNL     1     144.471 113.127 111.305  0.00  0.00    +0.000 C 
ATOM     16  C   UNL     1     144.326 114.464 110.766  0.00  0.00    +0.000 C 
ATOM     17  C   UNL     1     143.136 114.990 110.111  0.00  0.00    +0.000 C 
ATOM     18  C   UNL     1     142.592 112.860 105.310  0.00  0.00    +0.000 C 
ATOM     19  C   UNL     1     141.953 114.396 107.916  0.00  0.00    +0.000 C 
ATOM     20  C   UNL     1     144.774 111.633 105.274  0.00  0.00    +0.000 C 
ATOM     21  C   UNL     1     141.151 113.448 107.150  0.00  0.00    +0.000 C 
ATOM     22  C   UNL     1     142.261 114.053 109.342  0.00  0.00    +0.000 C 
ATOM     23  C   UNL     1     141.392 112.984 105.791  0.00  0.00    +0.000 C 
ATOM     24  C   UNL     1     142.599 116.379 110.441  0.00  0.00    +0.000 C 
ATOM     25  C   UNL     1     142.678 115.515 107.181  0.00  0.00    +0.000 C 
ATOM     26  C   UNL     1     140.269 112.572 104.875  0.00  0.00    +0.000 C 
ENDROOT
BRANCH   8  27
ATOM     27  O   UNL     1     149.361 114.491 105.820  0.00  0.00    +0.000 OA
ATOM     28  H   UNL     1     149.447 114.001 104.977  0.00  0.00    +0.000 HD
ENDBRANCH   8  27
BRANCH  10  29
ATOM     29  O   UNL     1     148.131 114.842 103.492  0.00  0.00    +0.000 OA
ATOM     30  H   UNL     1     148.589 115.701 103.552  0.00  0.00    +0.000 HD
ENDBRANCH  10  29
BRANCH  15  31
ATOM     31  O   UNL     1     143.685 112.889 112.421  0.00  0.00    +0.000 OA
ATOM     32  H   UNL     1     143.059 112.154 112.249  0.00  0.00    +0.000 HD
ENDBRANCH  15  31
BRANCH  16  33
ATOM     33  O   UNL     1     145.149 115.420 111.334  0.00  0.00    +0.000 OA
ATOM     34  C   UNL     1     146.418 114.861 111.568  0.00  0.00    +0.000 C 
ENDBRANCH  16  33
BRANCH  21  35
ATOM     35  O   UNL     1     139.923 113.090 107.763  0.00  0.00    +0.000 OA
BRANCH  35  37
ATOM     36  O   UNL     1     138.620 114.833 106.905  0.00  0.00    +0.000 OA
ATOM     37  C   UNL     1     139.030 114.116 107.801  0.00  0.00    +0.000 C 
ATOM     38  C   UNL     1     138.440 114.372 109.140  0.00  0.00    +0.000 C 
ENDBRANCH  35  37
ENDBRANCH  21  35
BRANCH   6  39
ATOM     39  C   UNL     1     148.086 111.585 107.981  0.00  0.00    +0.000 C 
BRANCH  39  41
ATOM     40  O   UNL     1     148.286 109.044 107.903  0.00  0.00    +0.000 OA
ATOM     41  C   UNL     1     147.817 110.280 107.315  0.00  0.00    +0.000 C 
ATOM     42  C   UNL     1     146.988 109.402 108.136  0.00  0.00    +0.000 C 
ATOM     43  C   UNL     1     147.917 110.186 105.751  0.00  0.00    +0.000 C 
BRANCH  42  44
ATOM     44  C   UNL     1     145.965 108.542 107.624  0.00  0.00    +0.000 C 
ATOM     45  C   UNL     1     146.211 107.055 107.509  0.00  0.00    +0.000 C 
BRANCH  44  46
ATOM     46  C   UNL     1     144.605 108.943 107.654  0.00  0.00    +0.000 C 
ATOM     47  C   UNL     1     143.466 109.314 107.714  0.00  0.00    +0.000 C 
ATOM     48  C   UNL     1     142.032 109.843 107.833  0.00  0.00    +0.000 C 
ENDBRANCH  44  46
ENDBRANCH  42  44
ENDBRANCH  39  41
BRANCH  39  49
ATOM     49  O   UNL     1     149.174 111.793 108.812  0.00  0.00    +0.000 OA
ATOM     50  H   UNL     1     149.847 111.086 108.782  0.00  0.00    +0.000 HD
ENDBRANCH  39  49
ENDBRANCH   6  39
BRANCH   8  51
ATOM     51  C   UNL     1     147.770 116.073 106.496  0.00  0.00    +0.000 C 
BRANCH  51  52
ATOM     52  O   UNL     1     147.570 117.286 107.012  0.00  0.00    +0.000 OA
ATOM     53  H   UNL     1     147.300 117.227 107.951  0.00  0.00    +0.000 HD
ENDBRANCH  51  52
ENDBRANCH   8  51
TORSDOF 13
ENDMDL
MODEL 5
REMARK VINA RESULT:      -5.6      3.799      8.446
REMARK  Name = 102471178_CandidaspongiolideCore.pdbqt.pdb
REMARK  13 active torsions:
REMARK  status: ('A' for Active; 'I' for Inactive)
REMARK    1  A    between atoms: C_6  and  C_39
REMARK    2  A    between atoms: C_8  and  O_27
REMARK    3  A    between atoms: C_8  and  C_51
REMARK    4  A    between atoms: C_10  and  O_29
REMARK    5  A    between atoms: C_15  and  O_31
REMARK    6  A    between atoms: C_16  and  O_33
REMARK    7  A    between atoms: C_21  and  O_35
REMARK    8  A    between atoms: O_35  and  C_37
REMARK    9  A    between atoms: C_39  and  C_41
REMARK   10  A    between atoms: C_39  and  O_49
REMARK   11  A    between atoms: C_42  and  C_44
REMARK   12  A    between atoms: C_44  and  C_46
REMARK   13  A    between atoms: C_51  and  O_52
REMARK                            x       y       z     vdW  Elec       q    Type
REMARK                         _______ _______ _______ _____ _____    ______ ____
ROOT
ATOM      1  O   UNL     1     143.396 111.779 112.931  0.00  0.00    +0.000 OA
ATOM      2  O   UNL     1     145.687 111.948 112.941  0.00  0.00    +0.000 OA
ATOM      3  O   UNL     1     150.092 113.877 111.796  0.00  0.00    +0.000 OA
ATOM      4  O   UNL     1     142.974 111.481 115.129  0.00  0.00    +0.000 OA
ATOM      5  O   UNL     1     146.131 110.061 115.761  0.00  0.00    +0.000 OA
ATOM      6  C   UNL     1     144.371 113.144 111.332  0.00  0.00    +0.000 C 
ATOM      7  C   UNL     1     145.341 113.278 110.300  0.00  0.00    +0.000 C 
ATOM      8  C   UNL     1     146.212 113.415 109.130  0.00  0.00    +0.000 C 
ATOM      9  C   UNL     1     144.586 112.237 112.490  0.00  0.00    +0.000 C 
ATOM     10  C   UNL     1     147.409 114.298 109.409  0.00  0.00    +0.000 C 
ATOM     11  C   UNL     1     148.171 114.263 110.608  0.00  0.00    +0.000 C 
ATOM     12  C   UNL     1     148.899 114.152 111.854  0.00  0.00    +0.000 C 
ATOM     13  C   UNL     1     143.437 111.067 114.073  0.00  0.00    +0.000 C 
ATOM     14  C   UNL     1     148.194 114.323 113.161  0.00  0.00    +0.000 C 
ATOM     15  C   UNL     1     143.783 109.631 113.933  0.00  0.00    +0.000 C 
ATOM     16  C   UNL     1     144.901 109.125 113.163  0.00  0.00    +0.000 C 
ATOM     17  C   UNL     1     146.257 108.937 113.661  0.00  0.00    +0.000 C 
ATOM     18  C   UNL     1     148.642 113.605 114.296  0.00  0.00    +0.000 C 
ATOM     19  C   UNL     1     148.056 110.575 114.470  0.00  0.00    +0.000 C 
ATOM     20  C   UNL     1     146.839 115.008 113.272  0.00  0.00    +0.000 C 
ATOM     21  C   UNL     1     148.519 111.513 115.486  0.00  0.00    +0.000 C 
ATOM     22  C   UNL     1     146.769 109.850 114.727  0.00  0.00    +0.000 C 
ATOM     23  C   UNL     1     149.048 112.853 115.273  0.00  0.00    +0.000 C 
ATOM     24  C   UNL     1     147.044 107.666 113.354  0.00  0.00    +0.000 C 
ATOM     25  C   UNL     1     148.713 110.586 113.097  0.00  0.00    +0.000 C 
ATOM     26  C   UNL     1     150.061 113.470 116.203  0.00  0.00    +0.000 C 
ENDROOT
BRANCH   8  27
ATOM     27  O   UNL     1     145.412 114.039 108.122  0.00  0.00    +0.000 OA
ATOM     28  H   UNL     1     145.620 114.991 108.204  0.00  0.00    +0.000 HD
ENDBRANCH   8  27
BRANCH  10  29
ATOM     29  O   UNL     1     147.807 115.156 108.396  0.00  0.00    +0.000 OA
ATOM     30  H   UNL     1     148.626 114.856 107.959  0.00  0.00    +0.000 HD
ENDBRANCH  10  29
BRANCH  15  31
ATOM     31  O   UNL     1     143.356 108.765 114.928  0.00  0.00    +0.000 OA
ATOM     32  H   UNL     1     144.123 108.313 115.341  0.00  0.00    +0.000 HD
ENDBRANCH  15  31
BRANCH  16  33
ATOM     33  O   UNL     1     144.560 108.330 112.083  0.00  0.00    +0.000 OA
ATOM     34  C   UNL     1     144.717 109.067 110.896  0.00  0.00    +0.000 C 
ENDBRANCH  16  33
BRANCH  21  35
ATOM     35  O   UNL     1     148.607 110.966 116.792  0.00  0.00    +0.000 OA
BRANCH  35  37
ATOM     36  O   UNL     1     150.737 110.016 116.608  0.00  0.00    +0.000 OA
ATOM     37  C   UNL     1     149.554 109.993 116.897  0.00  0.00    +0.000 C 
ATOM     38  C   UNL     1     149.068 108.721 117.491  0.00  0.00    +0.000 C 
ENDBRANCH  35  37
ENDBRANCH  21  35
BRANCH   6  39
ATOM     39  C   UNL     1     143.203 113.992 111.261  0.00  0.00    +0.000 C 
BRANCH  39  41
ATOM     40  O   UNL     1     144.083 116.346 111.689  0.00  0.00    +0.000 OA
ATOM     41  C   UNL     1     143.163 115.278 112.012  0.00  0.00    +0.000 C 
ATOM     42  C   UNL     1     142.829 116.409 111.151  0.00  0.00    +0.000 C 
ATOM     43  C   UNL     1     142.918 115.250 113.563  0.00  0.00    +0.000 C 
BRANCH  42  44
ATOM     44  C   UNL     1     141.998 117.507 111.542  0.00  0.00    +0.000 C 
ATOM     45  C   UNL     1     142.466 118.928 111.325  0.00  0.00    +0.000 C 
BRANCH  44  46
ATOM     46  C   UNL     1     140.599 117.334 111.693  0.00  0.00    +0.000 C 
ATOM     47  C   UNL     1     139.425 117.157 111.859  0.00  0.00    +0.000 C 
ATOM     48  C   UNL     1     137.938 116.897 112.132  0.00  0.00    +0.000 C 
ENDBRANCH  44  46
ENDBRANCH  42  44
ENDBRANCH  39  41
BRANCH  39  49
ATOM     49  O   UNL     1     142.126 113.515 110.531  0.00  0.00    +0.000 OA
ATOM     50  H   UNL     1     141.272 113.547 111.004  0.00  0.00    +0.000 HD
ENDBRANCH  39  49
ENDBRANCH   6  39
BRANCH   8  51
ATOM     51  C   UNL     1     146.649 112.109 108.610  0.00  0.00    +0.000 C 
BRANCH  51  52
ATOM     52  O   UNL     1     147.003 110.919 108.122  0.00  0.00    +0.000 OA
ATOM     53  H   UNL     1     147.798 110.577 108.579  0.00  0.00    +0.000 HD
ENDBRANCH  51  52
ENDBRANCH   8  51
TORSDOF 13
ENDMDL
MODEL 6
REMARK VINA RESULT:      -5.6      8.184     11.894
REMARK  Name = 102471178_CandidaspongiolideCore.pdbqt.pdb
REMARK  13 active torsions:
REMARK  status: ('A' for Active; 'I' for Inactive)
REMARK    1  A    between atoms: C_6  and  C_39
REMARK    2  A    between atoms: C_8  and  O_27
REMARK    3  A    between atoms: C_8  and  C_51
REMARK    4  A    between atoms: C_10  and  O_29
REMARK    5  A    between atoms: C_15  and  O_31
REMARK    6  A    between atoms: C_16  and  O_33
REMARK    7  A    between atoms: C_21  and  O_35
REMARK    8  A    between atoms: O_35  and  C_37
REMARK    9  A    between atoms: C_39  and  C_41
REMARK   10  A    between atoms: C_39  and  O_49
REMARK   11  A    between atoms: C_42  and  C_44
REMARK   12  A    between atoms: C_44  and  C_46
REMARK   13  A    between atoms: C_51  and  O_52
REMARK                            x       y       z     vdW  Elec       q    Type
REMARK                         _______ _______ _______ _____ _____    ______ ____
ROOT
ATOM      1  O   UNL     1     137.044 114.938 100.051  0.00  0.00    +0.000 OA
ATOM      2  O   UNL     1     137.765 113.316 101.509  0.00  0.00    +0.000 OA
ATOM      3  O   UNL     1     140.102 109.187 102.897  0.00  0.00    +0.000 OA
ATOM      4  O   UNL     1     137.555 116.813 101.200  0.00  0.00    +0.000 OA
ATOM      5  O   UNL     1     137.336 115.211 104.326  0.00  0.00    +0.000 OA
ATOM      6  C   UNL     1     137.851 112.967  99.138  0.00  0.00    +0.000 C 
ATOM      7  C   UNL     1     137.797 111.545  99.115  0.00  0.00    +0.000 C 
ATOM      8  C   UNL     1     137.667 110.096  98.944  0.00  0.00    +0.000 C 
ATOM      9  C   UNL     1     137.567 113.738 100.376  0.00  0.00    +0.000 C 
ATOM     10  C   UNL     1     138.854 109.345  99.507  0.00  0.00    +0.000 C 
ATOM     11  C   UNL     1     139.491 109.656 100.738  0.00  0.00    +0.000 C 
ATOM     12  C   UNL     1     140.072 110.033 102.010  0.00  0.00    +0.000 C 
ATOM     13  C   UNL     1     136.882 115.797 101.075  0.00  0.00    +0.000 C 
ATOM     14  C   UNL     1     140.570 111.424 102.232  0.00  0.00    +0.000 C 
ATOM     15  C   UNL     1     135.644 115.629 101.876  0.00  0.00    +0.000 C 
ATOM     16  C   UNL     1     135.167 114.364 102.398  0.00  0.00    +0.000 C 
ATOM     17  C   UNL     1     135.536 113.784 103.682  0.00  0.00    +0.000 C 
ATOM     18  C   UNL     1     140.501 111.993 103.527  0.00  0.00    +0.000 C 
ATOM     19  C   UNL     1     137.751 112.892 104.616  0.00  0.00    +0.000 C 
ATOM     20  C   UNL     1     140.883 112.371 101.082  0.00  0.00    +0.000 C 
ATOM     21  C   UNL     1     139.100 113.166 105.097  0.00  0.00    +0.000 C 
ATOM     22  C   UNL     1     136.896 114.063 104.238  0.00  0.00    +0.000 C 
ATOM     23  C   UNL     1     140.329 112.484 104.716  0.00  0.00    +0.000 C 
ATOM     24  C   UNL     1     134.487 113.170 104.604  0.00  0.00    +0.000 C 
ATOM     25  C   UNL     1     137.376 111.465 104.240  0.00  0.00    +0.000 C 
ATOM     26  C   UNL     1     141.496 112.351 105.660  0.00  0.00    +0.000 C 
ENDROOT
BRANCH   8  27
ATOM     27  O   UNL     1     137.616 109.876  97.533  0.00  0.00    +0.000 OA
ATOM     28  H   UNL     1     138.105 109.038  97.401  0.00  0.00    +0.000 HD
ENDBRANCH   8  27
BRANCH  10  29
ATOM     29  O   UNL     1     139.305 108.251  98.785  0.00  0.00    +0.000 OA
ATOM     30  H   UNL     1     139.772 107.605  99.347  0.00  0.00    +0.000 HD
ENDBRANCH  10  29
BRANCH  15  31
ATOM     31  O   UNL     1     135.172 116.731 102.571  0.00  0.00    +0.000 OA
ATOM     32  H   UNL     1     134.904 116.474 103.479  0.00  0.00    +0.000 HD
ENDBRANCH  15  31
BRANCH  16  33
ATOM     33  O   UNL     1     133.950 113.942 101.895  0.00  0.00    +0.000 OA
ATOM     34  C   UNL     1     134.164 112.905 100.969  0.00  0.00    +0.000 C 
ENDBRANCH  16  33
BRANCH  21  35
ATOM     35  O   UNL     1     139.161 114.086 106.175  0.00  0.00    +0.000 OA
BRANCH  35  37
ATOM     36  O   UNL     1     138.798 112.578 107.926  0.00  0.00    +0.000 OA
ATOM     37  C   UNL     1     138.586 113.610 107.314  0.00  0.00    +0.000 C 
ATOM     38  C   UNL     1     137.570 114.511 107.916  0.00  0.00    +0.000 C 
ENDBRANCH  35  37
ENDBRANCH  21  35
BRANCH   6  39
ATOM     39  C   UNL     1     138.281 113.635  97.931  0.00  0.00    +0.000 C 
BRANCH  39  41
ATOM     40  O   UNL     1     137.744 114.197  95.502  0.00  0.00    +0.000 OA
ATOM     41  C   UNL     1     137.299 113.946  96.855  0.00  0.00    +0.000 C 
ATOM     42  C   UNL     1     137.301 112.939  95.798  0.00  0.00    +0.000 C 
ATOM     43  C   UNL     1     136.075 114.875  97.183  0.00  0.00    +0.000 C 
BRANCH  42  44
ATOM     44  C   UNL     1     136.130 112.476  95.117  0.00  0.00    +0.000 C 
ATOM     45  C   UNL     1     135.179 111.523  95.804  0.00  0.00    +0.000 C 
BRANCH  44  46
ATOM     46  C   UNL     1     135.591 113.210  94.031  0.00  0.00    +0.000 C 
ATOM     47  C   UNL     1     135.100 113.849  93.142  0.00  0.00    +0.000 C 
ATOM     48  C   UNL     1     134.431 114.699  92.054  0.00  0.00    +0.000 C 
ENDBRANCH  44  46
ENDBRANCH  42  44
ENDBRANCH  39  41
BRANCH  39  49
ATOM     49  O   UNL     1     139.635 113.899  97.809  0.00  0.00    +0.000 OA
ATOM     50  H   UNL     1     140.096 114.050  98.656  0.00  0.00    +0.000 HD
ENDBRANCH  39  49
ENDBRANCH   6  39
BRANCH   8  51
ATOM     51  C   UNL     1     136.414 109.582  99.523  0.00  0.00    +0.000 C 
BRANCH  51  52
ATOM     52  O   UNL     1     135.257 109.142 100.019  0.00  0.00    +0.000 OA
ATOM     53  H   UNL     1     134.572 109.841  99.981  0.00  0.00    +0.000 HD
ENDBRANCH  51  52
ENDBRANCH   8  51
TORSDOF 13
ENDMDL
MODEL 7
REMARK VINA RESULT:      -5.4      2.416      4.012
REMARK  Name = 102471178_CandidaspongiolideCore.pdbqt.pdb
REMARK  13 active torsions:
REMARK  status: ('A' for Active; 'I' for Inactive)
REMARK    1  A    between atoms: C_6  and  C_39
REMARK    2  A    between atoms: C_8  and  O_27
REMARK    3  A    between atoms: C_8  and  C_51
REMARK    4  A    between atoms: C_10  and  O_29
REMARK    5  A    between atoms: C_15  and  O_31
REMARK    6  A    between atoms: C_16  and  O_33
REMARK    7  A    between atoms: C_21  and  O_35
REMARK    8  A    between atoms: O_35  and  C_37
REMARK    9  A    between atoms: C_39  and  C_41
REMARK   10  A    between atoms: C_39  and  O_49
REMARK   11  A    between atoms: C_42  and  C_44
REMARK   12  A    between atoms: C_44  and  C_46
REMARK   13  A    between atoms: C_51  and  O_52
REMARK                            x       y       z     vdW  Elec       q    Type
REMARK                         _______ _______ _______ _____ _____    ______ ____
ROOT
ATOM      1  O   UNL     1     142.891 110.832 109.536  0.00  0.00    +0.000 OA
ATOM      2  O   UNL     1     142.545 112.555 111.015  0.00  0.00    +0.000 OA
ATOM      3  O   UNL     1     143.492 116.856 113.260  0.00  0.00    +0.000 OA
ATOM      4  O   UNL     1     140.826 110.595 108.654  0.00  0.00    +0.000 OA
ATOM      5  O   UNL     1     139.227 111.883 111.513  0.00  0.00    +0.000 OA
ATOM      6  C   UNL     1     144.660 112.279 109.919  0.00  0.00    +0.000 C 
ATOM      7  C   UNL     1     145.496 112.925 110.872  0.00  0.00    +0.000 C 
ATOM      8  C   UNL     1     146.478 113.489 111.802  0.00  0.00    +0.000 C 
ATOM      9  C   UNL     1     143.248 111.933 110.228  0.00  0.00    +0.000 C 
ATOM     10  C   UNL     1     146.306 114.982 111.979  0.00  0.00    +0.000 C 
ATOM     11  C   UNL     1     145.051 115.637 112.105  0.00  0.00    +0.000 C 
ATOM     12  C   UNL     1     143.734 116.221 112.240  0.00  0.00    +0.000 C 
ATOM     13  C   UNL     1     141.588 110.499 109.608  0.00  0.00    +0.000 C 
ATOM     14  C   UNL     1     142.699 116.008 111.182  0.00  0.00    +0.000 C 
ATOM     15  C   UNL     1     141.183 109.713 110.800  0.00  0.00    +0.000 C 
ATOM     16  C   UNL     1     141.537 110.046 112.164  0.00  0.00    +0.000 C 
ATOM     17  C   UNL     1     140.781 110.924 113.047  0.00  0.00    +0.000 C 
ATOM     18  C   UNL     1     141.331 115.955 111.543  0.00  0.00    +0.000 C 
ATOM     19  C   UNL     1     140.265 113.434 112.980  0.00  0.00    +0.000 C 
ATOM     20  C   UNL     1     143.056 115.555 109.773  0.00  0.00    +0.000 C 
ATOM     21  C   UNL     1     139.554 114.543 112.352  0.00  0.00    +0.000 C 
ATOM     22  C   UNL     1     140.007 112.055 112.452  0.00  0.00    +0.000 C 
ATOM     23  C   UNL     1     140.105 115.830 111.952  0.00  0.00    +0.000 C 
ATOM     24  C   UNL     1     140.508 110.543 114.500  0.00  0.00    +0.000 C 
ATOM     25  C   UNL     1     141.429 113.735 113.913  0.00  0.00    +0.000 C 
ATOM     26  C   UNL     1     139.274 117.086 111.939  0.00  0.00    +0.000 C 
ENDROOT
BRANCH   8  27
ATOM     27  O   UNL     1     147.756 113.244 111.211  0.00  0.00    +0.000 OA
ATOM     28  H   UNL     1     147.663 112.366 110.789  0.00  0.00    +0.000 HD
ENDBRANCH   8  27
BRANCH  10  29
ATOM     29  O   UNL     1     147.462 115.740 112.074  0.00  0.00    +0.000 OA
ATOM     30  H   UNL     1     147.622 116.058 112.982  0.00  0.00    +0.000 HD
ENDBRANCH  10  29
BRANCH  15  31
ATOM     31  O   UNL     1     140.046 108.927 110.697  0.00  0.00    +0.000 OA
ATOM     32  H   UNL     1     140.290 107.979 110.624  0.00  0.00    +0.000 HD
ENDBRANCH  15  31
BRANCH  16  33
ATOM     33  O   UNL     1     142.333 109.116 112.809  0.00  0.00    +0.000 OA
ATOM     34  C   UNL     1     143.655 109.592 112.861  0.00  0.00    +0.000 C 
ENDBRANCH  16  33
BRANCH  21  35
ATOM     35  O   UNL     1     138.147 114.379 112.296  0.00  0.00    +0.000 OA
BRANCH  35  37
ATOM     36  O   UNL     1     137.633 115.183 114.432  0.00  0.00    +0.000 OA
ATOM     37  C   UNL     1     137.563 114.371 113.527  0.00  0.00    +0.000 C 
ATOM     38  C   UNL     1     136.678 113.206 113.782  0.00  0.00    +0.000 C 
ENDBRANCH  35  37
ENDBRANCH  21  35
BRANCH   6  39
ATOM     39  C   UNL     1     145.208 112.049 108.601  0.00  0.00    +0.000 C 
BRANCH  39  41
ATOM     40  O   UNL     1     144.776 112.463 106.122  0.00  0.00    +0.000 OA
ATOM     41  C   UNL     1     144.865 112.963 107.477  0.00  0.00    +0.000 C 
ATOM     42  C   UNL     1     143.611 112.591 106.826  0.00  0.00    +0.000 C 
ATOM     43  C   UNL     1     145.468 114.413 107.459  0.00  0.00    +0.000 C 
BRANCH  42  44
ATOM     44  C   UNL     1     142.645 113.526 106.334  0.00  0.00    +0.000 C 
ATOM     45  C   UNL     1     142.628 113.901 104.871  0.00  0.00    +0.000 C 
BRANCH  44  46
ATOM     46  C   UNL     1     141.440 113.757 107.045  0.00  0.00    +0.000 C 
ATOM     47  C   UNL     1     140.438 113.924 107.683  0.00  0.00    +0.000 C 
ATOM     48  C   UNL     1     139.189 114.106 108.555  0.00  0.00    +0.000 C 
ENDBRANCH  44  46
ENDBRANCH  42  44
ENDBRANCH  39  41
BRANCH  39  49
ATOM     49  O   UNL     1     145.991 110.919 108.437  0.00  0.00    +0.000 OA
ATOM     50  H   UNL     1     146.157 110.674 107.506  0.00  0.00    +0.000 HD
ENDBRANCH  39  49
ENDBRANCH   6  39
BRANCH   8  51
ATOM     51  C   UNL     1     146.451 112.812 113.109  0.00  0.00    +0.000 C 
BRANCH  51  52
ATOM     52  O   UNL     1     146.383 112.199 114.291  0.00  0.00    +0.000 OA
ATOM     53  H   UNL     1     145.569 112.453 114.771  0.00  0.00    +0.000 HD
ENDBRANCH  51  52
ENDBRANCH   8  51
TORSDOF 13
ENDMDL
MODEL 8
REMARK VINA RESULT:      -5.4      2.703      9.363
REMARK  Name = 102471178_CandidaspongiolideCore.pdbqt.pdb
REMARK  13 active torsions:
REMARK  status: ('A' for Active; 'I' for Inactive)
REMARK    1  A    between atoms: C_6  and  C_39
REMARK    2  A    between atoms: C_8  and  O_27
REMARK    3  A    between atoms: C_8  and  C_51
REMARK    4  A    between atoms: C_10  and  O_29
REMARK    5  A    between atoms: C_15  and  O_31
REMARK    6  A    between atoms: C_16  and  O_33
REMARK    7  A    between atoms: C_21  and  O_35
REMARK    8  A    between atoms: O_35  and  C_37
REMARK    9  A    between atoms: C_39  and  C_41
REMARK   10  A    between atoms: C_39  and  O_49
REMARK   11  A    between atoms: C_42  and  C_44
REMARK   12  A    between atoms: C_44  and  C_46
REMARK   13  A    between atoms: C_51  and  O_52
REMARK                            x       y       z     vdW  Elec       q    Type
REMARK                         _______ _______ _______ _____ _____    ______ ____
ROOT
ATOM      1  O   UNL     1     140.616 115.714 112.866  0.00  0.00    +0.000 OA
ATOM      2  O   UNL     1     140.413 114.292 111.074  0.00  0.00    +0.000 OA
ATOM      3  O   UNL     1     138.202 110.974 108.152  0.00  0.00    +0.000 OA
ATOM      4  O   UNL     1     141.395 117.577 111.856  0.00  0.00    +0.000 OA
ATOM      5  O   UNL     1     142.863 115.783 109.208  0.00  0.00    +0.000 OA
ATOM      6  C   UNL     1     138.917 114.139 112.942  0.00  0.00    +0.000 C 
ATOM      7  C   UNL     1     138.543 112.772 112.823  0.00  0.00    +0.000 C 
ATOM      8  C   UNL     1     138.137 111.364 112.866  0.00  0.00    +0.000 C 
ATOM      9  C   UNL     1     140.051 114.708 112.168  0.00  0.00    +0.000 C 
ATOM     10  C   UNL     1     137.317 110.970 111.657  0.00  0.00    +0.000 C 
ATOM     11  C   UNL     1     137.599 111.377 110.326  0.00  0.00    +0.000 C 
ATOM     12  C   UNL     1     137.968 111.827 109.000  0.00  0.00    +0.000 C 
ATOM     13  C   UNL     1     141.560 116.416 112.211  0.00  0.00    +0.000 C 
ATOM     14  C   UNL     1     138.099 113.286 108.705  0.00  0.00    +0.000 C 
ATOM     15  C   UNL     1     142.924 115.832 112.214  0.00  0.00    +0.000 C 
ATOM     16  C   UNL     1     143.229 114.452 111.898  0.00  0.00    +0.000 C 
ATOM     17  C   UNL     1     143.498 113.926 110.565  0.00  0.00    +0.000 C 
ATOM     18  C   UNL     1     139.040 113.722 107.741  0.00  0.00    +0.000 C 
ATOM     19  C   UNL     1     142.045 113.681 108.467  0.00  0.00    +0.000 C 
ATOM     20  C   UNL     1     137.479 114.356 109.593  0.00  0.00    +0.000 C 
ATOM     21  C   UNL     1     141.344 114.316 107.357  0.00  0.00    +0.000 C 
ATOM     22  C   UNL     1     142.831 114.564 109.389  0.00  0.00    +0.000 C 
ATOM     23  C   UNL     1     139.981 114.061 106.913  0.00  0.00    +0.000 C 
ATOM     24  C   UNL     1     144.656 112.967 110.311  0.00  0.00    +0.000 C 
ATOM     25  C   UNL     1     141.722 112.235 108.817  0.00  0.00    +0.000 C 
ATOM     26  C   UNL     1     139.565 114.223 105.474  0.00  0.00    +0.000 C 
ENDROOT
BRANCH   8  27
ATOM     27  O   UNL     1     137.323 111.231 114.033  0.00  0.00    +0.000 OA
ATOM     28  H   UNL     1     137.964 111.127 114.764  0.00  0.00    +0.000 HD
ENDBRANCH   8  27
BRANCH  10  29
ATOM     29  O   UNL     1     136.251 110.111 111.875  0.00  0.00    +0.000 OA
ATOM     30  H   UNL     1     135.416 110.459 111.511  0.00  0.00    +0.000 HD
ENDBRANCH  10  29
BRANCH  15  31
ATOM     31  O   UNL     1     143.994 116.694 112.031  0.00  0.00    +0.000 OA
ATOM     32  H   UNL     1     143.674 117.601 111.840  0.00  0.00    +0.000 HD
ENDBRANCH  15  31
BRANCH  16  33
ATOM     33  O   UNL     1     143.774 113.716 112.935  0.00  0.00    +0.000 OA
ATOM     34  C   UNL     1     142.775 112.909 113.508  0.00  0.00    +0.000 C 
ENDBRANCH  16  33
BRANCH  21  35
ATOM     35  O   UNL     1     142.162 115.140 106.542  0.00  0.00    +0.000 OA
BRANCH  35  37
ATOM     36  O   UNL     1     142.991 113.482 105.116  0.00  0.00    +0.000 OA
ATOM     37  C   UNL     1     143.109 114.439 105.859  0.00  0.00    +0.000 C 
ATOM     38  C   UNL     1     144.494 114.951 106.024  0.00  0.00    +0.000 C 
ENDBRANCH  35  37
ENDBRANCH  21  35
BRANCH   6  39
ATOM     39  C   UNL     1     138.095 114.983 113.780  0.00  0.00    +0.000 C 
BRANCH  39  41
ATOM     40  O   UNL     1     135.949 115.117 112.410  0.00  0.00    +0.000 OA
ATOM     41  C   UNL     1     136.980 115.771 113.185  0.00  0.00    +0.000 C 
ATOM     42  C   UNL     1     135.680 115.381 113.724  0.00  0.00    +0.000 C 
ATOM     43  C   UNL     1     137.287 117.180 112.562  0.00  0.00    +0.000 C 
BRANCH  42  44
ATOM     44  C   UNL     1     134.614 116.292 114.008  0.00  0.00    +0.000 C 
ATOM     45  C   UNL     1     134.753 117.300 115.125  0.00  0.00    +0.000 C 
BRANCH  44  46
ATOM     46  C   UNL     1     133.644 116.597 113.019  0.00  0.00    +0.000 C 
ATOM     47  C   UNL     1     132.808 116.892 112.211  0.00  0.00    +0.000 C 
ATOM     48  C   UNL     1     131.730 117.332 111.212  0.00  0.00    +0.000 C 
ENDBRANCH  44  46
ENDBRANCH  42  44
ENDBRANCH  39  41
BRANCH  39  49
ATOM     49  O   UNL     1     138.442 115.066 115.118  0.00  0.00    +0.000 OA
ATOM     50  H   UNL     1     138.044 114.376 115.682  0.00  0.00    +0.000 HD
ENDBRANCH  39  49
ENDBRANCH   6  39
BRANCH   8  51
ATOM     51  C   UNL     1     139.290 110.462 113.019  0.00  0.00    +0.000 C 
BRANCH  51  52
ATOM     52  O   UNL     1     140.358 109.671 113.132  0.00  0.00    +0.000 OA
ATOM     53  H   UNL     1     140.492 109.145 112.317  0.00  0.00    +0.000 HD
ENDBRANCH  51  52
ENDBRANCH   8  51
TORSDOF 13
ENDMDL
MODEL 9
REMARK VINA RESULT:      -5.4      2.950      6.542
REMARK  Name = 102471178_CandidaspongiolideCore.pdbqt.pdb
REMARK  13 active torsions:
REMARK  status: ('A' for Active; 'I' for Inactive)
REMARK    1  A    between atoms: C_6  and  C_39
REMARK    2  A    between atoms: C_8  and  O_27
REMARK    3  A    between atoms: C_8  and  C_51
REMARK    4  A    between atoms: C_10  and  O_29
REMARK    5  A    between atoms: C_15  and  O_31
REMARK    6  A    between atoms: C_16  and  O_33
REMARK    7  A    between atoms: C_21  and  O_35
REMARK    8  A    between atoms: O_35  and  C_37
REMARK    9  A    between atoms: C_39  and  C_41
REMARK   10  A    between atoms: C_39  and  O_49
REMARK   11  A    between atoms: C_42  and  C_44
REMARK   12  A    between atoms: C_44  and  C_46
REMARK   13  A    between atoms: C_51  and  O_52
REMARK                            x       y       z     vdW  Elec       q    Type
REMARK                         _______ _______ _______ _____ _____    ______ ____
ROOT
ATOM      1  O   UNL     1     146.348 115.215 110.804  0.00  0.00    +0.000 OA
ATOM      2  O   UNL     1     145.217 113.229 110.578  0.00  0.00    +0.000 OA
ATOM      3  O   UNL     1     144.320 108.702 108.805  0.00  0.00    +0.000 OA
ATOM      4  O   UNL     1     146.438 115.411 113.052  0.00  0.00    +0.000 OA
ATOM      5  O   UNL     1     143.534 113.485 113.547  0.00  0.00    +0.000 OA
ATOM      6  C   UNL     1     146.866 113.895 108.970  0.00  0.00    +0.000 C 
ATOM      7  C   UNL     1     146.391 113.169 107.843  0.00  0.00    +0.000 C 
ATOM      8  C   UNL     1     145.967 112.542 106.588  0.00  0.00    +0.000 C 
ATOM      9  C   UNL     1     146.048 114.046 110.202  0.00  0.00    +0.000 C 
ATOM     10  C   UNL     1     146.048 111.032 106.648  0.00  0.00    +0.000 C 
ATOM     11  C   UNL     1     145.652 110.250 107.766  0.00  0.00    +0.000 C 
ATOM     12  C   UNL     1     145.213 109.530 108.943  0.00  0.00    +0.000 C 
ATOM     13  C   UNL     1     145.788 115.405 112.013  0.00  0.00    +0.000 C 
ATOM     14  C   UNL     1     145.808 109.832 110.280  0.00  0.00    +0.000 C 
ATOM     15  C   UNL     1     144.397 115.922 112.011  0.00  0.00    +0.000 C 
ATOM     16  C   UNL     1     143.321 115.384 111.205  0.00  0.00    +0.000 C 
ATOM     17  C   UNL     1     142.434 114.294 111.592  0.00  0.00    +0.000 C 
ATOM     18  C   UNL     1     145.015 109.690 111.445  0.00  0.00    +0.000 C 
ATOM     19  C   UNL     1     142.832 111.800 112.029  0.00  0.00    +0.000 C 
ATOM     20  C   UNL     1     147.134 110.562 110.436  0.00  0.00    +0.000 C 
ATOM     21  C   UNL     1     143.402 110.760 112.880  0.00  0.00    +0.000 C 
ATOM     22  C   UNL     1     142.958 113.220 112.490  0.00  0.00    +0.000 C 
ATOM     23  C   UNL     1     144.211 109.624 112.462  0.00  0.00    +0.000 C 
ATOM     24  C   UNL     1     140.928 114.380 111.365  0.00  0.00    +0.000 C 
ATOM     25  C   UNL     1     142.413 111.447 110.609  0.00  0.00    +0.000 C 
ATOM     26  C   UNL     1     144.203 108.317 113.213  0.00  0.00    +0.000 C 
ENDROOT
BRANCH   8  27
ATOM     27  O   UNL     1     146.882 113.009 105.594  0.00  0.00    +0.000 OA
ATOM     28  H   UNL     1     147.564 113.493 106.101  0.00  0.00    +0.000 HD
ENDBRANCH   8  27
BRANCH  10  29
ATOM     29  O   UNL     1     146.492 110.382 105.507  0.00  0.00    +0.000 OA
ATOM     30  H   UNL     1     146.360 110.916 104.702  0.00  0.00    +0.000 HD
ENDBRANCH  10  29
BRANCH  15  31
ATOM     31  O   UNL     1     143.961 116.603 113.137  0.00  0.00    +0.000 OA
ATOM     32  H   UNL     1     143.124 116.215 113.469  0.00  0.00    +0.000 HD
ENDBRANCH  15  31
BRANCH  16  33
ATOM     33  O   UNL     1     142.799 116.253 110.263  0.00  0.00    +0.000 OA
ATOM     34  C   UNL     1     143.347 115.956 109.003  0.00  0.00    +0.000 C 
ENDBRANCH  16  33
BRANCH  21  35
ATOM     35  O   UNL     1     142.959 110.798 114.227  0.00  0.00    +0.000 OA
BRANCH  35  37
ATOM     36  O   UNL     1     140.970 109.599 113.949  0.00  0.00    +0.000 OA
ATOM     37  C   UNL     1     141.629 110.539 114.356  0.00  0.00    +0.000 C 
ATOM     38  C   UNL     1     140.878 111.546 115.149  0.00  0.00    +0.000 C 
ENDBRANCH  35  37
ENDBRANCH  21  35
BRANCH   6  39
ATOM     39  C   UNL     1     148.216 114.409 108.910  0.00  0.00    +0.000 C 
BRANCH  39  41
ATOM     40  O   UNL     1     150.462 114.429 110.117  0.00  0.00    +0.000 OA
ATOM     41  C   UNL     1     149.321 113.698 109.611  0.00  0.00    +0.000 C 
ATOM     42  C   UNL     1     149.462 114.129 110.999  0.00  0.00    +0.000 C 
ATOM     43  C   UNL     1     149.794 112.301 109.071  0.00  0.00    +0.000 C 
BRANCH  42  44
ATOM     44  C   UNL     1     149.784 113.259 112.089  0.00  0.00    +0.000 C 
ATOM     45  C   UNL     1     151.181 113.251 112.667  0.00  0.00    +0.000 C 
BRANCH  44  46
ATOM     46  C   UNL     1     148.764 112.754 112.933  0.00  0.00    +0.000 C 
ATOM     47  C   UNL     1     147.867 112.353 113.622  0.00  0.00    +0.000 C 
ATOM     48  C   UNL     1     146.675 111.870 114.457  0.00  0.00    +0.000 C 
ENDBRANCH  44  46
ENDBRANCH  42  44
ENDBRANCH  39  41
BRANCH  39  49
ATOM     49  O   UNL     1     148.401 115.607 108.239  0.00  0.00    +0.000 OA
ATOM     50  H   UNL     1     149.295 115.726 107.864  0.00  0.00    +0.000 HD
ENDBRANCH  39  49
ENDBRANCH   6  39
BRANCH   8  51
ATOM     51  C   UNL     1     144.616 112.968 106.187  0.00  0.00    +0.000 C 
BRANCH  51  52
ATOM     52  O   UNL     1     143.410 113.379 105.794  0.00  0.00    +0.000 OA
ATOM     53  H   UNL     1     142.759 113.301 106.520  0.00  0.00    +0.000 HD
ENDBRANCH  51  52
ENDBRANCH   8  51
TORSDOF 13
ENDMDL
