MODEL 1
REMARK VINA RESULT:      -5.2      0.000      0.000
REMARK  Name = 10281_Thymoquinone.pdbqt.pdb
REMARK  1 active torsions:
REMARK  status: ('A' for Active; 'I' for Inactive)
REMARK    1  A    between atoms: C_3  and  C_10
REMARK                            x       y       z     vdW  Elec       q    Type
REMARK                         _______ _______ _______ _____ _____    ______ ____
ROOT
ATOM      1  O   UNL     1     141.047 127.280 102.930  0.00  0.00    +0.000 OA
ATOM      2  O   UNL     1     140.097 123.465  99.258  0.00  0.00    +0.000 OA
ATOM      3  C   UNL     1     141.970 125.879 101.188  0.00  0.00    +0.000 C 
ATOM      4  C   UNL     1     140.895 126.421 102.084  0.00  0.00    +0.000 C 
ATOM      5  C   UNL     1     141.496 124.962 100.382  0.00  0.00    +0.000 C 
ATOM      6  C   UNL     1     139.121 124.886 101.034  0.00  0.00    +0.000 C 
ATOM      7  C   UNL     1     140.207 124.321 100.114  0.00  0.00    +0.000 C 
ATOM      8  C   UNL     1     139.600 125.799 101.834  0.00  0.00    +0.000 C 
ATOM      9  C   UNL     1     137.682 124.482 101.055  0.00  0.00    +0.000 C 
ENDROOT
BRANCH   3  10
ATOM     10  C   UNL     1     143.308 126.362 101.284  0.00  0.00    +0.000 C 
ATOM     11  C   UNL     1     143.688 127.692 100.681  0.00  0.00    +0.000 C 
ATOM     12  C   UNL     1     144.254 125.800 102.316  0.00  0.00    +0.000 C 
ENDBRANCH   3  10
TORSDOF 1
ENDMDL
MODEL 2
REMARK VINA RESULT:      -5.1     32.651     33.852
REMARK  Name = 10281_Thymoquinone.pdbqt.pdb
REMARK  1 active torsions:
REMARK  status: ('A' for Active; 'I' for Inactive)
REMARK    1  A    between atoms: C_3  and  C_10
REMARK                            x       y       z     vdW  Elec       q    Type
REMARK                         _______ _______ _______ _____ _____    ______ ____
ROOT
ATOM      1  O   UNL     1     137.641 121.973 136.301  0.00  0.00    +0.000 OA
ATOM      2  O   UNL     1     138.535 125.776 132.602  0.00  0.00    +0.000 OA
ATOM      3  C   UNL     1     136.696 123.352 134.552  0.00  0.00    +0.000 C 
ATOM      4  C   UNL     1     137.780 122.828 135.449  0.00  0.00    +0.000 C 
ATOM      5  C   UNL     1     137.158 124.269 133.740  0.00  0.00    +0.000 C 
ATOM      6  C   UNL     1     139.533 124.379 134.385  0.00  0.00    +0.000 C 
ATOM      7  C   UNL     1     138.438 124.924 133.464  0.00  0.00    +0.000 C 
ATOM      8  C   UNL     1     139.066 123.466 135.193  0.00  0.00    +0.000 C 
ATOM      9  C   UNL     1     140.966 124.801 134.401  0.00  0.00    +0.000 C 
ENDROOT
BRANCH   3  10
ATOM     10  C   UNL     1     135.365 122.853 134.654  0.00  0.00    +0.000 C 
ATOM     11  C   UNL     1     134.377 123.490 135.601  0.00  0.00    +0.000 C 
ATOM     12  C   UNL     1     134.784 121.988 133.562  0.00  0.00    +0.000 C 
ENDBRANCH   3  10
TORSDOF 1
ENDMDL
MODEL 3
REMARK VINA RESULT:      -4.8      2.529      4.708
REMARK  Name = 10281_Thymoquinone.pdbqt.pdb
REMARK  1 active torsions:
REMARK  status: ('A' for Active; 'I' for Inactive)
REMARK    1  A    between atoms: C_3  and  C_10
REMARK                            x       y       z     vdW  Elec       q    Type
REMARK                         _______ _______ _______ _____ _____    ______ ____
ROOT
ATOM      1  O   UNL     1     139.144 123.678  98.270  0.00  0.00    +0.000 OA
ATOM      2  O   UNL     1     144.310 123.756  99.768  0.00  0.00    +0.000 OA
ATOM      3  C   UNL     1     140.758 124.407  99.917  0.00  0.00    +0.000 C 
ATOM      4  C   UNL     1     140.293 123.730  98.661  0.00  0.00    +0.000 C 
ATOM      5  C   UNL     1     142.054 124.290 100.065  0.00  0.00    +0.000 C 
ATOM      6  C   UNL     1     142.683 122.995  98.064  0.00  0.00    +0.000 C 
ATOM      7  C   UNL     1     143.173 123.681  99.343  0.00  0.00    +0.000 C 
ATOM      8  C   UNL     1     141.391 123.116  97.923  0.00  0.00    +0.000 C 
ATOM      9  C   UNL     1     143.530 122.270  97.070  0.00  0.00    +0.000 C 
ENDROOT
BRANCH   3  10
ATOM     10  C   UNL     1     139.829 125.063 100.776  0.00  0.00    +0.000 C 
ATOM     11  C   UNL     1     138.602 124.339 101.275  0.00  0.00    +0.000 C 
ATOM     12  C   UNL     1     140.230 126.302 101.538  0.00  0.00    +0.000 C 
ENDBRANCH   3  10
TORSDOF 1
ENDMDL
MODEL 4
REMARK VINA RESULT:      -4.8      2.258      3.836
REMARK  Name = 10281_Thymoquinone.pdbqt.pdb
REMARK  1 active torsions:
REMARK  status: ('A' for Active; 'I' for Inactive)
REMARK    1  A    between atoms: C_3  and  C_10
REMARK                            x       y       z     vdW  Elec       q    Type
REMARK                         _______ _______ _______ _____ _____    ______ ____
ROOT
ATOM      1  O   UNL     1     145.511 124.733 101.726  0.00  0.00    +0.000 OA
ATOM      2  O   UNL     1     140.812 127.247 102.467  0.00  0.00    +0.000 OA
ATOM      3  C   UNL     1     144.245 126.292 103.075  0.00  0.00    +0.000 C 
ATOM      4  C   UNL     1     144.475 125.330 101.945  0.00  0.00    +0.000 C 
ATOM      5  C   UNL     1     143.027 126.773 103.044  0.00  0.00    +0.000 C 
ATOM      6  C   UNL     1     142.080 125.646 101.067  0.00  0.00    +0.000 C 
ATOM      7  C   UNL     1     141.830 126.631 102.213  0.00  0.00    +0.000 C 
ATOM      8  C   UNL     1     143.295 125.171 101.104  0.00  0.00    +0.000 C 
ATOM      9  C   UNL     1     141.097 125.244 100.016  0.00  0.00    +0.000 C 
ENDROOT
BRANCH   3  10
ATOM     10  C   UNL     1     145.284 126.582 104.006  0.00  0.00    +0.000 C 
ATOM     11  C   UNL     1     146.374 127.566 103.657  0.00  0.00    +0.000 C 
ATOM     12  C   UNL     1     145.112 126.266 105.471  0.00  0.00    +0.000 C 
ENDBRANCH   3  10
TORSDOF 1
ENDMDL
MODEL 5
REMARK VINA RESULT:      -4.8      2.310      4.759
REMARK  Name = 10281_Thymoquinone.pdbqt.pdb
REMARK  1 active torsions:
REMARK  status: ('A' for Active; 'I' for Inactive)
REMARK    1  A    between atoms: C_3  and  C_10
REMARK                            x       y       z     vdW  Elec       q    Type
REMARK                         _______ _______ _______ _____ _____    ______ ____
ROOT
ATOM      1  O   UNL     1     144.605 123.410 100.680  0.00  0.00    +0.000 OA
ATOM      2  O   UNL     1     141.868 127.361 103.097  0.00  0.00    +0.000 OA
ATOM      3  C   UNL     1     142.666 124.855 100.618  0.00  0.00    +0.000 C 
ATOM      4  C   UNL     1     143.943 124.299 101.178  0.00  0.00    +0.000 C 
ATOM      5  C   UNL     1     142.189 125.805 101.383  0.00  0.00    +0.000 C 
ATOM      6  C   UNL     1     143.863 125.897 103.190  0.00  0.00    +0.000 C 
ATOM      7  C   UNL     1     142.559 126.474 102.632  0.00  0.00    +0.000 C 
ATOM      8  C   UNL     1     144.332 124.951 102.422  0.00  0.00    +0.000 C 
ATOM      9  C   UNL     1     144.555 126.325 104.443  0.00  0.00    +0.000 C 
ENDROOT
BRANCH   3  10
ATOM     10  C   UNL     1     142.121 124.343  99.405  0.00  0.00    +0.000 C 
ATOM     11  C   UNL     1     140.784 123.641  99.400  0.00  0.00    +0.000 C 
ATOM     12  C   UNL     1     142.622 124.836  98.070  0.00  0.00    +0.000 C 
ENDBRANCH   3  10
TORSDOF 1
ENDMDL
MODEL 6
REMARK VINA RESULT:      -4.6      2.099      3.308
REMARK  Name = 10281_Thymoquinone.pdbqt.pdb
REMARK  1 active torsions:
REMARK  status: ('A' for Active; 'I' for Inactive)
REMARK    1  A    between atoms: C_3  and  C_10
REMARK                            x       y       z     vdW  Elec       q    Type
REMARK                         _______ _______ _______ _____ _____    ______ ____
ROOT
ATOM      1  O   UNL     1     144.218 125.653 100.959  0.00  0.00    +0.000 OA
ATOM      2  O   UNL     1     139.949 123.434  98.553  0.00  0.00    +0.000 OA
ATOM      3  C   UNL     1     141.816 125.687 100.674  0.00  0.00    +0.000 C 
ATOM      4  C   UNL     1     143.217 125.195 100.447  0.00  0.00    +0.000 C 
ATOM      5  C   UNL     1     140.952 124.989  99.979  0.00  0.00    +0.000 C 
ATOM      6  C   UNL     1     142.409 123.372  98.824  0.00  0.00    +0.000 C 
ATOM      7  C   UNL     1     140.975 123.863  99.044  0.00  0.00    +0.000 C 
ATOM      8  C   UNL     1     143.265 124.071  99.519  0.00  0.00    +0.000 C 
ATOM      9  C   UNL     1     142.831 122.243  97.941  0.00  0.00    +0.000 C 
ENDROOT
BRANCH   3  10
ATOM     10  C   UNL     1     141.565 126.783 101.549  0.00  0.00    +0.000 C 
ATOM     11  C   UNL     1     141.816 128.201 101.095  0.00  0.00    +0.000 C 
ATOM     12  C   UNL     1     140.671 126.615 102.753  0.00  0.00    +0.000 C 
ENDBRANCH   3  10
TORSDOF 1
ENDMDL
MODEL 7
REMARK VINA RESULT:      -4.6     32.537     33.729
REMARK  Name = 10281_Thymoquinone.pdbqt.pdb
REMARK  1 active torsions:
REMARK  status: ('A' for Active; 'I' for Inactive)
REMARK    1  A    between atoms: C_3  and  C_10
REMARK                            x       y       z     vdW  Elec       q    Type
REMARK                         _______ _______ _______ _____ _____    ______ ____
ROOT
ATOM      1  O   UNL     1     136.362 119.688 134.600  0.00  0.00    +0.000 OA
ATOM      2  O   UNL     1     136.711 124.985 133.724  0.00  0.00    +0.000 OA
ATOM      3  C   UNL     1     135.266 121.672 133.755  0.00  0.00    +0.000 C 
ATOM      4  C   UNL     1     136.381 120.882 134.377  0.00  0.00    +0.000 C 
ATOM      5  C   UNL     1     135.587 122.937 133.647  0.00  0.00    +0.000 C 
ATOM      6  C   UNL     1     137.861 122.973 134.596  0.00  0.00    +0.000 C 
ATOM      7  C   UNL     1     136.732 123.793 133.964  0.00  0.00    +0.000 C 
ATOM      8  C   UNL     1     137.534 121.714 134.702  0.00  0.00    +0.000 C 
ATOM      9  C   UNL     1     139.185 123.495 135.051  0.00  0.00    +0.000 C 
ENDROOT
BRANCH   3  10
ATOM     10  C   UNL     1     134.051 121.034 133.371  0.00  0.00    +0.000 C 
ATOM     11  C   UNL     1     133.890 120.461 131.984  0.00  0.00    +0.000 C 
ATOM     12  C   UNL     1     133.080 120.541 134.415  0.00  0.00    +0.000 C 
ENDBRANCH   3  10
TORSDOF 1
ENDMDL
MODEL 8
REMARK VINA RESULT:      -4.6     10.172     12.135
REMARK  Name = 10281_Thymoquinone.pdbqt.pdb
REMARK  1 active torsions:
REMARK  status: ('A' for Active; 'I' for Inactive)
REMARK    1  A    between atoms: C_3  and  C_10
REMARK                            x       y       z     vdW  Elec       q    Type
REMARK                         _______ _______ _______ _____ _____    ______ ____
ROOT
ATOM      1  O   UNL     1     144.371 139.322 102.492  0.00  0.00    +0.000 OA
ATOM      2  O   UNL     1     142.384 134.323 102.587  0.00  0.00    +0.000 OA
ATOM      3  C   UNL     1     143.912 137.356 103.824  0.00  0.00    +0.000 C 
ATOM      4  C   UNL     1     143.937 138.190 102.576  0.00  0.00    +0.000 C 
ATOM      5  C   UNL     1     143.382 136.180 103.596  0.00  0.00    +0.000 C 
ATOM      6  C   UNL     1     142.841 136.319 101.196  0.00  0.00    +0.000 C 
ATOM      7  C   UNL     1     142.808 135.456 102.460  0.00  0.00    +0.000 C 
ATOM      8  C   UNL     1     143.371 137.489 101.430  0.00  0.00    +0.000 C 
ATOM      9  C   UNL     1     142.348 135.924  99.842  0.00  0.00    +0.000 C 
ENDROOT
BRANCH   3  10
ATOM     10  C   UNL     1     144.420 137.870 105.052  0.00  0.00    +0.000 C 
ATOM     11  C   UNL     1     145.850 137.609 105.462  0.00  0.00    +0.000 C 
ATOM     12  C   UNL     1     143.721 139.007 105.756  0.00  0.00    +0.000 C 
ENDBRANCH   3  10
TORSDOF 1
ENDMDL
MODEL 9
REMARK VINA RESULT:      -4.6      2.252      4.260
REMARK  Name = 10281_Thymoquinone.pdbqt.pdb
REMARK  1 active torsions:
REMARK  status: ('A' for Active; 'I' for Inactive)
REMARK    1  A    between atoms: C_3  and  C_10
REMARK                            x       y       z     vdW  Elec       q    Type
REMARK                         _______ _______ _______ _____ _____    ______ ____
ROOT
ATOM      1  O   UNL     1     139.981 123.360  99.533  0.00  0.00    +0.000 OA
ATOM      2  O   UNL     1     143.367 127.423 100.516  0.00  0.00    +0.000 OA
ATOM      3  C   UNL     1     141.983 124.532  98.847  0.00  0.00    +0.000 C 
ATOM      4  C   UNL     1     140.780 124.259  99.703  0.00  0.00    +0.000 C 
ATOM      5  C   UNL     1     142.649 125.570  99.286  0.00  0.00    +0.000 C 
ATOM      6  C   UNL     1     141.315 126.245 101.245  0.00  0.00    +0.000 C 
ATOM      7  C   UNL     1     142.545 126.537 100.381  0.00  0.00    +0.000 C 
ATOM      8  C   UNL     1     140.656 125.210 100.802  0.00  0.00    +0.000 C 
ATOM      9  C   UNL     1     140.880 127.013 102.451  0.00  0.00    +0.000 C 
ENDROOT
BRANCH   3  10
ATOM     10  C   UNL     1     142.273 123.710  97.719  0.00  0.00    +0.000 C 
ATOM     11  C   UNL     1     142.975 122.385  97.895  0.00  0.00    +0.000 C 
ATOM     12  C   UNL     1     141.542 123.912  96.415  0.00  0.00    +0.000 C 
ENDBRANCH   3  10
TORSDOF 1
ENDMDL
