MODEL 1
REMARK VINA RESULT:      -6.8      0.000      0.000
REMARK  Name = 10288191_Binimetinib.pdbqt.pdb
REMARK  6 active torsions:
REMARK  status: ('A' for Active; 'I' for Inactive)
REMARK    1  A    between atoms: C_6  and  N_21
REMARK    2  A    between atoms: C_7  and  C_14
REMARK    3  A    between atoms: N_13  and  O_16
REMARK    4  A    between atoms: O_16  and  C_17
REMARK    5  A    between atoms: C_18  and  O_19
REMARK    6  A    between atoms: N_21  and  C_25
REMARK                            x       y       z     vdW  Elec       q    Type
REMARK                         _______ _______ _______ _____ _____    ______ ____
ROOT
ATOM      1  F   UNL     1     141.796 125.836 101.902  0.00  0.00    +0.000 F 
ATOM      2  N   UNL     1     145.879 126.560 103.703  0.00  0.00    +0.000 N 
ATOM      3  N   UNL     1     143.730 126.238 104.088  0.00  0.00    +0.000 NA
ATOM      4  C   UNL     1     145.332 126.388 102.464  0.00  0.00    +0.000 A 
ATOM      5  C   UNL     1     143.981 126.183 102.729  0.00  0.00    +0.000 A 
ATOM      6  C   UNL     1     143.584 125.951 100.315  0.00  0.00    +0.000 A 
ATOM      7  C   UNL     1     144.968 126.180 100.098  0.00  0.00    +0.000 A 
ATOM      8  C   UNL     1     145.854 126.400 101.169  0.00  0.00    +0.000 A 
ATOM      9  C   UNL     1     143.107 125.967 101.646  0.00  0.00    +0.000 A 
ATOM     10  C   UNL     1     144.903 126.465 104.648  0.00  0.00    +0.000 A 
ATOM     11  C   UNL     1     147.260 126.782 103.975  0.00  0.00    +0.000 C 
ENDROOT
BRANCH   7  14
ATOM     12  O   UNL     1     145.843 125.179  98.147  0.00  0.00    +0.000 OA
ATOM     13  N   UNL     1     145.700 127.479  98.156  0.00  0.00    +0.000 N 
ATOM     14  C   UNL     1     145.542 126.227  98.714  0.00  0.00    +0.000 C 
ATOM     15  H   UNL     1     145.796 128.310  98.725  0.00  0.00    +0.000 HD
BRANCH  13  16
ATOM     16  O   UNL     1     146.495 127.486  96.989  0.00  0.00    +0.000 OA
BRANCH  16  17
ATOM     17  C   UNL     1     147.418 128.428  97.172  0.00  0.00    +0.000 C 
ATOM     18  C   UNL     1     148.481 129.509  97.397  0.00  0.00    +0.000 C 
BRANCH  18  19
ATOM     19  O   UNL     1     149.404 130.443  97.599  0.00  0.00    +0.000 OA
ATOM     20  H   UNL     1     149.271 131.184  96.984  0.00  0.00    +0.000 HD
ENDBRANCH  18  19
ENDBRANCH  16  17
ENDBRANCH  13  16
ENDBRANCH   7  14
BRANCH   6  21
ATOM     21  N   UNL     1     142.720 125.686  99.221  0.00  0.00    +0.000 N 
ATOM     22  H   UNL     1     142.132 124.850  99.360  0.00  0.00    +0.000 HD
BRANCH  21  25
ATOM     23 BR   UNL     1     140.582 129.242  94.752  0.00  0.00    +0.000 Br
ATOM     24  F   UNL     1     141.962 124.670  96.771  0.00  0.00    +0.000 F 
ATOM     25  C   UNL     1     142.192 126.532  98.223  0.00  0.00    +0.000 A 
ATOM     26  C   UNL     1     141.840 125.992  96.975  0.00  0.00    +0.000 A 
ATOM     27  C   UNL     1     142.068 127.914  98.383  0.00  0.00    +0.000 A 
ATOM     28  C   UNL     1     141.358 126.783  95.937  0.00  0.00    +0.000 A 
ATOM     29  C   UNL     1     141.587 128.724  97.355  0.00  0.00    +0.000 A 
ATOM     30  C   UNL     1     141.235 128.151  96.140  0.00  0.00    +0.000 A 
ENDBRANCH  21  25
ENDBRANCH   6  21
TORSDOF 6
ENDMDL
MODEL 2
REMARK VINA RESULT:      -6.8      3.472      4.428
REMARK  Name = 10288191_Binimetinib.pdbqt.pdb
REMARK  6 active torsions:
REMARK  status: ('A' for Active; 'I' for Inactive)
REMARK    1  A    between atoms: C_6  and  N_21
REMARK    2  A    between atoms: C_7  and  C_14
REMARK    3  A    between atoms: N_13  and  O_16
REMARK    4  A    between atoms: O_16  and  C_17
REMARK    5  A    between atoms: C_18  and  O_19
REMARK    6  A    between atoms: N_21  and  C_25
REMARK                            x       y       z     vdW  Elec       q    Type
REMARK                         _______ _______ _______ _____ _____    ______ ____
ROOT
ATOM      1  F   UNL     1     141.228 122.973  98.430  0.00  0.00    +0.000 F 
ATOM      2  N   UNL     1     140.932 126.060 101.719  0.00  0.00    +0.000 N 
ATOM      3  N   UNL     1     139.838 124.689 100.379  0.00  0.00    +0.000 NA
ATOM      4  C   UNL     1     141.909 125.431 101.002  0.00  0.00    +0.000 A 
ATOM      5  C   UNL     1     141.200 124.571 100.169  0.00  0.00    +0.000 A 
ATOM      6  C   UNL     1     143.332 123.792  99.225  0.00  0.00    +0.000 A 
ATOM      7  C   UNL     1     144.006 124.698 100.086  0.00  0.00    +0.000 A 
ATOM      8  C   UNL     1     143.302 125.525 100.981  0.00  0.00    +0.000 A 
ATOM      9  C   UNL     1     141.919 123.752  99.277  0.00  0.00    +0.000 A 
ATOM     10  C   UNL     1     139.712 125.598 101.327  0.00  0.00    +0.000 A 
ATOM     11  C   UNL     1     141.148 127.034 102.737  0.00  0.00    +0.000 C 
ENDROOT
BRANCH   7  14
ATOM     12  O   UNL     1     146.201 123.836 100.191  0.00  0.00    +0.000 OA
ATOM     13  N   UNL     1     145.996 126.110  99.880  0.00  0.00    +0.000 N 
ATOM     14  C   UNL     1     145.498 124.835 100.057  0.00  0.00    +0.000 C 
ATOM     15  H   UNL     1     145.460 126.932 100.127  0.00  0.00    +0.000 HD
BRANCH  13  16
ATOM     16  O   UNL     1     147.378 126.223 100.142  0.00  0.00    +0.000 OA
BRANCH  16  17
ATOM     17  C   UNL     1     147.790 127.320  99.509  0.00  0.00    +0.000 C 
ATOM     18  C   UNL     1     148.255 128.589  98.788  0.00  0.00    +0.000 C 
BRANCH  18  19
ATOM     19  O   UNL     1     148.656 129.695  98.169  0.00  0.00    +0.000 OA
ATOM     20  H   UNL     1     147.886 130.211  97.874  0.00  0.00    +0.000 HD
ENDBRANCH  18  19
ENDBRANCH  16  17
ENDBRANCH  13  16
ENDBRANCH   7  14
BRANCH   6  21
ATOM     21  N   UNL     1     144.068 122.938  98.365  0.00  0.00    +0.000 N 
ATOM     22  H   UNL     1     144.124 121.966  98.708  0.00  0.00    +0.000 HD
BRANCH  21  25
ATOM     23 BR   UNL     1     145.268 123.049  92.387  0.00  0.00    +0.000 Br
ATOM     24  F   UNL     1     142.680 121.382  96.560  0.00  0.00    +0.000 F 
ATOM     25  C   UNL     1     144.344 123.018  96.984  0.00  0.00    +0.000 A 
ATOM     26  C   UNL     1     143.641 122.194  96.090  0.00  0.00    +0.000 A 
ATOM     27  C   UNL     1     145.349 123.830  96.454  0.00  0.00    +0.000 A 
ATOM     28  C   UNL     1     143.903 122.194  94.723  0.00  0.00    +0.000 A 
ATOM     29  C   UNL     1     145.626 123.846  95.087  0.00  0.00    +0.000 A 
ATOM     30  C   UNL     1     144.898 123.027  94.232  0.00  0.00    +0.000 A 
ENDBRANCH  21  25
ENDBRANCH   6  21
TORSDOF 6
ENDMDL
MODEL 3
REMARK VINA RESULT:      -6.8      3.723      5.232
REMARK  Name = 10288191_Binimetinib.pdbqt.pdb
REMARK  6 active torsions:
REMARK  status: ('A' for Active; 'I' for Inactive)
REMARK    1  A    between atoms: C_6  and  N_21
REMARK    2  A    between atoms: C_7  and  C_14
REMARK    3  A    between atoms: N_13  and  O_16
REMARK    4  A    between atoms: O_16  and  C_17
REMARK    5  A    between atoms: C_18  and  O_19
REMARK    6  A    between atoms: N_21  and  C_25
REMARK                            x       y       z     vdW  Elec       q    Type
REMARK                         _______ _______ _______ _____ _____    ______ ____
ROOT
ATOM      1  F   UNL     1     146.626 127.790 101.684  0.00  0.00    +0.000 F 
ATOM      2  N   UNL     1     144.292 125.666 104.920  0.00  0.00    +0.000 N 
ATOM      3  N   UNL     1     146.001 126.979 104.446  0.00  0.00    +0.000 NA
ATOM      4  C   UNL     1     144.230 125.831 103.566  0.00  0.00    +0.000 A 
ATOM      5  C   UNL     1     145.311 126.663 103.290  0.00  0.00    +0.000 A 
ATOM      6  C   UNL     1     144.701 126.598 100.909  0.00  0.00    +0.000 A 
ATOM      7  C   UNL     1     143.621 125.739 101.243  0.00  0.00    +0.000 A 
ATOM      8  C   UNL     1     143.376 125.349 102.573  0.00  0.00    +0.000 A 
ATOM      9  C   UNL     1     145.545 127.043 101.954  0.00  0.00    +0.000 A 
ATOM     10  C   UNL     1     145.354 126.359 105.415  0.00  0.00    +0.000 A 
ATOM     11  C   UNL     1     143.377 124.904 105.703  0.00  0.00    +0.000 C 
ENDROOT
BRANCH   7  14
ATOM     12  O   UNL     1     142.065 125.956  99.482  0.00  0.00    +0.000 OA
ATOM     13  N   UNL     1     142.659 123.811 100.080  0.00  0.00    +0.000 N 
ATOM     14  C   UNL     1     142.711 125.186 100.189  0.00  0.00    +0.000 C 
ATOM     15  H   UNL     1     142.890 123.205 100.857  0.00  0.00    +0.000 HD
BRANCH  13  16
ATOM     16  O   UNL     1     141.592 123.343  99.282  0.00  0.00    +0.000 OA
BRANCH  16  17
ATOM     17  C   UNL     1     142.148 122.781  98.211  0.00  0.00    +0.000 C 
ATOM     18  C   UNL     1     142.780 122.121  96.980  0.00  0.00    +0.000 C 
BRANCH  18  19
ATOM     19  O   UNL     1     143.323 121.543  95.914  0.00  0.00    +0.000 OA
ATOM     20  H   UNL     1     143.615 122.219  95.279  0.00  0.00    +0.000 HD
ENDBRANCH  18  19
ENDBRANCH  16  17
ENDBRANCH  13  16
ENDBRANCH   7  14
BRANCH   6  21
ATOM     21  N   UNL     1     144.899 127.014  99.568  0.00  0.00    +0.000 N 
ATOM     22  H   UNL     1     144.470 127.928  99.358  0.00  0.00    +0.000 HD
BRANCH  21  25
ATOM     23 BR   UNL     1     149.144 125.327  95.528  0.00  0.00    +0.000 Br
ATOM     24  F   UNL     1     144.412 125.106  97.636  0.00  0.00    +0.000 F 
ATOM     25  C   UNL     1     145.891 126.676  98.623  0.00  0.00    +0.000 A 
ATOM     26  C   UNL     1     145.625 125.681  97.668  0.00  0.00    +0.000 A 
ATOM     27  C   UNL     1     147.172 127.232  98.633  0.00  0.00    +0.000 A 
ATOM     28  C   UNL     1     146.580 125.273  96.742  0.00  0.00    +0.000 A 
ATOM     29  C   UNL     1     148.143 126.837  97.712  0.00  0.00    +0.000 A 
ATOM     30  C   UNL     1     147.837 125.860  96.773  0.00  0.00    +0.000 A 
ENDBRANCH  21  25
ENDBRANCH   6  21
TORSDOF 6
ENDMDL
MODEL 4
REMARK VINA RESULT:      -6.4      3.716      5.309
REMARK  Name = 10288191_Binimetinib.pdbqt.pdb
REMARK  6 active torsions:
REMARK  status: ('A' for Active; 'I' for Inactive)
REMARK    1  A    between atoms: C_6  and  N_21
REMARK    2  A    between atoms: C_7  and  C_14
REMARK    3  A    between atoms: N_13  and  O_16
REMARK    4  A    between atoms: O_16  and  C_17
REMARK    5  A    between atoms: C_18  and  O_19
REMARK    6  A    between atoms: N_21  and  C_25
REMARK                            x       y       z     vdW  Elec       q    Type
REMARK                         _______ _______ _______ _____ _____    ______ ____
ROOT
ATOM      1  F   UNL     1     147.638 126.672  99.711  0.00  0.00    +0.000 F 
ATOM      2  N   UNL     1     145.372 126.407 103.613  0.00  0.00    +0.000 N 
ATOM      3  N   UNL     1     147.063 127.318 102.526  0.00  0.00    +0.000 NA
ATOM      4  C   UNL     1     145.288 125.888 102.353  0.00  0.00    +0.000 A 
ATOM      5  C   UNL     1     146.357 126.477 101.685  0.00  0.00    +0.000 A 
ATOM      6  C   UNL     1     145.711 125.253  99.654  0.00  0.00    +0.000 A 
ATOM      7  C   UNL     1     144.643 124.669 100.385  0.00  0.00    +0.000 A 
ATOM      8  C   UNL     1     144.422 124.980 101.739  0.00  0.00    +0.000 A 
ATOM      9  C   UNL     1     146.567 126.153 100.331  0.00  0.00    +0.000 A 
ATOM     10  C   UNL     1     146.436 127.254 103.686  0.00  0.00    +0.000 A 
ATOM     11  C   UNL     1     144.475 126.127 104.685  0.00  0.00    +0.000 C 
ENDROOT
BRANCH   7  14
ATOM     12  O   UNL     1     144.192 122.735  99.109  0.00  0.00    +0.000 OA
ATOM     13  N   UNL     1     142.370 123.875  99.940  0.00  0.00    +0.000 N 
ATOM     14  C   UNL     1     143.722 123.670  99.753  0.00  0.00    +0.000 C 
ATOM     15  H   UNL     1     141.991 124.792 100.141  0.00  0.00    +0.000 HD
BRANCH  13  16
ATOM     16  O   UNL     1     141.553 123.086  99.101  0.00  0.00    +0.000 OA
BRANCH  16  17
ATOM     17  C   UNL     1     141.276 123.837  98.037  0.00  0.00    +0.000 C 
ATOM     18  C   UNL     1     140.969 124.708  96.814  0.00  0.00    +0.000 C 
BRANCH  18  19
ATOM     19  O   UNL     1     140.711 125.467  95.755  0.00  0.00    +0.000 OA
ATOM     20  H   UNL     1     140.031 126.127  95.973  0.00  0.00    +0.000 HD
ENDBRANCH  18  19
ENDBRANCH  16  17
ENDBRANCH  13  16
ENDBRANCH   7  14
BRANCH   6  21
ATOM     21  N   UNL     1     145.884 124.958  98.277  0.00  0.00    +0.000 N 
ATOM     22  H   UNL     1     145.169 124.314  97.906  0.00  0.00    +0.000 HD
BRANCH  21  25
ATOM     23 BR   UNL     1     148.870 127.977  93.900  0.00  0.00    +0.000 Br
ATOM     24  F   UNL     1     147.958 123.819  96.860  0.00  0.00    +0.000 F 
ATOM     25  C   UNL     1     146.527 125.671  97.244  0.00  0.00    +0.000 A 
ATOM     26  C   UNL     1     147.599 125.076  96.557  0.00  0.00    +0.000 A 
ATOM     27  C   UNL     1     146.201 126.987  96.909  0.00  0.00    +0.000 A 
ATOM     28  C   UNL     1     148.301 125.748  95.561  0.00  0.00    +0.000 A 
ATOM     29  C   UNL     1     146.892 127.677  95.913  0.00  0.00    +0.000 A 
ATOM     30  C   UNL     1     147.937 127.049  95.246  0.00  0.00    +0.000 A 
ENDBRANCH  21  25
ENDBRANCH   6  21
TORSDOF 6
ENDMDL
MODEL 5
REMARK VINA RESULT:      -6.3      3.554      6.219
REMARK  Name = 10288191_Binimetinib.pdbqt.pdb
REMARK  6 active torsions:
REMARK  status: ('A' for Active; 'I' for Inactive)
REMARK    1  A    between atoms: C_6  and  N_21
REMARK    2  A    between atoms: C_7  and  C_14
REMARK    3  A    between atoms: N_13  and  O_16
REMARK    4  A    between atoms: O_16  and  C_17
REMARK    5  A    between atoms: C_18  and  O_19
REMARK    6  A    between atoms: N_21  and  C_25
REMARK                            x       y       z     vdW  Elec       q    Type
REMARK                         _______ _______ _______ _____ _____    ______ ____
ROOT
ATOM      1  F   UNL     1     144.844 123.834  96.107  0.00  0.00    +0.000 F 
ATOM      2  N   UNL     1     141.407 124.146  99.026  0.00  0.00    +0.000 N 
ATOM      3  N   UNL     1     142.100 123.379  97.076  0.00  0.00    +0.000 NA
ATOM      4  C   UNL     1     142.715 124.530  98.954  0.00  0.00    +0.000 A 
ATOM      5  C   UNL     1     143.133 124.034  97.722  0.00  0.00    +0.000 A 
ATOM      6  C   UNL     1     145.367 124.964  98.152  0.00  0.00    +0.000 A 
ATOM      7  C   UNL     1     144.886 125.461  99.392  0.00  0.00    +0.000 A 
ATOM      8  C   UNL     1     143.557 125.250  99.803  0.00  0.00    +0.000 A 
ATOM      9  C   UNL     1     144.465 124.257  97.323  0.00  0.00    +0.000 A 
ATOM     10  C   UNL     1     141.070 123.464  97.896  0.00  0.00    +0.000 A 
ATOM     11  C   UNL     1     140.528 124.398 100.120  0.00  0.00    +0.000 C 
ENDROOT
BRANCH   7  14
ATOM     12  O   UNL     1     146.933 125.917 100.475  0.00  0.00    +0.000 OA
ATOM     13  N   UNL     1     145.189 127.360 100.908  0.00  0.00    +0.000 N 
ATOM     14  C   UNL     1     145.766 126.261 100.303  0.00  0.00    +0.000 C 
ATOM     15  H   UNL     1     144.190 127.428 101.052  0.00  0.00    +0.000 HD
BRANCH  13  16
ATOM     16  O   UNL     1     145.960 127.903 101.959  0.00  0.00    +0.000 OA
BRANCH  16  17
ATOM     17  C   UNL     1     145.472 127.387 103.084  0.00  0.00    +0.000 C 
ATOM     18  C   UNL     1     144.900 126.803 104.381  0.00  0.00    +0.000 C 
BRANCH  18  19
ATOM     19  O   UNL     1     144.398 126.302 105.504  0.00  0.00    +0.000 OA
ATOM     20  H   UNL     1     143.962 127.003 106.018  0.00  0.00    +0.000 HD
ENDBRANCH  18  19
ENDBRANCH  16  17
ENDBRANCH  13  16
ENDBRANCH   7  14
BRANCH   6  21
ATOM     21  N   UNL     1     146.724 125.152  97.781  0.00  0.00    +0.000 N 
ATOM     22  H   UNL     1     147.343 124.394  98.108  0.00  0.00    +0.000 HD
BRANCH  21  25
ATOM     23 BR   UNL     1     149.468 128.237  93.294  0.00  0.00    +0.000 Br
ATOM     24  F   UNL     1     148.597 123.983  96.128  0.00  0.00    +0.000 F 
ATOM     25  C   UNL     1     147.309 125.884  96.727  0.00  0.00    +0.000 A 
ATOM     26  C   UNL     1     148.281 125.272  95.918  0.00  0.00    +0.000 A 
ATOM     27  C   UNL     1     147.028 127.230  96.486  0.00  0.00    +0.000 A 
ATOM     28  C   UNL     1     148.928 125.957  94.894  0.00  0.00    +0.000 A 
ATOM     29  C   UNL     1     147.664 127.934  95.464  0.00  0.00    +0.000 A 
ATOM     30  C   UNL     1     148.610 127.290  94.675  0.00  0.00    +0.000 A 
ENDBRANCH  21  25
ENDBRANCH   6  21
TORSDOF 6
ENDMDL
MODEL 6
REMARK VINA RESULT:      -6.3      3.956      7.103
REMARK  Name = 10288191_Binimetinib.pdbqt.pdb
REMARK  6 active torsions:
REMARK  status: ('A' for Active; 'I' for Inactive)
REMARK    1  A    between atoms: C_6  and  N_21
REMARK    2  A    between atoms: C_7  and  C_14
REMARK    3  A    between atoms: N_13  and  O_16
REMARK    4  A    between atoms: O_16  and  C_17
REMARK    5  A    between atoms: C_18  and  O_19
REMARK    6  A    between atoms: N_21  and  C_25
REMARK                            x       y       z     vdW  Elec       q    Type
REMARK                         _______ _______ _______ _____ _____    ______ ____
ROOT
ATOM      1  F   UNL     1     148.671 126.688  99.223  0.00  0.00    +0.000 F 
ATOM      2  N   UNL     1     147.591 126.406  94.843  0.00  0.00    +0.000 N 
ATOM      3  N   UNL     1     148.988 125.789  96.436  0.00  0.00    +0.000 NA
ATOM      4  C   UNL     1     147.100 126.993  95.973  0.00  0.00    +0.000 A 
ATOM      5  C   UNL     1     147.990 126.589  96.964  0.00  0.00    +0.000 A 
ATOM      6  C   UNL     1     146.672 127.853  98.608  0.00  0.00    +0.000 A 
ATOM      7  C   UNL     1     145.802 128.248  97.559  0.00  0.00    +0.000 A 
ATOM      8  C   UNL     1     146.008 127.822  96.233  0.00  0.00    +0.000 A 
ATOM      9  C   UNL     1     147.773 127.025  98.284  0.00  0.00    +0.000 A 
ATOM     10  C   UNL     1     148.713 125.697  95.149  0.00  0.00    +0.000 A 
ATOM     11  C   UNL     1     147.012 126.498  93.543  0.00  0.00    +0.000 C 
ENDROOT
BRANCH   7  14
ATOM     12  O   UNL     1     144.848 130.348  98.061  0.00  0.00    +0.000 OA
ATOM     13  N   UNL     1     143.385 128.595  97.749  0.00  0.00    +0.000 N 
ATOM     14  C   UNL     1     144.642 129.162  97.812  0.00  0.00    +0.000 C 
ATOM     15  H   UNL     1     143.237 127.605  97.904  0.00  0.00    +0.000 HD
BRANCH  13  16
ATOM     16  O   UNL     1     142.362 129.417  98.268  0.00  0.00    +0.000 OA
BRANCH  16  17
ATOM     17  C   UNL     1     142.000 128.875  99.429  0.00  0.00    +0.000 C 
ATOM     18  C   UNL     1     141.579 128.238 100.758  0.00  0.00    +0.000 C 
BRANCH  18  19
ATOM     19  O   UNL     1     141.213 127.679 101.906  0.00  0.00    +0.000 OA
ATOM     20  H   UNL     1     140.996 126.742 101.768  0.00  0.00    +0.000 HD
ENDBRANCH  18  19
ENDBRANCH  16  17
ENDBRANCH  13  16
ENDBRANCH   7  14
BRANCH   6  21
ATOM     21  N   UNL     1     146.416 128.258  99.944  0.00  0.00    +0.000 N 
ATOM     22  H   UNL     1     146.382 129.283 100.057  0.00  0.00    +0.000 HD
BRANCH  21  25
ATOM     23 BR   UNL     1     143.888 125.351 104.670  0.00  0.00    +0.000 Br
ATOM     24  F   UNL     1     147.121 128.808 102.553  0.00  0.00    +0.000 F 
ATOM     25  C   UNL     1     145.783 127.595 101.015  0.00  0.00    +0.000 A 
ATOM     26  C   UNL     1     146.181 127.875 102.333  0.00  0.00    +0.000 A 
ATOM     27  C   UNL     1     144.816 126.603 100.833  0.00  0.00    +0.000 A 
ATOM     28  C   UNL     1     145.626 127.219 103.427  0.00  0.00    +0.000 A 
ATOM     29  C   UNL     1     144.247 125.935 101.916  0.00  0.00    +0.000 A 
ATOM     30  C   UNL     1     144.657 126.250 103.206  0.00  0.00    +0.000 A 
ENDBRANCH  21  25
ENDBRANCH   6  21
TORSDOF 6
ENDMDL
MODEL 7
REMARK VINA RESULT:      -6.2      3.505      6.346
REMARK  Name = 10288191_Binimetinib.pdbqt.pdb
REMARK  6 active torsions:
REMARK  status: ('A' for Active; 'I' for Inactive)
REMARK    1  A    between atoms: C_6  and  N_21
REMARK    2  A    between atoms: C_7  and  C_14
REMARK    3  A    between atoms: N_13  and  O_16
REMARK    4  A    between atoms: O_16  and  C_17
REMARK    5  A    between atoms: C_18  and  O_19
REMARK    6  A    between atoms: N_21  and  C_25
REMARK                            x       y       z     vdW  Elec       q    Type
REMARK                         _______ _______ _______ _____ _____    ______ ____
ROOT
ATOM      1  F   UNL     1     147.271 123.847  96.587  0.00  0.00    +0.000 F 
ATOM      2  N   UNL     1     148.610 127.773  94.790  0.00  0.00    +0.000 N 
ATOM      3  N   UNL     1     148.437 125.589  94.518  0.00  0.00    +0.000 NA
ATOM      4  C   UNL     1     148.004 127.333  95.932  0.00  0.00    +0.000 A 
ATOM      5  C   UNL     1     147.902 125.959  95.739  0.00  0.00    +0.000 A 
ATOM      6  C   UNL     1     146.819 125.771  97.937  0.00  0.00    +0.000 A 
ATOM      7  C   UNL     1     146.962 127.175  98.092  0.00  0.00    +0.000 A 
ATOM      8  C   UNL     1     147.555 127.968  97.092  0.00  0.00    +0.000 A 
ATOM      9  C   UNL     1     147.308 125.178  96.749  0.00  0.00    +0.000 A 
ATOM     10  C   UNL     1     148.855 126.714  93.969  0.00  0.00    +0.000 A 
ATOM     11  C   UNL     1     148.922 129.130  94.488  0.00  0.00    +0.000 C 
ENDROOT
BRANCH   7  14
ATOM     12  O   UNL     1     145.460 128.501  99.339  0.00  0.00    +0.000 OA
ATOM     13  N   UNL     1     147.340 127.753 100.441  0.00  0.00    +0.000 N 
ATOM     14  C   UNL     1     146.514 127.870  99.341  0.00  0.00    +0.000 C 
ATOM     15  H   UNL     1     148.329 127.559 100.348  0.00  0.00    +0.000 HD
BRANCH  13  16
ATOM     16  O   UNL     1     147.025 128.646 101.488  0.00  0.00    +0.000 OA
BRANCH  16  17
ATOM     17  C   UNL     1     146.730 127.892 102.545  0.00  0.00    +0.000 C 
ATOM     18  C   UNL     1     146.380 127.019 103.755  0.00  0.00    +0.000 C 
BRANCH  18  19
ATOM     19  O   UNL     1     146.071 126.259 104.800  0.00  0.00    +0.000 OA
ATOM     20  H   UNL     1     145.552 126.770 105.444  0.00  0.00    +0.000 HD
ENDBRANCH  18  19
ENDBRANCH  16  17
ENDBRANCH  13  16
ENDBRANCH   7  14
BRANCH   6  21
ATOM     21  N   UNL     1     146.177 125.000  98.941  0.00  0.00    +0.000 N 
ATOM     22  H   UNL     1     146.750 124.879  99.790  0.00  0.00    +0.000 HD
BRANCH  21  25
ATOM     23 BR   UNL     1     140.234 123.947  99.813  0.00  0.00    +0.000 Br
ATOM     24  F   UNL     1     144.788 123.123  97.474  0.00  0.00    +0.000 F 
ATOM     25  C   UNL     1     144.812 124.754  99.196  0.00  0.00    +0.000 A 
ATOM     26  C   UNL     1     144.122 123.811  98.415  0.00  0.00    +0.000 A 
ATOM     27  C   UNL     1     144.075 125.461 100.149  0.00  0.00    +0.000 A 
ATOM     28  C   UNL     1     142.765 123.560  98.589  0.00  0.00    +0.000 A 
ATOM     29  C   UNL     1     142.714 125.222 100.339  0.00  0.00    +0.000 A 
ATOM     30  C   UNL     1     142.070 124.272  99.557  0.00  0.00    +0.000 A 
ENDBRANCH  21  25
ENDBRANCH   6  21
TORSDOF 6
ENDMDL
MODEL 8
REMARK VINA RESULT:      -6.0      3.960      7.445
REMARK  Name = 10288191_Binimetinib.pdbqt.pdb
REMARK  6 active torsions:
REMARK  status: ('A' for Active; 'I' for Inactive)
REMARK    1  A    between atoms: C_6  and  N_21
REMARK    2  A    between atoms: C_7  and  C_14
REMARK    3  A    between atoms: N_13  and  O_16
REMARK    4  A    between atoms: O_16  and  C_17
REMARK    5  A    between atoms: C_18  and  O_19
REMARK    6  A    between atoms: N_21  and  C_25
REMARK                            x       y       z     vdW  Elec       q    Type
REMARK                         _______ _______ _______ _____ _____    ______ ____
ROOT
ATOM      1  F   UNL     1     141.705 129.102  96.495  0.00  0.00    +0.000 F 
ATOM      2  N   UNL     1     141.567 126.956  92.519  0.00  0.00    +0.000 N 
ATOM      3  N   UNL     1     141.597 128.902  93.558  0.00  0.00    +0.000 NA
ATOM      4  C   UNL     1     141.647 126.634  93.844  0.00  0.00    +0.000 A 
ATOM      5  C   UNL     1     141.669 127.873  94.479  0.00  0.00    +0.000 A 
ATOM      6  C   UNL     1     141.816 126.715  96.642  0.00  0.00    +0.000 A 
ATOM      7  C   UNL     1     141.775 125.478  95.946  0.00  0.00    +0.000 A 
ATOM      8  C   UNL     1     141.691 125.427  94.543  0.00  0.00    +0.000 A 
ATOM      9  C   UNL     1     141.751 127.908  95.884  0.00  0.00    +0.000 A 
ATOM     10  C   UNL     1     141.539 128.310  92.381  0.00  0.00    +0.000 A 
ATOM     11  C   UNL     1     141.539 126.024  91.441  0.00  0.00    +0.000 C 
ENDROOT
BRANCH   7  14
ATOM     12  O   UNL     1     140.744 123.727  97.147  0.00  0.00    +0.000 OA
ATOM     13  N   UNL     1     143.012 123.539  96.786  0.00  0.00    +0.000 N 
ATOM     14  C   UNL     1     141.790 124.172  96.680  0.00  0.00    +0.000 C 
ATOM     15  H   UNL     1     143.885 124.049  96.731  0.00  0.00    +0.000 HD
BRANCH  13  16
ATOM     16  O   UNL     1     143.025 122.476  97.715  0.00  0.00    +0.000 OA
BRANCH  16  17
ATOM     17  C   UNL     1     143.584 122.956  98.823  0.00  0.00    +0.000 C 
ATOM     18  C   UNL     1     144.233 123.520 100.092  0.00  0.00    +0.000 C 
BRANCH  18  19
ATOM     19  O   UNL     1     144.797 124.016 101.188  0.00  0.00    +0.000 OA
ATOM     20  H   UNL     1     144.114 124.275 101.828  0.00  0.00    +0.000 HD
ENDBRANCH  18  19
ENDBRANCH  16  17
ENDBRANCH  13  16
ENDBRANCH   7  14
BRANCH   6  21
ATOM     21  N   UNL     1     141.947 126.739  98.054  0.00  0.00    +0.000 N 
ATOM     22  H   UNL     1     141.206 126.211  98.541  0.00  0.00    +0.000 HD
BRANCH  21  25
ATOM     23 BR   UNL     1     146.700 127.817 101.719  0.00  0.00    +0.000 Br
ATOM     24  F   UNL     1     141.631 127.401 100.713  0.00  0.00    +0.000 F 
ATOM     25  C   UNL     1     143.070 126.943  98.884  0.00  0.00    +0.000 A 
ATOM     26  C   UNL     1     142.879 127.306 100.228  0.00  0.00    +0.000 A 
ATOM     27  C   UNL     1     144.384 126.877  98.416  0.00  0.00    +0.000 A 
ATOM     28  C   UNL     1     143.947 127.566 101.081  0.00  0.00    +0.000 A 
ATOM     29  C   UNL     1     145.468 127.132  99.256  0.00  0.00    +0.000 A 
ATOM     30  C   UNL     1     145.239 127.474 100.583  0.00  0.00    +0.000 A 
ENDBRANCH  21  25
ENDBRANCH   6  21
TORSDOF 6
ENDMDL
MODEL 9
REMARK VINA RESULT:      -5.9      3.756      6.066
REMARK  Name = 10288191_Binimetinib.pdbqt.pdb
REMARK  6 active torsions:
REMARK  status: ('A' for Active; 'I' for Inactive)
REMARK    1  A    between atoms: C_6  and  N_21
REMARK    2  A    between atoms: C_7  and  C_14
REMARK    3  A    between atoms: N_13  and  O_16
REMARK    4  A    between atoms: O_16  and  C_17
REMARK    5  A    between atoms: C_18  and  O_19
REMARK    6  A    between atoms: N_21  and  C_25
REMARK                            x       y       z     vdW  Elec       q    Type
REMARK                         _______ _______ _______ _____ _____    ______ ____
ROOT
ATOM      1  F   UNL     1     144.301 126.746  93.985  0.00  0.00    +0.000 F 
ATOM      2  N   UNL     1     147.332 128.740  96.682  0.00  0.00    +0.000 N 
ATOM      3  N   UNL     1     146.970 127.724  94.756  0.00  0.00    +0.000 NA
ATOM      4  C   UNL     1     145.993 128.472  96.683  0.00  0.00    +0.000 A 
ATOM      5  C   UNL     1     145.786 127.837  95.462  0.00  0.00    +0.000 A 
ATOM      6  C   UNL     1     143.400 127.636  96.016  0.00  0.00    +0.000 A 
ATOM      7  C   UNL     1     143.668 128.275  97.256  0.00  0.00    +0.000 A 
ATOM      8  C   UNL     1     144.965 128.698  97.600  0.00  0.00    +0.000 A 
ATOM      9  C   UNL     1     144.483 127.417  95.133  0.00  0.00    +0.000 A 
ATOM     10  C   UNL     1     147.886 128.284  95.524  0.00  0.00    +0.000 A 
ATOM     11  C   UNL     1     148.043 129.412  97.718  0.00  0.00    +0.000 C 
ENDROOT
BRANCH   7  14
ATOM     12  O   UNL     1     141.740 129.370  98.065  0.00  0.00    +0.000 OA
ATOM     13  N   UNL     1     142.609 127.693  99.385  0.00  0.00    +0.000 N 
ATOM     14  C   UNL     1     142.584 128.500  98.265  0.00  0.00    +0.000 C 
ATOM     15  H   UNL     1     143.462 127.258  99.711  0.00  0.00    +0.000 HD
BRANCH  13  16
ATOM     16  O   UNL     1     141.753 128.129 100.420  0.00  0.00    +0.000 OA
BRANCH  16  17
ATOM     17  C   UNL     1     142.349 127.792 101.563  0.00  0.00    +0.000 C 
ATOM     18  C   UNL     1     143.025 127.394 102.879  0.00  0.00    +0.000 C 
BRANCH  18  19
ATOM     19  O   UNL     1     143.606 127.042 104.021  0.00  0.00    +0.000 OA
ATOM     20  H   UNL     1     143.021 126.453 104.527  0.00  0.00    +0.000 HD
ENDBRANCH  18  19
ENDBRANCH  16  17
ENDBRANCH  13  16
ENDBRANCH   7  14
BRANCH   6  21
ATOM     21  N   UNL     1     142.076 127.260  95.674  0.00  0.00    +0.000 N 
ATOM     22  H   UNL     1     141.559 126.833  96.458  0.00  0.00    +0.000 HD
BRANCH  21  25
ATOM     23 BR   UNL     1     138.463 129.235  91.175  0.00  0.00    +0.000 Br
ATOM     24  F   UNL     1     141.600 125.762  93.408  0.00  0.00    +0.000 F 
ATOM     25  C   UNL     1     141.203 127.730  94.671  0.00  0.00    +0.000 A 
ATOM     26  C   UNL     1     141.000 126.959  93.514  0.00  0.00    +0.000 A 
ATOM     27  C   UNL     1     140.576 128.977  94.729  0.00  0.00    +0.000 A 
ATOM     28  C   UNL     1     140.188 127.391  92.471  0.00  0.00    +0.000 A 
ATOM     29  C   UNL     1     139.757 129.428  93.694  0.00  0.00    +0.000 A 
ATOM     30  C   UNL     1     139.569 128.629  92.572  0.00  0.00    +0.000 A 
ENDBRANCH  21  25
ENDBRANCH   6  21
TORSDOF 6
ENDMDL
