MODEL 1
REMARK VINA RESULT:      -7.6      0.000      0.000
REMARK  Name = 10639_Physcion.pdbqt.pdb
REMARK  3 active torsions:
REMARK  status: ('A' for Active; 'I' for Inactive)
REMARK    1  A    between atoms: C_10  and  O_18
REMARK    2  A    between atoms: C_12  and  O_20
REMARK    3  A    between atoms: C_15  and  O_22
REMARK                            x       y       z     vdW  Elec       q    Type
REMARK                         _______ _______ _______ _____ _____    ______ ____
ROOT
ATOM      1  O   UNL     1     141.634 126.142 101.788  0.00  0.00    +0.000 OA
ATOM      2  O   UNL     1     146.213 123.927 100.207  0.00  0.00    +0.000 OA
ATOM      3  C   UNL     1     145.130 125.430 101.632  0.00  0.00    +0.000 A 
ATOM      4  C   UNL     1     143.928 126.004 102.039  0.00  0.00    +0.000 A 
ATOM      5  C   UNL     1     142.675 124.592 100.303  0.00  0.00    +0.000 A 
ATOM      6  C   UNL     1     143.894 124.033  99.916  0.00  0.00    +0.000 A 
ATOM      7  C   UNL     1     142.661 125.605 101.389  0.00  0.00    +0.000 C 
ATOM      8  C   UNL     1     145.155 124.428 100.560  0.00  0.00    +0.000 C 
ATOM      9  C   UNL     1     146.336 125.794 102.234  0.00  0.00    +0.000 A 
ATOM     10  C   UNL     1     143.950 126.957 103.066  0.00  0.00    +0.000 A 
ATOM     11  C   UNL     1     146.341 126.741 103.252  0.00  0.00    +0.000 A 
ATOM     12  C   UNL     1     141.514 124.168  99.645  0.00  0.00    +0.000 A 
ATOM     13  C   UNL     1     143.958 123.075  98.898  0.00  0.00    +0.000 A 
ATOM     14  C   UNL     1     145.152 127.326 103.673  0.00  0.00    +0.000 A 
ATOM     15  C   UNL     1     142.800 122.659  98.248  0.00  0.00    +0.000 A 
ATOM     16  C   UNL     1     141.579 123.211  98.629  0.00  0.00    +0.000 A 
ATOM     17  C   UNL     1     147.638 127.131 103.897  0.00  0.00    +0.000 C 
ENDROOT
BRANCH  10  18
ATOM     18  O   UNL     1     142.823 127.576 103.534  0.00  0.00    +0.000 OA
ATOM     19  H   UNL     1     142.928 127.742 104.501  0.00  0.00    +0.000 HD
ENDBRANCH  10  18
BRANCH  12  20
ATOM     20  O   UNL     1     140.286 124.669  99.969  0.00  0.00    +0.000 OA
ATOM     21  H   UNL     1     140.285 125.638  99.869  0.00  0.00    +0.000 HD
ENDBRANCH  12  20
BRANCH  15  22
ATOM     22  O   UNL     1     142.968 121.716  97.265  0.00  0.00    +0.000 OA
ATOM     23  C   UNL     1     142.108 121.844  96.167  0.00  0.00    +0.000 C 
ENDBRANCH  15  22
TORSDOF 3
ENDMDL
MODEL 2
REMARK VINA RESULT:      -7.1     32.308     34.294
REMARK  Name = 10639_Physcion.pdbqt.pdb
REMARK  3 active torsions:
REMARK  status: ('A' for Active; 'I' for Inactive)
REMARK    1  A    between atoms: C_10  and  O_18
REMARK    2  A    between atoms: C_12  and  O_20
REMARK    3  A    between atoms: C_15  and  O_22
REMARK                            x       y       z     vdW  Elec       q    Type
REMARK                         _______ _______ _______ _____ _____    ______ ____
ROOT
ATOM      1  O   UNL     1     137.541 122.917 131.570  0.00  0.00    +0.000 OA
ATOM      2  O   UNL     1     137.313 122.778 136.891  0.00  0.00    +0.000 OA
ATOM      3  C   UNL     1     138.491 123.418 134.976  0.00  0.00    +0.000 A 
ATOM      4  C   UNL     1     138.542 123.450 133.585  0.00  0.00    +0.000 A 
ATOM      5  C   UNL     1     136.286 122.235 133.482  0.00  0.00    +0.000 A 
ATOM      6  C   UNL     1     136.261 122.217 134.877  0.00  0.00    +0.000 A 
ATOM      7  C   UNL     1     137.443 122.860 132.790  0.00  0.00    +0.000 C 
ATOM      8  C   UNL     1     137.353 122.803 135.668  0.00  0.00    +0.000 C 
ATOM      9  C   UNL     1     139.520 123.970 135.742  0.00  0.00    +0.000 A 
ATOM     10  C   UNL     1     139.649 124.047 132.964  0.00  0.00    +0.000 A 
ATOM     11  C   UNL     1     140.611 124.559 135.111  0.00  0.00    +0.000 A 
ATOM     12  C   UNL     1     135.211 121.658 132.793  0.00  0.00    +0.000 A 
ATOM     13  C   UNL     1     135.193 121.640 135.572  0.00  0.00    +0.000 A 
ATOM     14  C   UNL     1     140.681 124.601 133.723  0.00  0.00    +0.000 A 
ATOM     15  C   UNL     1     134.129 121.069 134.881  0.00  0.00    +0.000 A 
ATOM     16  C   UNL     1     134.146 121.082 133.488  0.00  0.00    +0.000 A 
ATOM     17  C   UNL     1     141.714 125.151 135.936  0.00  0.00    +0.000 C 
ENDROOT
BRANCH  10  18
ATOM     18  O   UNL     1     139.789 124.127 131.605  0.00  0.00    +0.000 OA
ATOM     19  H   UNL     1     140.586 124.670 131.398  0.00  0.00    +0.000 HD
ENDBRANCH  10  18
BRANCH  12  20
ATOM     20  O   UNL     1     135.166 121.638 131.429  0.00  0.00    +0.000 OA
ATOM     21  H   UNL     1     134.347 121.205 131.130  0.00  0.00    +0.000 HD
ENDBRANCH  12  20
BRANCH  15  22
ATOM     22  O   UNL     1     133.132 120.529 135.654  0.00  0.00    +0.000 OA
ATOM     23  C   UNL     1     132.069 119.960 134.940  0.00  0.00    +0.000 C 
ENDBRANCH  15  22
TORSDOF 3
ENDMDL
MODEL 3
REMARK VINA RESULT:      -6.7     32.215     34.700
REMARK  Name = 10639_Physcion.pdbqt.pdb
REMARK  3 active torsions:
REMARK  status: ('A' for Active; 'I' for Inactive)
REMARK    1  A    between atoms: C_10  and  O_18
REMARK    2  A    between atoms: C_12  and  O_20
REMARK    3  A    between atoms: C_15  and  O_22
REMARK                            x       y       z     vdW  Elec       q    Type
REMARK                         _______ _______ _______ _____ _____    ______ ____
ROOT
ATOM      1  O   UNL     1     136.533 120.036 136.200  0.00  0.00    +0.000 OA
ATOM      2  O   UNL     1     135.146 122.491 131.679  0.00  0.00    +0.000 OA
ATOM      3  C   UNL     1     134.724 120.776 133.210  0.00  0.00    +0.000 A 
ATOM      4  C   UNL     1     135.094 120.140 134.393  0.00  0.00    +0.000 A 
ATOM      5  C   UNL     1     137.021 121.808 134.677  0.00  0.00    +0.000 A 
ATOM      6  C   UNL     1     136.628 122.425 133.489  0.00  0.00    +0.000 A 
ATOM      7  C   UNL     1     136.253 120.633 135.167  0.00  0.00    +0.000 C 
ATOM      8  C   UNL     1     135.475 121.936 132.719  0.00  0.00    +0.000 C 
ATOM      9  C   UNL     1     133.631 120.323 132.467  0.00  0.00    +0.000 A 
ATOM     10  C   UNL     1     134.348 119.035 134.826  0.00  0.00    +0.000 A 
ATOM     11  C   UNL     1     132.902 119.226 132.910  0.00  0.00    +0.000 A 
ATOM     12  C   UNL     1     138.129 122.328 135.359  0.00  0.00    +0.000 A 
ATOM     13  C   UNL     1     137.319 123.534 132.989  0.00  0.00    +0.000 A 
ATOM     14  C   UNL     1     133.255 118.577 134.088  0.00  0.00    +0.000 A 
ATOM     15  C   UNL     1     138.419 124.045 133.671  0.00  0.00    +0.000 A 
ATOM     16  C   UNL     1     138.818 123.434 134.858  0.00  0.00    +0.000 A 
ATOM     17  C   UNL     1     131.729 118.742 132.110  0.00  0.00    +0.000 C 
ENDROOT
BRANCH  10  18
ATOM     18  O   UNL     1     134.633 118.345 135.973  0.00  0.00    +0.000 OA
ATOM     19  H   UNL     1     133.805 118.247 136.500  0.00  0.00    +0.000 HD
ENDBRANCH  10  18
BRANCH  12  20
ATOM     20  O   UNL     1     138.572 121.777 136.526  0.00  0.00    +0.000 OA
ATOM     21  H   UNL     1     138.618 120.808 136.441  0.00  0.00    +0.000 HD
ENDBRANCH  12  20
BRANCH  15  22
ATOM     22  O   UNL     1     139.028 125.133 133.098  0.00  0.00    +0.000 OA
ATOM     23  C   UNL     1     139.603 124.899 131.842  0.00  0.00    +0.000 C 
ENDBRANCH  15  22
TORSDOF 3
ENDMDL
MODEL 4
REMARK VINA RESULT:      -6.7      1.125      1.906
REMARK  Name = 10639_Physcion.pdbqt.pdb
REMARK  3 active torsions:
REMARK  status: ('A' for Active; 'I' for Inactive)
REMARK    1  A    between atoms: C_10  and  O_18
REMARK    2  A    between atoms: C_12  and  O_20
REMARK    3  A    between atoms: C_15  and  O_22
REMARK                            x       y       z     vdW  Elec       q    Type
REMARK                         _______ _______ _______ _____ _____    ______ ____
ROOT
ATOM      1  O   UNL     1     140.779 124.984 100.373  0.00  0.00    +0.000 OA
ATOM      2  O   UNL     1     145.571 123.341  98.722  0.00  0.00    +0.000 OA
ATOM      3  C   UNL     1     144.326 124.579 100.266  0.00  0.00    +0.000 A 
ATOM      4  C   UNL     1     143.070 125.004 100.690  0.00  0.00    +0.000 A 
ATOM      5  C   UNL     1     141.988 123.702  98.764  0.00  0.00    +0.000 A 
ATOM      6  C   UNL     1     143.259 123.291  98.361  0.00  0.00    +0.000 A 
ATOM      7  C   UNL     1     141.859 124.581  99.955  0.00  0.00    +0.000 C 
ATOM      8  C   UNL     1     144.465 123.711  99.091  0.00  0.00    +0.000 C 
ATOM      9  C   UNL     1     145.481 124.969 100.948  0.00  0.00    +0.000 A 
ATOM     10  C   UNL     1     142.984 125.833 101.818  0.00  0.00    +0.000 A 
ATOM     11  C   UNL     1     145.378 125.791 102.065  0.00  0.00    +0.000 A 
ATOM     12  C   UNL     1     140.884 123.263  98.021  0.00  0.00    +0.000 A 
ATOM     13  C   UNL     1     143.431 122.464  97.246  0.00  0.00    +0.000 A 
ATOM     14  C   UNL     1     144.133 126.226 102.504  0.00  0.00    +0.000 A 
ATOM     15  C   UNL     1     142.331 122.032  96.513  0.00  0.00    +0.000 A 
ATOM     16  C   UNL     1     141.057 122.437  96.908  0.00  0.00    +0.000 A 
ATOM     17  C   UNL     1     146.619 126.209 102.795  0.00  0.00    +0.000 C 
ENDROOT
BRANCH  10  18
ATOM     18  O   UNL     1     141.796 126.301 102.310  0.00  0.00    +0.000 OA
ATOM     19  H   UNL     1     141.104 126.213 101.612  0.00  0.00    +0.000 HD
ENDBRANCH  10  18
BRANCH  12  20
ATOM     20  O   UNL     1     139.611 123.623  98.354  0.00  0.00    +0.000 OA
ATOM     21  H   UNL     1     139.565 123.848  99.301  0.00  0.00    +0.000 HD
ENDBRANCH  12  20
BRANCH  15  22
ATOM     22  O   UNL     1     142.605 121.224  95.438  0.00  0.00    +0.000 OA
ATOM     23  C   UNL     1     143.936 121.251  94.999  0.00  0.00    +0.000 C 
ENDBRANCH  15  22
TORSDOF 3
ENDMDL
MODEL 5
REMARK VINA RESULT:      -6.6      1.788      2.075
REMARK  Name = 10639_Physcion.pdbqt.pdb
REMARK  3 active torsions:
REMARK  status: ('A' for Active; 'I' for Inactive)
REMARK    1  A    between atoms: C_10  and  O_18
REMARK    2  A    between atoms: C_12  and  O_20
REMARK    3  A    between atoms: C_15  and  O_22
REMARK                            x       y       z     vdW  Elec       q    Type
REMARK                         _______ _______ _______ _____ _____    ______ ____
ROOT
ATOM      1  O   UNL     1     141.882 127.334  99.053  0.00  0.00    +0.000 OA
ATOM      2  O   UNL     1     144.370 123.015 100.933  0.00  0.00    +0.000 OA
ATOM      3  C   UNL     1     143.707 125.228 101.287  0.00  0.00    +0.000 A 
ATOM      4  C   UNL     1     143.055 126.353 100.787  0.00  0.00    +0.000 A 
ATOM      5  C   UNL     1     142.528 125.077  98.626  0.00  0.00    +0.000 A 
ATOM      6  C   UNL     1     143.188 123.966  99.152  0.00  0.00    +0.000 A 
ATOM      7  C   UNL     1     142.444 126.317  99.441  0.00  0.00    +0.000 C 
ATOM      8  C   UNL     1     143.796 124.000 100.490  0.00  0.00    +0.000 C 
ATOM      9  C   UNL     1     144.290 125.245 102.556  0.00  0.00    +0.000 A 
ATOM     10  C   UNL     1     142.993 127.506 101.583  0.00  0.00    +0.000 A 
ATOM     11  C   UNL     1     144.220 126.397 103.333  0.00  0.00    +0.000 A 
ATOM     12  C   UNL     1     141.973 124.972  97.344  0.00  0.00    +0.000 A 
ATOM     13  C   UNL     1     143.293 122.777  98.422  0.00  0.00    +0.000 A 
ATOM     14  C   UNL     1     143.574 127.530 102.852  0.00  0.00    +0.000 A 
ATOM     15  C   UNL     1     142.739 122.680  97.149  0.00  0.00    +0.000 A 
ATOM     16  C   UNL     1     142.078 123.785  96.617  0.00  0.00    +0.000 A 
ATOM     17  C   UNL     1     144.847 126.412 104.695  0.00  0.00    +0.000 C 
ENDROOT
BRANCH  10  18
ATOM     18  O   UNL     1     142.375 128.659 101.179  0.00  0.00    +0.000 OA
ATOM     19  H   UNL     1     142.974 129.142 100.563  0.00  0.00    +0.000 HD
ENDBRANCH  10  18
BRANCH  12  20
ATOM     20  O   UNL     1     141.313 126.017  96.765  0.00  0.00    +0.000 OA
ATOM     21  H   UNL     1     141.952 126.629  96.358  0.00  0.00    +0.000 HD
ENDBRANCH  12  20
BRANCH  15  22
ATOM     22  O   UNL     1     142.896 121.472  96.516  0.00  0.00    +0.000 OA
ATOM     23  C   UNL     1     143.700 121.504  95.368  0.00  0.00    +0.000 C 
ENDBRANCH  15  22
TORSDOF 3
ENDMDL
MODEL 6
REMARK VINA RESULT:      -6.3      3.011      6.377
REMARK  Name = 10639_Physcion.pdbqt.pdb
REMARK  3 active torsions:
REMARK  status: ('A' for Active; 'I' for Inactive)
REMARK    1  A    between atoms: C_10  and  O_18
REMARK    2  A    between atoms: C_12  and  O_20
REMARK    3  A    between atoms: C_15  and  O_22
REMARK                            x       y       z     vdW  Elec       q    Type
REMARK                         _______ _______ _______ _____ _____    ______ ____
ROOT
ATOM      1  O   UNL     1     143.317 123.911  98.414  0.00  0.00    +0.000 OA
ATOM      2  O   UNL     1     142.163 128.751 100.315  0.00  0.00    +0.000 OA
ATOM      3  C   UNL     1     142.196 127.301  98.483  0.00  0.00    +0.000 A 
ATOM      4  C   UNL     1     142.500 126.033  97.994  0.00  0.00    +0.000 A 
ATOM      5  C   UNL     1     143.313 125.339 100.325  0.00  0.00    +0.000 A 
ATOM      6  C   UNL     1     142.998 126.617 100.787  0.00  0.00    +0.000 A 
ATOM      7  C   UNL     1     143.069 125.009  98.897  0.00  0.00    +0.000 C 
ATOM      8  C   UNL     1     142.433 127.636  99.891  0.00  0.00    +0.000 C 
ATOM      9  C   UNL     1     141.658 128.280  97.644  0.00  0.00    +0.000 A 
ATOM     10  C   UNL     1     142.258 125.755  96.642  0.00  0.00    +0.000 A 
ATOM     11  C   UNL     1     141.423 127.988  96.305  0.00  0.00    +0.000 A 
ATOM     12  C   UNL     1     143.849 124.419 101.236  0.00  0.00    +0.000 A 
ATOM     13  C   UNL     1     143.210 126.974 102.123  0.00  0.00    +0.000 A 
ATOM     14  C   UNL     1     141.721 126.728  95.798  0.00  0.00    +0.000 A 
ATOM     15  C   UNL     1     143.743 126.055 103.022  0.00  0.00    +0.000 A 
ATOM     16  C   UNL     1     144.060 124.776 102.569  0.00  0.00    +0.000 A 
ATOM     17  C   UNL     1     140.846 129.041  95.407  0.00  0.00    +0.000 C 
ENDROOT
BRANCH  10  18
ATOM     18  O   UNL     1     142.524 124.540  96.070  0.00  0.00    +0.000 OA
ATOM     19  H   UNL     1     143.002 123.978  96.724  0.00  0.00    +0.000 HD
ENDBRANCH  10  18
BRANCH  12  20
ATOM     20  O   UNL     1     144.181 123.150 100.857  0.00  0.00    +0.000 OA
ATOM     21  H   UNL     1     143.999 123.028  99.908  0.00  0.00    +0.000 HD
ENDBRANCH  12  20
BRANCH  15  22
ATOM     22  O   UNL     1     143.912 126.502 104.309  0.00  0.00    +0.000 OA
ATOM     23  C   UNL     1     145.243 126.562 104.746  0.00  0.00    +0.000 C 
ENDBRANCH  15  22
TORSDOF 3
ENDMDL
MODEL 7
REMARK VINA RESULT:      -6.3      2.289      6.771
REMARK  Name = 10639_Physcion.pdbqt.pdb
REMARK  3 active torsions:
REMARK  status: ('A' for Active; 'I' for Inactive)
REMARK    1  A    between atoms: C_10  and  O_18
REMARK    2  A    between atoms: C_12  and  O_20
REMARK    3  A    between atoms: C_15  and  O_22
REMARK                            x       y       z     vdW  Elec       q    Type
REMARK                         _______ _______ _______ _____ _____    ______ ____
ROOT
ATOM      1  O   UNL     1     147.370 125.590  97.682  0.00  0.00    +0.000 OA
ATOM      2  O   UNL     1     143.262 123.774 100.547  0.00  0.00    +0.000 OA
ATOM      3  C   UNL     1     144.385 123.806  98.497  0.00  0.00    +0.000 A 
ATOM      4  C   UNL     1     145.462 124.286  97.756  0.00  0.00    +0.000 A 
ATOM      5  C   UNL     1     146.273 125.603  99.801  0.00  0.00    +0.000 A 
ATOM      6  C   UNL     1     145.185 125.107 100.520  0.00  0.00    +0.000 A 
ATOM      7  C   UNL     1     146.442 125.200  98.381  0.00  0.00    +0.000 C 
ATOM      8  C   UNL     1     144.210 124.198  99.900  0.00  0.00    +0.000 C 
ATOM      9  C   UNL     1     143.450 122.942  97.923  0.00  0.00    +0.000 A 
ATOM     10  C   UNL     1     145.591 123.885  96.419  0.00  0.00    +0.000 A 
ATOM     11  C   UNL     1     143.593 122.554  96.595  0.00  0.00    +0.000 A 
ATOM     12  C   UNL     1     147.162 126.465 100.456  0.00  0.00    +0.000 A 
ATOM     13  C   UNL     1     144.985 125.459 101.859  0.00  0.00    +0.000 A 
ATOM     14  C   UNL     1     144.661 123.023  95.838  0.00  0.00    +0.000 A 
ATOM     15  C   UNL     1     145.872 126.315 102.504  0.00  0.00    +0.000 A 
ATOM     16  C   UNL     1     146.961 126.815 101.793  0.00  0.00    +0.000 A 
ATOM     17  C   UNL     1     142.588 121.627  95.981  0.00  0.00    +0.000 C 
ENDROOT
BRANCH  10  18
ATOM     18  O   UNL     1     146.614 124.303  95.610  0.00  0.00    +0.000 OA
ATOM     19  H   UNL     1     146.810 123.595  94.952  0.00  0.00    +0.000 HD
ENDBRANCH  10  18
BRANCH  12  20
ATOM     20  O   UNL     1     148.249 126.990  99.818  0.00  0.00    +0.000 OA
ATOM     21  H   UNL     1     148.219 126.765  98.871  0.00  0.00    +0.000 HD
ENDBRANCH  12  20
BRANCH  15  22
ATOM     22  O   UNL     1     145.587 126.598 103.816  0.00  0.00    +0.000 OA
ATOM     23  C   UNL     1     144.365 126.093 104.281  0.00  0.00    +0.000 C 
ENDBRANCH  15  22
TORSDOF 3
ENDMDL
MODEL 8
REMARK VINA RESULT:      -6.1      3.632      6.465
REMARK  Name = 10639_Physcion.pdbqt.pdb
REMARK  3 active torsions:
REMARK  status: ('A' for Active; 'I' for Inactive)
REMARK    1  A    between atoms: C_10  and  O_18
REMARK    2  A    between atoms: C_12  and  O_20
REMARK    3  A    between atoms: C_15  and  O_22
REMARK                            x       y       z     vdW  Elec       q    Type
REMARK                         _______ _______ _______ _____ _____    ______ ____
ROOT
ATOM      1  O   UNL     1     146.491 128.005 100.067  0.00  0.00    +0.000 OA
ATOM      2  O   UNL     1     141.477 127.182 101.668  0.00  0.00    +0.000 OA
ATOM      3  C   UNL     1     142.923 127.879  99.969  0.00  0.00    +0.000 A 
ATOM      4  C   UNL     1     144.237 128.092  99.559  0.00  0.00    +0.000 A 
ATOM      5  C   UNL     1     145.073 127.280 101.844  0.00  0.00    +0.000 A 
ATOM      6  C   UNL     1     143.747 127.077 102.228  0.00  0.00    +0.000 A 
ATOM      7  C   UNL     1     145.356 127.800 100.481  0.00  0.00    +0.000 C 
ATOM      8  C   UNL     1     142.633 127.367 101.313  0.00  0.00    +0.000 C 
ATOM      9  C   UNL     1     141.854 128.150  99.112  0.00  0.00    +0.000 A 
ATOM     10  C   UNL     1     144.468 128.583  98.267  0.00  0.00    +0.000 A 
ATOM     11  C   UNL     1     142.100 128.636  97.833  0.00  0.00    +0.000 A 
ATOM     12  C   UNL     1     146.083 126.983 102.768  0.00  0.00    +0.000 A 
ATOM     13  C   UNL     1     143.431 126.590 103.500  0.00  0.00    +0.000 A 
ATOM     14  C   UNL     1     143.405 128.855  97.405  0.00  0.00    +0.000 A 
ATOM     15  C   UNL     1     144.439 126.296 104.413  0.00  0.00    +0.000 A 
ATOM     16  C   UNL     1     145.766 126.496 104.038  0.00  0.00    +0.000 A 
ATOM     17  C   UNL     1     140.951 128.926  96.915  0.00  0.00    +0.000 C 
ENDROOT
BRANCH  10  18
ATOM     18  O   UNL     1     145.722 128.824  97.773  0.00  0.00    +0.000 OA
ATOM     19  H   UNL     1     145.680 128.837  96.788  0.00  0.00    +0.000 HD
ENDBRANCH  10  18
BRANCH  12  20
ATOM     20  O   UNL     1     147.402 127.156 102.463  0.00  0.00    +0.000 OA
ATOM     21  H   UNL     1     147.744 127.953 102.906  0.00  0.00    +0.000 HD
ENDBRANCH  12  20
BRANCH  15  22
ATOM     22  O   UNL     1     144.026 125.824 105.633  0.00  0.00    +0.000 OA
ATOM     23  C   UNL     1     143.421 124.559 105.607  0.00  0.00    +0.000 C 
ENDBRANCH  15  22
TORSDOF 3
ENDMDL
MODEL 9
REMARK VINA RESULT:      -5.9      3.163      3.515
REMARK  Name = 10639_Physcion.pdbqt.pdb
REMARK  3 active torsions:
REMARK  status: ('A' for Active; 'I' for Inactive)
REMARK    1  A    between atoms: C_10  and  O_18
REMARK    2  A    between atoms: C_12  and  O_20
REMARK    3  A    between atoms: C_15  and  O_22
REMARK                            x       y       z     vdW  Elec       q    Type
REMARK                         _______ _______ _______ _____ _____    ______ ____
ROOT
ATOM      1  O   UNL     1     142.765 123.752 100.090  0.00  0.00    +0.000 OA
ATOM      2  O   UNL     1     144.261 128.553  98.332  0.00  0.00    +0.000 OA
ATOM      3  C   UNL     1     144.442 126.903  99.977  0.00  0.00    +0.000 A 
ATOM      4  C   UNL     1     144.045 125.648 100.430  0.00  0.00    +0.000 A 
ATOM      5  C   UNL     1     142.532 125.395  98.375  0.00  0.00    +0.000 A 
ATOM      6  C   UNL     1     142.948 126.656  97.946  0.00  0.00    +0.000 A 
ATOM      7  C   UNL     1     143.078 124.850  99.645  0.00  0.00    +0.000 C 
ATOM      8  C   UNL     1     143.910 127.450  98.725  0.00  0.00    +0.000 C 
ATOM      9  C   UNL     1     145.355 127.670 100.706  0.00  0.00    +0.000 A 
ATOM     10  C   UNL     1     144.580 125.164 101.632  0.00  0.00    +0.000 A 
ATOM     11  C   UNL     1     145.876 127.176 101.897  0.00  0.00    +0.000 A 
ATOM     12  C   UNL     1     141.614 124.695  97.582  0.00  0.00    +0.000 A 
ATOM     13  C   UNL     1     142.462 127.210  96.756  0.00  0.00    +0.000 A 
ATOM     14  C   UNL     1     145.492 125.924 102.365  0.00  0.00    +0.000 A 
ATOM     15  C   UNL     1     141.549 126.509  95.974  0.00  0.00    +0.000 A 
ATOM     16  C   UNL     1     141.129 125.249  96.395  0.00  0.00    +0.000 A 
ATOM     17  C   UNL     1     146.855 128.001 102.677  0.00  0.00    +0.000 C 
ENDROOT
BRANCH  10  18
ATOM     18  O   UNL     1     144.251 123.944 102.158  0.00  0.00    +0.000 OA
ATOM     19  H   UNL     1     144.951 123.293 101.915  0.00  0.00    +0.000 HD
ENDBRANCH  10  18
BRANCH  12  20
ATOM     20  O   UNL     1     141.162 123.457  97.936  0.00  0.00    +0.000 OA
ATOM     21  H   UNL     1     141.908 122.899  98.221  0.00  0.00    +0.000 HD
ENDBRANCH  12  20
BRANCH  15  22
ATOM     22  O   UNL     1     141.134 127.138  94.827  0.00  0.00    +0.000 OA
ATOM     23  C   UNL     1     142.143 127.381  93.884  0.00  0.00    +0.000 C 
ENDBRANCH  15  22
TORSDOF 3
ENDMDL
