REMARK  Name = 10639_Physcion.pdbqt.pdb
REMARK  3 active torsions:
REMARK  status: ('A' for Active; 'I' for Inactive)
REMARK    1  A    between atoms: C_10  and  O_18
REMARK    2  A    between atoms: C_12  and  O_20
REMARK    3  A    between atoms: C_15  and  O_22
REMARK                            x       y       z     vdW  Elec       q    Type
REMARK                         _______ _______ _______ _____ _____    ______ ____
ROOT
ATOM      1  O   UNL     1      -0.449  -2.603   0.001  0.00  0.00    +0.000 OA
ATOM      2  O   UNL     1      -0.168   2.717   0.000  0.00  0.00    +0.000 OA
ATOM      3  C   UNL     1      -1.514   0.806   0.000  0.00  0.00    +0.000 A 
ATOM      4  C   UNL     1      -1.578  -0.585   0.000  0.00  0.00    +0.000 A 
ATOM      5  C   UNL     1       0.984  -0.695   0.000  0.00  0.00    +0.000 A 
ATOM      6  C   UNL     1       1.018   0.700   0.000  0.00  0.00    +0.000 A 
ATOM      7  C   UNL     1      -0.333  -1.383   0.000  0.00  0.00    +0.000 C 
ATOM      8  C   UNL     1      -0.219   1.495   0.000  0.00  0.00    +0.000 C 
ATOM      9  C   UNL     1      -2.680   1.575   0.000  0.00  0.00    +0.000 A 
ATOM     10  C   UNL     1      -2.837  -1.202   0.000  0.00  0.00    +0.000 A 
ATOM     11  C   UNL     1      -3.921   0.948   0.000  0.00  0.00    +0.000 A 
ATOM     12  C   UNL     1       2.202  -1.387   0.000  0.00  0.00    +0.000 A 
ATOM     13  C   UNL     1       2.234   1.392   0.000  0.00  0.00    +0.000 A 
ATOM     14  C   UNL     1      -4.006  -0.440   0.000  0.00  0.00    +0.000 A 
ATOM     15  C   UNL     1       3.440   0.698   0.000  0.00  0.00    +0.000 A 
ATOM     16  C   UNL     1       3.415  -0.695   0.000  0.00  0.00    +0.000 A 
ATOM     17  C   UNL     1      -5.171   1.776   0.000  0.00  0.00    +0.000 C 
ENDROOT
BRANCH  10  18
ATOM     18  O   UNL     1      -3.002  -2.561   0.000  0.00  0.00    +0.000 OA
ATOM     19  H   UNL     1      -2.114  -2.990   0.001  0.00  0.00    +0.000 HD
ENDBRANCH  10  18
BRANCH  12  20
ATOM     20  O   UNL     1       2.248  -2.751   0.000  0.00  0.00    +0.000 OA
ATOM     21  H   UNL     1       3.174  -3.053   0.000  0.00  0.00    +0.000 HD
ENDBRANCH  12  20
BRANCH  15  22
ATOM     22  O   UNL     1       4.576   1.468   0.000  0.00  0.00    +0.000 OA
ATOM     23  C   UNL     1       5.780   0.750   0.000  0.00  0.00    +0.000 C 
ENDBRANCH  15  22
TORSDOF 3
