MODEL 1
REMARK VINA RESULT:      -7.9      0.000      0.000
REMARK  Name = 10940649_MilnamideD.pdbqt.pdb
REMARK  7 active torsions:
REMARK  status: ('A' for Active; 'I' for Inactive)
REMARK    1  A    between atoms: C_3  and  C_8
REMARK    2  A    between atoms: C_22  and  C_25
REMARK    3  A    between atoms: C_22  and  C_38
REMARK    4  A    between atoms: N_24  and  C_27
REMARK    5  A    between atoms: C_27  and  C_28
REMARK    6  A    between atoms: C_32  and  C_35
REMARK    7  A    between atoms: C_35  and  O_36
REMARK                            x       y       z     vdW  Elec       q    Type
REMARK                         _______ _______ _______ _____ _____    ______ ____
ROOT
ATOM      1  O   UNL     1     145.263 125.971  97.766  0.00  0.00    +0.000 OA
ATOM      2  N   UNL     1     143.663 124.706  96.770  0.00  0.00    +0.000 N 
ATOM      3  C   UNL     1     144.843 125.424  96.753  0.00  0.00    +0.000 C 
ATOM      4  H   UNL     1     143.294 124.351  95.880  0.00  0.00    +0.000 HD
ATOM      5  C   UNL     1     142.865 124.477  97.917  0.00  0.00    +0.000 C 
ENDROOT
BRANCH   3   9
ATOM      6  N   UNL     1     145.186 126.505  94.442  0.00  0.00    +0.000 NA
ATOM      7  N   UNL     1     147.793 125.279  91.779  0.00  0.00    +0.000 N 
ATOM      8  C   UNL     1     146.481 124.272  95.125  0.00  0.00    +0.000 C 
ATOM      9  C   UNL     1     145.564 125.491  95.441  0.00  0.00    +0.000 C 
ATOM     10  C   UNL     1     147.251 124.394  93.773  0.00  0.00    +0.000 A 
ATOM     11  C   UNL     1     147.008 125.411  92.872  0.00  0.00    +0.000 A 
ATOM     12  C   UNL     1     145.614 122.990  94.951  0.00  0.00    +0.000 C 
ATOM     13  C   UNL     1     147.596 124.164  96.205  0.00  0.00    +0.000 C 
ATOM     14  C   UNL     1     148.263 123.578  93.150  0.00  0.00    +0.000 A 
ATOM     15  C   UNL     1     146.030 126.318  93.291  0.00  0.00    +0.000 C 
ATOM     16  C   UNL     1     148.582 124.161  91.908  0.00  0.00    +0.000 A 
ATOM     17  C   UNL     1     145.426 127.849  94.943  0.00  0.00    +0.000 C 
ATOM     18  C   UNL     1     148.931 122.396  93.529  0.00  0.00    +0.000 A 
ATOM     19  C   UNL     1     147.776 126.164  90.665  0.00  0.00    +0.000 C 
ATOM     20  C   UNL     1     149.541 123.605  91.047  0.00  0.00    +0.000 A 
ATOM     21  C   UNL     1     149.885 121.839  92.677  0.00  0.00    +0.000 A 
ATOM     22  C   UNL     1     150.184 122.436  91.459  0.00  0.00    +0.000 A 
ENDBRANCH   3   9
BRANCH   5  25
ATOM     23  O   UNL     1     144.070 124.053  99.863  0.00  0.00    +0.000 OA
ATOM     24  N   UNL     1     143.034 126.168  99.679  0.00  0.00    +0.000 N 
ATOM     25  C   UNL     1     143.366 124.857  99.260  0.00  0.00    +0.000 C 
ATOM     26  C   UNL     1     142.150 127.076  98.938  0.00  0.00    +0.000 C 
BRANCH  24  27
ATOM     27  C   UNL     1     143.577 126.697 100.864  0.00  0.00    +0.000 C 
ATOM     28  C   UNL     1     144.996 126.721 101.087  0.00  0.00    +0.000 C 
ATOM     29  C   UNL     1     146.280 126.745 101.296  0.00  0.00    +0.000 C 
ATOM     30  C   UNL     1     146.908 128.122 101.321  0.00  0.00    +0.000 C 
BRANCH  27  31
ATOM     31  C   UNL     1     142.732 127.264 101.905  0.00  0.00    +0.000 C 
ATOM     32  C   UNL     1     141.506 126.517 102.393  0.00  0.00    +0.000 C 
ATOM     33  C   UNL     1     143.333 128.225 102.914  0.00  0.00    +0.000 C 
ENDBRANCH  27  31
BRANCH  29  35
ATOM     34  O   UNL     1     147.930 125.296 102.293  0.00  0.00    +0.000 OA
ATOM     35  C   UNL     1     147.024 125.471 101.491  0.00  0.00    +0.000 C 
BRANCH  35  36
ATOM     36  O   UNL     1     146.626 124.460 100.690  0.00  0.00    +0.000 OA
ATOM     37  H   UNL     1     145.664 124.368 100.850  0.00  0.00    +0.000 HD
ENDBRANCH  35  36
ENDBRANCH  29  35
ENDBRANCH  24  27
ENDBRANCH   5  25
BRANCH   5  38
ATOM     38  C   UNL     1     141.611 123.617  97.921  0.00  0.00    +0.000 C 
ATOM     39  C   UNL     1     140.610 124.278  96.921  0.00  0.00    +0.000 C 
ATOM     40  C   UNL     1     141.995 122.214  97.370  0.00  0.00    +0.000 C 
ATOM     41  C   UNL     1     140.939 123.507  99.312  0.00  0.00    +0.000 C 
ENDBRANCH   5  38
TORSDOF 7
ENDMDL
MODEL 2
REMARK VINA RESULT:      -7.8      1.748      2.711
REMARK  Name = 10940649_MilnamideD.pdbqt.pdb
REMARK  7 active torsions:
REMARK  status: ('A' for Active; 'I' for Inactive)
REMARK    1  A    between atoms: C_3  and  C_8
REMARK    2  A    between atoms: C_22  and  C_25
REMARK    3  A    between atoms: C_22  and  C_38
REMARK    4  A    between atoms: N_24  and  C_27
REMARK    5  A    between atoms: C_27  and  C_28
REMARK    6  A    between atoms: C_32  and  C_35
REMARK    7  A    between atoms: C_35  and  O_36
REMARK                            x       y       z     vdW  Elec       q    Type
REMARK                         _______ _______ _______ _____ _____    ______ ____
ROOT
ATOM      1  O   UNL     1     145.548 125.802  98.046  0.00  0.00    +0.000 OA
ATOM      2  N   UNL     1     143.957 124.774  96.795  0.00  0.00    +0.000 N 
ATOM      3  C   UNL     1     145.207 125.338  96.965  0.00  0.00    +0.000 C 
ATOM      4  H   UNL     1     143.673 124.491  95.850  0.00  0.00    +0.000 HD
ATOM      5  C   UNL     1     142.988 124.620  97.816  0.00  0.00    +0.000 C 
ENDROOT
BRANCH   3   9
ATOM      6  N   UNL     1     146.224 124.141  94.925  0.00  0.00    +0.000 NA
ATOM      7  N   UNL     1     148.852 125.741  92.491  0.00  0.00    +0.000 N 
ATOM      8  C   UNL     1     147.073 126.562  95.668  0.00  0.00    +0.000 C 
ATOM      9  C   UNL     1     146.104 125.345  95.764  0.00  0.00    +0.000 C 
ATOM     10  C   UNL     1     147.961 126.562  94.383  0.00  0.00    +0.000 A 
ATOM     11  C   UNL     1     147.995 125.496  93.507  0.00  0.00    +0.000 A 
ATOM     12  C   UNL     1     148.101 126.512  96.837  0.00  0.00    +0.000 C 
ATOM     13  C   UNL     1     146.250 127.879  95.577  0.00  0.00    +0.000 C 
ATOM     14  C   UNL     1     148.892 127.520  93.843  0.00  0.00    +0.000 A 
ATOM     15  C   UNL     1     147.157 124.437  93.869  0.00  0.00    +0.000 C 
ATOM     16  C   UNL     1     149.428 126.978  92.658  0.00  0.00    +0.000 A 
ATOM     17  C   UNL     1     144.953 123.807  94.302  0.00  0.00    +0.000 C 
ATOM     18  C   UNL     1     149.329 128.795  94.256  0.00  0.00    +0.000 A 
ATOM     19  C   UNL     1     149.118 124.834  91.427  0.00  0.00    +0.000 C 
ATOM     20  C   UNL     1     150.373 127.668  91.883  0.00  0.00    +0.000 A 
ATOM     21  C   UNL     1     150.268 129.484  93.489  0.00  0.00    +0.000 A 
ATOM     22  C   UNL     1     150.778 128.929  92.323  0.00  0.00    +0.000 A 
ENDBRANCH   3   9
BRANCH   5  25
ATOM     23  O   UNL     1     143.810 123.985  99.899  0.00  0.00    +0.000 OA
ATOM     24  N   UNL     1     143.172 126.245  99.638  0.00  0.00    +0.000 N 
ATOM     25  C   UNL     1     143.342 124.900  99.228  0.00  0.00    +0.000 C 
ATOM     26  C   UNL     1     142.566 127.292  98.808  0.00  0.00    +0.000 C 
BRANCH  24  27
ATOM     27  C   UNL     1     143.615 126.665 100.904  0.00  0.00    +0.000 C 
ATOM     28  C   UNL     1     145.010 126.657 101.245  0.00  0.00    +0.000 C 
ATOM     29  C   UNL     1     146.273 126.651 101.562  0.00  0.00    +0.000 C 
ATOM     30  C   UNL     1     146.900 128.015 101.757  0.00  0.00    +0.000 C 
BRANCH  27  31
ATOM     31  C   UNL     1     142.687 127.150 101.916  0.00  0.00    +0.000 C 
ATOM     32  C   UNL     1     141.482 126.322 102.314  0.00  0.00    +0.000 C 
ATOM     33  C   UNL     1     143.181 128.107 102.985  0.00  0.00    +0.000 C 
ENDBRANCH  27  31
BRANCH  29  35
ATOM     34  O   UNL     1     146.867 124.388 100.975  0.00  0.00    +0.000 OA
ATOM     35  C   UNL     1     146.994 125.358 101.709  0.00  0.00    +0.000 C 
BRANCH  35  36
ATOM     36  O   UNL     1     147.844 125.305 102.757  0.00  0.00    +0.000 OA
ATOM     37  H   UNL     1     148.687 124.970 102.388  0.00  0.00    +0.000 HD
ENDBRANCH  35  36
ENDBRANCH  29  35
ENDBRANCH  24  27
ENDBRANCH   5  25
BRANCH   5  38
ATOM     38  C   UNL     1     141.650 123.925  97.617  0.00  0.00    +0.000 C 
ATOM     39  C   UNL     1     140.873 124.747  96.539  0.00  0.00    +0.000 C 
ATOM     40  C   UNL     1     141.930 122.508  97.040  0.00  0.00    +0.000 C 
ATOM     41  C   UNL     1     140.796 123.846  98.906  0.00  0.00    +0.000 C 
ENDBRANCH   5  38
TORSDOF 7
ENDMDL
MODEL 3
REMARK VINA RESULT:      -7.4      1.634      2.645
REMARK  Name = 10940649_MilnamideD.pdbqt.pdb
REMARK  7 active torsions:
REMARK  status: ('A' for Active; 'I' for Inactive)
REMARK    1  A    between atoms: C_3  and  C_8
REMARK    2  A    between atoms: C_22  and  C_25
REMARK    3  A    between atoms: C_22  and  C_38
REMARK    4  A    between atoms: N_24  and  C_27
REMARK    5  A    between atoms: C_27  and  C_28
REMARK    6  A    between atoms: C_32  and  C_35
REMARK    7  A    between atoms: C_35  and  O_36
REMARK                            x       y       z     vdW  Elec       q    Type
REMARK                         _______ _______ _______ _____ _____    ______ ____
ROOT
ATOM      1  O   UNL     1     145.131 126.580  96.856  0.00  0.00    +0.000 OA
ATOM      2  N   UNL     1     143.764 124.813  96.450  0.00  0.00    +0.000 N 
ATOM      3  C   UNL     1     144.770 125.691  96.094  0.00  0.00    +0.000 C 
ATOM      4  H   UNL     1     143.422 124.150  95.746  0.00  0.00    +0.000 HD
ATOM      5  C   UNL     1     143.102 124.798  97.702  0.00  0.00    +0.000 C 
ENDROOT
BRANCH   3   9
ATOM      6  N   UNL     1     144.769 126.119  93.556  0.00  0.00    +0.000 NA
ATOM      7  N   UNL     1     147.363 124.590  91.042  0.00  0.00    +0.000 N 
ATOM      8  C   UNL     1     146.468 124.381  94.660  0.00  0.00    +0.000 C 
ATOM      9  C   UNL     1     145.380 125.492  94.740  0.00  0.00    +0.000 C 
ATOM     10  C   UNL     1     147.115 124.230  93.246  0.00  0.00    +0.000 A 
ATOM     11  C   UNL     1     146.642 124.907  92.140  0.00  0.00    +0.000 A 
ATOM     12  C   UNL     1     145.823 122.989  94.930  0.00  0.00    +0.000 C 
ATOM     13  C   UNL     1     147.655 124.743  95.598  0.00  0.00    +0.000 C 
ATOM     14  C   UNL     1     148.207 123.428  92.755  0.00  0.00    +0.000 A 
ATOM     15  C   UNL     1     145.553 125.742  92.409  0.00  0.00    +0.000 C 
ATOM     16  C   UNL     1     148.339 123.680  91.375  0.00  0.00    +0.000 A 
ATOM     17  C   UNL     1     144.808 127.570  93.651  0.00  0.00    +0.000 C 
ATOM     18  C   UNL     1     149.091 122.511  93.357  0.00  0.00    +0.000 A 
ATOM     19  C   UNL     1     147.121 125.114  89.742  0.00  0.00    +0.000 C 
ATOM     20  C   UNL     1     149.319 123.051  90.592  0.00  0.00    +0.000 A 
ATOM     21  C   UNL     1     150.067 121.883  92.584  0.00  0.00    +0.000 A 
ATOM     22  C   UNL     1     150.178 122.152  91.225  0.00  0.00    +0.000 A 
ENDBRANCH   3   9
BRANCH   5  25
ATOM     23  O   UNL     1     142.998 126.686  99.060  0.00  0.00    +0.000 OA
ATOM     24  N   UNL     1     144.683 125.103  99.546  0.00  0.00    +0.000 N 
ATOM     25  C   UNL     1     143.597 125.642  98.816  0.00  0.00    +0.000 C 
ATOM     26  C   UNL     1     145.391 123.870  99.187  0.00  0.00    +0.000 C 
BRANCH  24  27
ATOM     27  C   UNL     1     145.141 125.737 100.716  0.00  0.00    +0.000 C 
ATOM     28  C   UNL     1     144.248 126.028 101.803  0.00  0.00    +0.000 C 
ATOM     29  C   UNL     1     143.445 126.295 102.792  0.00  0.00    +0.000 C 
ATOM     30  C   UNL     1     143.693 125.508 104.061  0.00  0.00    +0.000 C 
BRANCH  27  31
ATOM     31  C   UNL     1     146.539 126.104 100.888  0.00  0.00    +0.000 C 
ATOM     32  C   UNL     1     147.143 127.234 100.079  0.00  0.00    +0.000 C 
ATOM     33  C   UNL     1     147.221 125.840 102.218  0.00  0.00    +0.000 C 
ENDBRANCH  27  31
BRANCH  29  35
ATOM     34  O   UNL     1     141.319 127.344 103.237  0.00  0.00    +0.000 OA
ATOM     35  C   UNL     1     142.376 127.317 102.623  0.00  0.00    +0.000 C 
BRANCH  35  36
ATOM     36  O   UNL     1     142.647 128.266 101.703  0.00  0.00    +0.000 OA
ATOM     37  H   UNL     1     142.140 129.054 101.988  0.00  0.00    +0.000 HD
ENDBRANCH  35  36
ENDBRANCH  29  35
ENDBRANCH  24  27
ENDBRANCH   5  25
BRANCH   5  38
ATOM     38  C   UNL     1     142.053 123.770  98.095  0.00  0.00    +0.000 C 
ATOM     39  C   UNL     1     140.784 124.074  97.236  0.00  0.00    +0.000 C 
ATOM     40  C   UNL     1     142.589 122.366  97.692  0.00  0.00    +0.000 C 
ATOM     41  C   UNL     1     141.673 123.814  99.595  0.00  0.00    +0.000 C 
ENDBRANCH   5  38
TORSDOF 7
ENDMDL
MODEL 4
REMARK VINA RESULT:      -7.2      2.374      3.302
REMARK  Name = 10940649_MilnamideD.pdbqt.pdb
REMARK  7 active torsions:
REMARK  status: ('A' for Active; 'I' for Inactive)
REMARK    1  A    between atoms: C_3  and  C_8
REMARK    2  A    between atoms: C_22  and  C_25
REMARK    3  A    between atoms: C_22  and  C_38
REMARK    4  A    between atoms: N_24  and  C_27
REMARK    5  A    between atoms: C_27  and  C_28
REMARK    6  A    between atoms: C_32  and  C_35
REMARK    7  A    between atoms: C_35  and  O_36
REMARK                            x       y       z     vdW  Elec       q    Type
REMARK                         _______ _______ _______ _____ _____    ______ ____
ROOT
ATOM      1  O   UNL     1     143.513 127.017  95.870  0.00  0.00    +0.000 OA
ATOM      2  N   UNL     1     142.769 124.872  95.881  0.00  0.00    +0.000 N 
ATOM      3  C   UNL     1     143.362 125.960  95.269  0.00  0.00    +0.000 C 
ATOM      4  H   UNL     1     142.568 124.041  95.313  0.00  0.00    +0.000 HD
ATOM      5  C   UNL     1     142.339 124.830  97.229  0.00  0.00    +0.000 C 
ENDROOT
BRANCH   3   9
ATOM      6  N   UNL     1     142.798 125.549  92.791  0.00  0.00    +0.000 NA
ATOM      7  N   UNL     1     145.465 125.160  89.940  0.00  0.00    +0.000 N 
ATOM      8  C   UNL     1     145.326 125.530  93.651  0.00  0.00    +0.000 C 
ATOM      9  C   UNL     1     143.799 125.769  93.848  0.00  0.00    +0.000 C 
ATOM     10  C   UNL     1     145.755 125.380  92.157  0.00  0.00    +0.000 A 
ATOM     11  C   UNL     1     144.838 125.302  91.129  0.00  0.00    +0.000 A 
ATOM     12  C   UNL     1     145.736 124.174  94.299  0.00  0.00    +0.000 C 
ATOM     13  C   UNL     1     146.119 126.766  94.166  0.00  0.00    +0.000 C 
ATOM     14  C   UNL     1     147.042 125.261  91.520  0.00  0.00    +0.000 A 
ATOM     15  C   UNL     1     143.506 125.385  91.548  0.00  0.00    +0.000 C 
ATOM     16  C   UNL     1     146.825 125.128  90.134  0.00  0.00    +0.000 A 
ATOM     17  C   UNL     1     141.927 126.705  92.645  0.00  0.00    +0.000 C 
ATOM     18  C   UNL     1     148.368 125.249  91.997  0.00  0.00    +0.000 A 
ATOM     19  C   UNL     1     144.798 125.042  88.688  0.00  0.00    +0.000 C 
ATOM     20  C   UNL     1     147.884 124.991  89.223  0.00  0.00    +0.000 A 
ATOM     21  C   UNL     1     149.424 125.112  91.096  0.00  0.00    +0.000 A 
ATOM     22  C   UNL     1     149.183 124.987  89.734  0.00  0.00    +0.000 A 
ENDBRANCH   3   9
BRANCH   5  25
ATOM     23  O   UNL     1     141.819 126.782  98.387  0.00  0.00    +0.000 OA
ATOM     24  N   UNL     1     143.965 125.858  98.744  0.00  0.00    +0.000 N 
ATOM     25  C   UNL     1     142.680 125.938  98.154  0.00  0.00    +0.000 C 
ATOM     26  C   UNL     1     144.974 124.851  98.398  0.00  0.00    +0.000 C 
BRANCH  24  27
ATOM     27  C   UNL     1     144.345 126.764  99.750  0.00  0.00    +0.000 C 
ATOM     28  C   UNL     1     143.687 126.777 101.027  0.00  0.00    +0.000 C 
ATOM     29  C   UNL     1     143.096 126.795 102.186  0.00  0.00    +0.000 C 
ATOM     30  C   UNL     1     143.947 126.351 103.357  0.00  0.00    +0.000 C 
BRANCH  27  31
ATOM     31  C   UNL     1     145.433 127.711  99.554  0.00  0.00    +0.000 C 
ATOM     32  C   UNL     1     145.303 128.834  98.544  0.00  0.00    +0.000 C 
ATOM     33  C   UNL     1     146.393 127.992 100.696  0.00  0.00    +0.000 C 
ENDBRANCH  27  31
BRANCH  29  35
ATOM     34  O   UNL     1     141.010 127.241 103.313  0.00  0.00    +0.000 OA
ATOM     35  C   UNL     1     141.677 127.234 102.288  0.00  0.00    +0.000 C 
BRANCH  35  36
ATOM     36  O   UNL     1     141.132 127.645 101.124  0.00  0.00    +0.000 OA
ATOM     37  H   UNL     1     141.816 127.474 100.444  0.00  0.00    +0.000 HD
ENDBRANCH  35  36
ENDBRANCH  29  35
ENDBRANCH  24  27
ENDBRANCH   5  25
BRANCH   5  38
ATOM     38  C   UNL     1     141.762 123.592  97.898  0.00  0.00    +0.000 C 
ATOM     39  C   UNL     1     140.303 123.432  97.362  0.00  0.00    +0.000 C 
ATOM     40  C   UNL     1     142.592 122.365  97.425  0.00  0.00    +0.000 C 
ATOM     41  C   UNL     1     141.726 123.682  99.443  0.00  0.00    +0.000 C 
ENDBRANCH   5  38
TORSDOF 7
ENDMDL
MODEL 5
REMARK VINA RESULT:      -7.1      2.267      4.502
REMARK  Name = 10940649_MilnamideD.pdbqt.pdb
REMARK  7 active torsions:
REMARK  status: ('A' for Active; 'I' for Inactive)
REMARK    1  A    between atoms: C_3  and  C_8
REMARK    2  A    between atoms: C_22  and  C_25
REMARK    3  A    between atoms: C_22  and  C_38
REMARK    4  A    between atoms: N_24  and  C_27
REMARK    5  A    between atoms: C_27  and  C_28
REMARK    6  A    between atoms: C_32  and  C_35
REMARK    7  A    between atoms: C_35  and  O_36
REMARK                            x       y       z     vdW  Elec       q    Type
REMARK                         _______ _______ _______ _____ _____    ______ ____
ROOT
ATOM      1  O   UNL     1     145.926 124.324  96.898  0.00  0.00    +0.000 OA
ATOM      2  N   UNL     1     146.880 126.383  96.974  0.00  0.00    +0.000 N 
ATOM      3  C   UNL     1     146.493 125.236  96.307  0.00  0.00    +0.000 C 
ATOM      4  H   UNL     1     147.441 127.077  96.468  0.00  0.00    +0.000 HD
ATOM      5  C   UNL     1     146.628 126.654  98.341  0.00  0.00    +0.000 C 
ENDROOT
BRANCH   3   9
ATOM      6  N   UNL     1     148.205 125.144  94.387  0.00  0.00    +0.000 NA
ATOM      7  N   UNL     1     147.273 125.130  90.577  0.00  0.00    +0.000 N 
ATOM      8  C   UNL     1     145.599 125.456  93.897  0.00  0.00    +0.000 C 
ATOM      9  C   UNL     1     146.805 125.179  94.843  0.00  0.00    +0.000 C 
ATOM     10  C   UNL     1     145.948 125.345  92.379  0.00  0.00    +0.000 A 
ATOM     11  C   UNL     1     147.241 125.182  91.927  0.00  0.00    +0.000 A 
ATOM     12  C   UNL     1     145.121 126.929  94.067  0.00  0.00    +0.000 C 
ATOM     13  C   UNL     1     144.497 124.382  94.127  0.00  0.00    +0.000 C 
ATOM     14  C   UNL     1     145.141 125.410  91.186  0.00  0.00    +0.000 A 
ATOM     15  C   UNL     1     148.194 125.109  92.948  0.00  0.00    +0.000 C 
ATOM     16  C   UNL     1     145.999 125.268  90.078  0.00  0.00    +0.000 A 
ATOM     17  C   UNL     1     148.876 123.938  94.846  0.00  0.00    +0.000 C 
ATOM     18  C   UNL     1     143.762 125.580  90.950  0.00  0.00    +0.000 A 
ATOM     19  C   UNL     1     148.458 124.976  89.805  0.00  0.00    +0.000 C 
ATOM     20  C   UNL     1     145.523 125.288  88.758  0.00  0.00    +0.000 A 
ATOM     21  C   UNL     1     143.283 125.601  89.640  0.00  0.00    +0.000 A 
ATOM     22  C   UNL     1     144.150 125.454  88.565  0.00  0.00    +0.000 A 
ENDBRANCH   3   9
BRANCH   5  25
ATOM     23  O   UNL     1     146.255 124.966  99.900  0.00  0.00    +0.000 OA
ATOM     24  N   UNL     1     144.351 125.992  98.949  0.00  0.00    +0.000 N 
ATOM     25  C   UNL     1     145.737 125.765  99.125  0.00  0.00    +0.000 C 
ATOM     26  C   UNL     1     143.783 126.932  97.976  0.00  0.00    +0.000 C 
BRANCH  24  27
ATOM     27  C   UNL     1     143.411 125.318  99.749  0.00  0.00    +0.000 C 
ATOM     28  C   UNL     1     143.167 125.717 101.108  0.00  0.00    +0.000 C 
ATOM     29  C   UNL     1     142.941 126.072 102.339  0.00  0.00    +0.000 C 
ATOM     30  C   UNL     1     141.573 126.663 102.604  0.00  0.00    +0.000 C 
BRANCH  27  31
ATOM     31  C   UNL     1     142.627 124.205  99.233  0.00  0.00    +0.000 C 
ATOM     32  C   UNL     1     143.313 122.962  98.701  0.00  0.00    +0.000 C 
ATOM     33  C   UNL     1     141.219 123.979  99.751  0.00  0.00    +0.000 C 
ENDBRANCH  27  31
BRANCH  29  35
ATOM     34  O   UNL     1     143.858 126.079 104.570  0.00  0.00    +0.000 OA
ATOM     35  C   UNL     1     143.996 125.882 103.371  0.00  0.00    +0.000 C 
BRANCH  35  36
ATOM     36  O   UNL     1     145.183 125.458 102.888  0.00  0.00    +0.000 OA
ATOM     37  H   UNL     1     145.026 124.541 102.584  0.00  0.00    +0.000 HD
ENDBRANCH  35  36
ENDBRANCH  29  35
ENDBRANCH  24  27
ENDBRANCH   5  25
BRANCH   5  38
ATOM     38  C   UNL     1     146.997 127.959  99.029  0.00  0.00    +0.000 C 
ATOM     39  C   UNL     1     148.554 128.072  98.972  0.00  0.00    +0.000 C 
ATOM     40  C   UNL     1     146.393 129.125  98.194  0.00  0.00    +0.000 C 
ATOM     41  C   UNL     1     146.538 128.032 100.506  0.00  0.00    +0.000 C 
ENDBRANCH   5  38
TORSDOF 7
ENDMDL
MODEL 6
REMARK VINA RESULT:      -7.0      1.993      3.019
REMARK  Name = 10940649_MilnamideD.pdbqt.pdb
REMARK  7 active torsions:
REMARK  status: ('A' for Active; 'I' for Inactive)
REMARK    1  A    between atoms: C_3  and  C_8
REMARK    2  A    between atoms: C_22  and  C_25
REMARK    3  A    between atoms: C_22  and  C_38
REMARK    4  A    between atoms: N_24  and  C_27
REMARK    5  A    between atoms: C_27  and  C_28
REMARK    6  A    between atoms: C_32  and  C_35
REMARK    7  A    between atoms: C_35  and  O_36
REMARK                            x       y       z     vdW  Elec       q    Type
REMARK                         _______ _______ _______ _____ _____    ______ ____
ROOT
ATOM      1  O   UNL     1     146.333 126.316  96.663  0.00  0.00    +0.000 OA
ATOM      2  N   UNL     1     144.476 125.011  96.667  0.00  0.00    +0.000 N 
ATOM      3  C   UNL     1     145.466 125.730  96.026  0.00  0.00    +0.000 C 
ATOM      4  H   UNL     1     143.712 124.622  96.103  0.00  0.00    +0.000 HD
ATOM      5  C   UNL     1     144.381 124.825  98.068  0.00  0.00    +0.000 C 
ENDROOT
BRANCH   3   9
ATOM      6  N   UNL     1     144.147 126.040  93.838  0.00  0.00    +0.000 NA
ATOM      7  N   UNL     1     145.661 125.594  90.247  0.00  0.00    +0.000 N 
ATOM      8  C   UNL     1     146.668 125.161  93.814  0.00  0.00    +0.000 C 
ATOM      9  C   UNL     1     145.414 125.748  94.528  0.00  0.00    +0.000 C 
ATOM     10  C   UNL     1     146.600 125.236  92.256  0.00  0.00    +0.000 A 
ATOM     11  C   UNL     1     145.463 125.632  91.583  0.00  0.00    +0.000 A 
ATOM     12  C   UNL     1     146.782 123.637  94.115  0.00  0.00    +0.000 C 
ATOM     13  C   UNL     1     147.924 125.997  94.194  0.00  0.00    +0.000 C 
ATOM     14  C   UNL     1     147.555 124.922  91.224  0.00  0.00    +0.000 A 
ATOM     15  C   UNL     1     144.397 125.972  92.422  0.00  0.00    +0.000 C 
ATOM     16  C   UNL     1     146.938 125.160  89.979  0.00  0.00    +0.000 A 
ATOM     17  C   UNL     1     143.688 127.389  94.133  0.00  0.00    +0.000 C 
ATOM     18  C   UNL     1     148.884 124.453  91.235  0.00  0.00    +0.000 A 
ATOM     19  C   UNL     1     144.677 125.937  89.277  0.00  0.00    +0.000 C 
ATOM     20  C   UNL     1     147.605 124.950  88.763  0.00  0.00    +0.000 A 
ATOM     21  C   UNL     1     149.552 124.242  90.028  0.00  0.00    +0.000 A 
ATOM     22  C   UNL     1     148.922 124.489  88.815  0.00  0.00    +0.000 A 
ENDBRANCH   3   9
BRANCH   5  25
ATOM     23  O   UNL     1     146.441 124.496  99.102  0.00  0.00    +0.000 OA
ATOM     24  N   UNL     1     145.365 126.565  99.481  0.00  0.00    +0.000 N 
ATOM     25  C   UNL     1     145.490 125.258  98.953  0.00  0.00    +0.000 C 
ATOM     26  C   UNL     1     144.186 127.420  99.307  0.00  0.00    +0.000 C 
BRANCH  24  27
ATOM     27  C   UNL     1     146.421 127.143 100.209  0.00  0.00    +0.000 C 
ATOM     28  C   UNL     1     146.554 126.931 101.624  0.00  0.00    +0.000 C 
ATOM     29  C   UNL     1     146.680 126.743 102.905  0.00  0.00    +0.000 C 
ATOM     30  C   UNL     1     147.881 125.922 103.327  0.00  0.00    +0.000 C 
BRANCH  27  31
ATOM     31  C   UNL     1     147.438 127.960  99.562  0.00  0.00    +0.000 C 
ATOM     32  C   UNL     1     148.741 127.340  99.098  0.00  0.00    +0.000 C 
ATOM     33  C   UNL     1     147.023 129.207  98.804  0.00  0.00    +0.000 C 
ENDBRANCH  27  31
BRANCH  29  35
ATOM     34  O   UNL     1     145.130 126.723 104.753  0.00  0.00    +0.000 OA
ATOM     35  C   UNL     1     145.680 127.325 103.842  0.00  0.00    +0.000 C 
BRANCH  35  36
ATOM     36  O   UNL     1     145.393 128.625 103.620  0.00  0.00    +0.000 OA
ATOM     37  H   UNL     1     146.177 128.987 103.159  0.00  0.00    +0.000 HD
ENDBRANCH  35  36
ENDBRANCH  29  35
ENDBRANCH  24  27
ENDBRANCH   5  25
BRANCH   5  38
ATOM     38  C   UNL     1     143.324 123.964  98.740  0.00  0.00    +0.000 C 
ATOM     39  C   UNL     1     141.938 124.576  98.359  0.00  0.00    +0.000 C 
ATOM     40  C   UNL     1     143.412 122.537  98.127  0.00  0.00    +0.000 C 
ATOM     41  C   UNL     1     143.450 123.919 100.282  0.00  0.00    +0.000 C 
ENDBRANCH   5  38
TORSDOF 7
ENDMDL
MODEL 7
REMARK VINA RESULT:      -7.0      4.051      6.151
REMARK  Name = 10940649_MilnamideD.pdbqt.pdb
REMARK  7 active torsions:
REMARK  status: ('A' for Active; 'I' for Inactive)
REMARK    1  A    between atoms: C_3  and  C_8
REMARK    2  A    between atoms: C_22  and  C_25
REMARK    3  A    between atoms: C_22  and  C_38
REMARK    4  A    between atoms: N_24  and  C_27
REMARK    5  A    between atoms: C_27  and  C_28
REMARK    6  A    between atoms: C_32  and  C_35
REMARK    7  A    between atoms: C_35  and  O_36
REMARK                            x       y       z     vdW  Elec       q    Type
REMARK                         _______ _______ _______ _____ _____    ______ ____
ROOT
ATOM      1  O   UNL     1     143.738 127.053  96.502  0.00  0.00    +0.000 OA
ATOM      2  N   UNL     1     142.067 125.532  96.279  0.00  0.00    +0.000 N 
ATOM      3  C   UNL     1     142.647 126.761  96.027  0.00  0.00    +0.000 C 
ATOM      4  H   UNL     1     141.110 125.366  95.947  0.00  0.00    +0.000 HD
ATOM      5  C   UNL     1     142.661 124.491  97.032  0.00  0.00    +0.000 C 
ENDROOT
BRANCH   3   9
ATOM      6  N   UNL     1     140.722 128.437  95.698  0.00  0.00    +0.000 NA
ATOM      7  N   UNL     1     139.854 130.187  92.296  0.00  0.00    +0.000 N 
ATOM      8  C   UNL     1     142.179 127.589  93.628  0.00  0.00    +0.000 C 
ATOM      9  C   UNL     1     141.871 127.697  95.151  0.00  0.00    +0.000 C 
ATOM     10  C   UNL     1     141.387 128.609  92.749  0.00  0.00    +0.000 A 
ATOM     11  C   UNL     1     140.389 129.411  93.264  0.00  0.00    +0.000 A 
ATOM     12  C   UNL     1     141.724 126.198  93.094  0.00  0.00    +0.000 C 
ATOM     13  C   UNL     1     143.676 127.929  93.372  0.00  0.00    +0.000 C 
ATOM     14  C   UNL     1     141.439 128.931  91.345  0.00  0.00    +0.000 A 
ATOM     15  C   UNL     1     140.171 129.235  94.634  0.00  0.00    +0.000 C 
ATOM     16  C   UNL     1     140.470 129.924  91.096  0.00  0.00    +0.000 A 
ATOM     17  C   UNL     1     141.138 129.348  96.753  0.00  0.00    +0.000 C 
ATOM     18  C   UNL     1     142.216 128.465  90.266  0.00  0.00    +0.000 A 
ATOM     19  C   UNL     1     138.798 131.118  92.504  0.00  0.00    +0.000 C 
ATOM     20  C   UNL     1     140.264 130.460  89.815  0.00  0.00    +0.000 A 
ATOM     21  C   UNL     1     142.015 128.995  88.991  0.00  0.00    +0.000 A 
ATOM     22  C   UNL     1     141.056 129.976  88.773  0.00  0.00    +0.000 A 
ENDBRANCH   3   9
BRANCH   5  25
ATOM     23  O   UNL     1     144.948 124.250  96.665  0.00  0.00    +0.000 OA
ATOM     24  N   UNL     1     144.281 125.167  98.739  0.00  0.00    +0.000 N 
ATOM     25  C   UNL     1     144.077 124.595  97.460  0.00  0.00    +0.000 C 
ATOM     26  C   UNL     1     143.202 125.523  99.668  0.00  0.00    +0.000 C 
BRANCH  24  27
ATOM     27  C   UNL     1     145.581 125.457  99.191  0.00  0.00    +0.000 C 
ATOM     28  C   UNL     1     146.269 126.644  98.764  0.00  0.00    +0.000 C 
ATOM     29  C   UNL     1     146.900 127.716  98.382  0.00  0.00    +0.000 C 
ATOM     30  C   UNL     1     147.139 128.749  99.462  0.00  0.00    +0.000 C 
BRANCH  27  31
ATOM     31  C   UNL     1     146.276 124.586 100.127  0.00  0.00    +0.000 C 
ATOM     32  C   UNL     1     146.671 123.180  99.720  0.00  0.00    +0.000 C 
ATOM     33  C   UNL     1     147.136 125.197 101.218  0.00  0.00    +0.000 C 
ENDBRANCH  27  31
BRANCH  29  35
ATOM     34  O   UNL     1     146.729 128.473  96.098  0.00  0.00    +0.000 OA
ATOM     35  C   UNL     1     147.332 127.856  96.965  0.00  0.00    +0.000 C 
BRANCH  35  36
ATOM     36  O   UNL     1     148.490 127.229  96.666  0.00  0.00    +0.000 OA
ATOM     37  H   UNL     1     148.325 126.776  95.814  0.00  0.00    +0.000 HD
ENDBRANCH  35  36
ENDBRANCH  29  35
ENDBRANCH  24  27
ENDBRANCH   5  25
BRANCH   5  38
ATOM     38  C   UNL     1     142.032 123.120  97.227  0.00  0.00    +0.000 C 
ATOM     39  C   UNL     1     140.556 123.364  97.677  0.00  0.00    +0.000 C 
ATOM     40  C   UNL     1     142.009 122.405  95.846  0.00  0.00    +0.000 C 
ATOM     41  C   UNL     1     142.750 122.255  98.292  0.00  0.00    +0.000 C 
ENDBRANCH   5  38
TORSDOF 7
ENDMDL
MODEL 8
REMARK VINA RESULT:      -7.0      3.794      5.355
REMARK  Name = 10940649_MilnamideD.pdbqt.pdb
REMARK  7 active torsions:
REMARK  status: ('A' for Active; 'I' for Inactive)
REMARK    1  A    between atoms: C_3  and  C_8
REMARK    2  A    between atoms: C_22  and  C_25
REMARK    3  A    between atoms: C_22  and  C_38
REMARK    4  A    between atoms: N_24  and  C_27
REMARK    5  A    between atoms: C_27  and  C_28
REMARK    6  A    between atoms: C_32  and  C_35
REMARK    7  A    between atoms: C_35  and  O_36
REMARK                            x       y       z     vdW  Elec       q    Type
REMARK                         _______ _______ _______ _____ _____    ______ ____
ROOT
ATOM      1  O   UNL     1     144.099 127.387  96.987  0.00  0.00    +0.000 OA
ATOM      2  N   UNL     1     142.709 125.593  97.038  0.00  0.00    +0.000 N 
ATOM      3  C   UNL     1     143.123 126.808  96.526  0.00  0.00    +0.000 C 
ATOM      4  H   UNL     1     141.829 125.191  96.694  0.00  0.00    +0.000 HD
ATOM      5  C   UNL     1     143.366 124.877  98.068  0.00  0.00    +0.000 C 
ENDROOT
BRANCH   3   9
ATOM      6  N   UNL     1     140.983 127.934  95.645  0.00  0.00    +0.000 NA
ATOM      7  N   UNL     1     140.289 128.745  91.871  0.00  0.00    +0.000 N 
ATOM      8  C   UNL     1     142.850 127.022  93.969  0.00  0.00    +0.000 C 
ATOM      9  C   UNL     1     142.316 127.363  95.392  0.00  0.00    +0.000 C 
ATOM     10  C   UNL     1     142.013 127.653  92.812  0.00  0.00    +0.000 A 
ATOM     11  C   UNL     1     140.820 128.309  93.035  0.00  0.00    +0.000 A 
ATOM     12  C   UNL     1     142.745 125.488  93.719  0.00  0.00    +0.000 C 
ATOM     13  C   UNL     1     144.278 127.616  93.791  0.00  0.00    +0.000 C 
ATOM     14  C   UNL     1     142.200 127.692  91.384  0.00  0.00    +0.000 A 
ATOM     15  C   UNL     1     140.447 128.367  94.381  0.00  0.00    +0.000 C 
ATOM     16  C   UNL     1     141.107 128.385  90.825  0.00  0.00    +0.000 A 
ATOM     17  C   UNL     1     141.067 129.104  96.505  0.00  0.00    +0.000 C 
ATOM     18  C   UNL     1     143.195 127.199  90.517  0.00  0.00    +0.000 A 
ATOM     19  C   UNL     1     139.059 129.451  91.761  0.00  0.00    +0.000 C 
ATOM     20  C   UNL     1     140.986 128.599  89.444  0.00  0.00    +0.000 A 
ATOM     21  C   UNL     1     143.080 127.408  89.142  0.00  0.00    +0.000 A 
ATOM     22  C   UNL     1     141.994 128.098  88.618  0.00  0.00    +0.000 A 
ENDBRANCH   3   9
BRANCH   5  25
ATOM     23  O   UNL     1     145.688 124.960  97.927  0.00  0.00    +0.000 OA
ATOM     24  N   UNL     1     144.671 126.196  99.665  0.00  0.00    +0.000 N 
ATOM     25  C   UNL     1     144.695 125.320  98.553  0.00  0.00    +0.000 C 
ATOM     26  C   UNL     1     143.457 126.562 100.404  0.00  0.00    +0.000 C 
BRANCH  24  27
ATOM     27  C   UNL     1     145.855 126.803 100.120  0.00  0.00    +0.000 C 
ATOM     28  C   UNL     1     146.285 126.667 101.484  0.00  0.00    +0.000 C 
ATOM     29  C   UNL     1     146.681 126.549 102.718  0.00  0.00    +0.000 C 
ATOM     30  C   UNL     1     147.945 125.741 102.921  0.00  0.00    +0.000 C 
BRANCH  27  31
ATOM     31  C   UNL     1     146.709 127.574  99.228  0.00  0.00    +0.000 C 
ATOM     32  C   UNL     1     146.322 128.981  98.817  0.00  0.00    +0.000 C 
ATOM     33  C   UNL     1     148.200 127.290  99.192  0.00  0.00    +0.000 C 
ENDBRANCH  27  31
BRANCH  29  35
ATOM     34  O   UNL     1     145.507 126.628 104.824  0.00  0.00    +0.000 OA
ATOM     35  C   UNL     1     145.900 127.189 103.812  0.00  0.00    +0.000 C 
BRANCH  35  36
ATOM     36  O   UNL     1     145.629 128.497 103.616  0.00  0.00    +0.000 OA
ATOM     37  H   UNL     1     144.903 128.706 104.239  0.00  0.00    +0.000 HD
ENDBRANCH  35  36
ENDBRANCH  29  35
ENDBRANCH  24  27
ENDBRANCH   5  25
BRANCH   5  38
ATOM     38  C   UNL     1     142.931 123.504  98.558  0.00  0.00    +0.000 C 
ATOM     39  C   UNL     1     142.941 122.560  97.313  0.00  0.00    +0.000 C 
ATOM     40  C   UNL     1     144.004 122.995  99.563  0.00  0.00    +0.000 C 
ATOM     41  C   UNL     1     141.519 123.491  99.191  0.00  0.00    +0.000 C 
ENDBRANCH   5  38
TORSDOF 7
ENDMDL
MODEL 9
REMARK VINA RESULT:      -7.0      2.031      4.154
REMARK  Name = 10940649_MilnamideD.pdbqt.pdb
REMARK  7 active torsions:
REMARK  status: ('A' for Active; 'I' for Inactive)
REMARK    1  A    between atoms: C_3  and  C_8
REMARK    2  A    between atoms: C_22  and  C_25
REMARK    3  A    between atoms: C_22  and  C_38
REMARK    4  A    between atoms: N_24  and  C_27
REMARK    5  A    between atoms: C_27  and  C_28
REMARK    6  A    between atoms: C_32  and  C_35
REMARK    7  A    between atoms: C_35  and  O_36
REMARK                            x       y       z     vdW  Elec       q    Type
REMARK                         _______ _______ _______ _____ _____    ______ ____
ROOT
ATOM      1  O   UNL     1     145.678 125.443  95.985  0.00  0.00    +0.000 OA
ATOM      2  N   UNL     1     147.520 126.660  96.513  0.00  0.00    +0.000 N 
ATOM      3  C   UNL     1     146.793 125.842  95.670  0.00  0.00    +0.000 C 
ATOM      4  H   UNL     1     148.488 126.888  96.258  0.00  0.00    +0.000 HD
ATOM      5  C   UNL     1     147.063 127.161  97.756  0.00  0.00    +0.000 C 
ENDROOT
BRANCH   3   9
ATOM      6  N   UNL     1     147.306 126.365  93.202  0.00  0.00    +0.000 NA
ATOM      7  N   UNL     1     149.356 124.026  90.813  0.00  0.00    +0.000 N 
ATOM      8  C   UNL     1     147.981 124.019  94.282  0.00  0.00    +0.000 C 
ATOM      9  C   UNL     1     147.443 125.478  94.369  0.00  0.00    +0.000 C 
ATOM     10  C   UNL     1     148.691 123.686  92.932  0.00  0.00    +0.000 A 
ATOM     11  C   UNL     1     148.689 124.557  91.861  0.00  0.00    +0.000 A 
ATOM     12  C   UNL     1     146.793 123.013  94.341  0.00  0.00    +0.000 C 
ATOM     13  C   UNL     1     149.075 123.800  95.367  0.00  0.00    +0.000 C 
ATOM     14  C   UNL     1     149.415 122.529  92.471  0.00  0.00    +0.000 A 
ATOM     15  C   UNL     1     148.012 125.756  92.106  0.00  0.00    +0.000 C 
ATOM     16  C   UNL     1     149.820 122.775  91.144  0.00  0.00    +0.000 A 
ATOM     17  C   UNL     1     147.922 127.659  93.451  0.00  0.00    +0.000 C 
ATOM     18  C   UNL     1     149.757 121.295  93.059  0.00  0.00    +0.000 A 
ATOM     19  C   UNL     1     149.526 124.672  89.556  0.00  0.00    +0.000 C 
ATOM     20  C   UNL     1     150.552 121.836  90.401  0.00  0.00    +0.000 A 
ATOM     21  C   UNL     1     150.484 120.357  92.325  0.00  0.00    +0.000 A 
ATOM     22  C   UNL     1     150.875 120.627  91.020  0.00  0.00    +0.000 A 
ENDBRANCH   3   9
BRANCH   5  25
ATOM     23  O   UNL     1     144.816 127.771  97.727  0.00  0.00    +0.000 OA
ATOM     24  N   UNL     1     145.390 125.832  98.951  0.00  0.00    +0.000 N 
ATOM     25  C   UNL     1     145.648 126.977  98.158  0.00  0.00    +0.000 C 
ATOM     26  C   UNL     1     146.428 124.938  99.476  0.00  0.00    +0.000 C 
BRANCH  24  27
ATOM     27  C   UNL     1     144.069 125.468  99.268  0.00  0.00    +0.000 C 
ATOM     28  C   UNL     1     143.443 125.917 100.480  0.00  0.00    +0.000 C 
ATOM     29  C   UNL     1     142.869 126.320 101.576  0.00  0.00    +0.000 C 
ATOM     30  C   UNL     1     141.724 127.293 101.391  0.00  0.00    +0.000 C 
BRANCH  27  31
ATOM     31  C   UNL     1     143.270 124.642  98.374  0.00  0.00    +0.000 C 
ATOM     32  C   UNL     1     143.257 123.133  98.527  0.00  0.00    +0.000 C 
ATOM     33  C   UNL     1     142.026 125.225  97.731  0.00  0.00    +0.000 C 
ENDBRANCH  27  31
BRANCH  29  35
ATOM     34  O   UNL     1     142.976 126.222 103.984  0.00  0.00    +0.000 OA
ATOM     35  C   UNL     1     143.352 125.820 102.892  0.00  0.00    +0.000 C 
BRANCH  35  36
ATOM     36  O   UNL     1     144.281 124.844 102.816  0.00  0.00    +0.000 OA
ATOM     37  H   UNL     1     145.085 125.281 102.464  0.00  0.00    +0.000 HD
ENDBRANCH  35  36
ENDBRANCH  29  35
ENDBRANCH  24  27
ENDBRANCH   5  25
BRANCH   5  38
ATOM     38  C   UNL     1     147.856 128.124  98.626  0.00  0.00    +0.000 C 
ATOM     39  C   UNL     1     149.209 127.418  98.958  0.00  0.00    +0.000 C 
ATOM     40  C   UNL     1     148.163 129.391  97.777  0.00  0.00    +0.000 C 
ATOM     41  C   UNL     1     147.141 128.497  99.948  0.00  0.00    +0.000 C 
ENDBRANCH   5  38
TORSDOF 7
ENDMDL
