MODEL 1
REMARK VINA RESULT:      -7.2      0.000      0.000
REMARK  Name = 11167602_Regorafenib.pdbqt.pdb
REMARK  6 active torsions:
REMARK  status: ('A' for Active; 'I' for Inactive)
REMARK    1  A    between atoms: C_2  and  N_10
REMARK    2  A    between atoms: C_3  and  O_25
REMARK    3  A    between atoms: N_9  and  C_15
REMARK    4  A    between atoms: C_16  and  C_24
REMARK    5  A    between atoms: O_25  and  C_27
REMARK    6  A    between atoms: C_29  and  C_34
REMARK                            x       y       z     vdW  Elec       q    Type
REMARK                         _______ _______ _______ _____ _____    ______ ____
ROOT
ATOM      1  F   UNL     1     142.751 129.872  97.690  0.00  0.00    +0.000 F 
ATOM      2  C   UNL     1     142.351 127.574  97.294  0.00  0.00    +0.000 A 
ATOM      3  C   UNL     1     144.564 126.977  98.895  0.00  0.00    +0.000 A 
ATOM      4  C   UNL     1     143.102 128.592  97.887  0.00  0.00    +0.000 A 
ATOM      5  C   UNL     1     142.738 126.250  97.497  0.00  0.00    +0.000 A 
ATOM      6  C   UNL     1     144.213 128.309  98.675  0.00  0.00    +0.000 A 
ATOM      7  C   UNL     1     143.849 125.949  98.284  0.00  0.00    +0.000 A 
ENDROOT
BRANCH   2  10
ATOM      8  O   UNL     1     142.273 128.355  94.497  0.00  0.00    +0.000 OA
ATOM      9  N   UNL     1     139.980 128.555  94.710  0.00  0.00    +0.000 N 
ATOM     10  N   UNL     1     141.231 127.934  96.515  0.00  0.00    +0.000 N 
ATOM     11  C   UNL     1     141.257 128.287  95.176  0.00  0.00    +0.000 C 
ATOM     12  H   UNL     1     139.209 128.438  95.352  0.00  0.00    +0.000 HD
ATOM     13  H   UNL     1     140.345 127.942  97.001  0.00  0.00    +0.000 HD
BRANCH   9  15
ATOM     14 CL   UNL     1     138.586 130.084  89.162  0.00  0.00    +0.000 Cl
ATOM     15  C   UNL     1     139.655 128.950  93.399  0.00  0.00    +0.000 A 
ATOM     16  C   UNL     1     138.950 128.259  91.169  0.00  0.00    +0.000 A 
ATOM     17  C   UNL     1     139.289 127.955  92.492  0.00  0.00    +0.000 A 
ATOM     18  C   UNL     1     139.681 130.275  92.975  0.00  0.00    +0.000 A 
ATOM     19  C   UNL     1     138.984 129.594  90.764  0.00  0.00    +0.000 A 
ATOM     20  C   UNL     1     139.348 130.596  91.663  0.00  0.00    +0.000 A 
BRANCH  16  24
ATOM     21  F   UNL     1     139.435 126.991  89.208  0.00  0.00    +0.000 F 
ATOM     22  F   UNL     1     138.529 125.933  90.868  0.00  0.00    +0.000 F 
ATOM     23  F   UNL     1     137.345 127.323  89.674  0.00  0.00    +0.000 F 
ATOM     24  C   UNL     1     138.566 127.144  90.248  0.00  0.00    +0.000 C 
ENDBRANCH  16  24
ENDBRANCH   9  15
ENDBRANCH   2  10
BRANCH   3  25
ATOM     25  O   UNL     1     145.692 126.626  99.599  0.00  0.00    +0.000 OA
BRANCH  25  27
ATOM     26  N   UNL     1     146.106 127.668 103.618  0.00  0.00    +0.000 NA
ATOM     27  C   UNL     1     145.749 126.966 100.932  0.00  0.00    +0.000 A 
ATOM     28  C   UNL     1     144.957 126.372 101.908  0.00  0.00    +0.000 A 
ATOM     29  C   UNL     1     145.168 126.763 103.220  0.00  0.00    +0.000 A 
ATOM     30  C   UNL     1     146.736 127.879 101.290  0.00  0.00    +0.000 A 
ATOM     31  C   UNL     1     146.868 128.198 102.633  0.00  0.00    +0.000 A 
BRANCH  29  34
ATOM     32  O   UNL     1     143.138 125.938 104.092  0.00  0.00    +0.000 OA
ATOM     33  N   UNL     1     145.027 125.974 105.470  0.00  0.00    +0.000 N 
ATOM     34  C   UNL     1     144.323 126.180 104.295  0.00  0.00    +0.000 C 
ATOM     35  C   UNL     1     144.621 125.446 106.744  0.00  0.00    +0.000 C 
ATOM     36  H   UNL     1     146.007 126.250 105.425  0.00  0.00    +0.000 HD
ENDBRANCH  29  34
ENDBRANCH  25  27
ENDBRANCH   3  25
TORSDOF 6
ENDMDL
MODEL 2
REMARK VINA RESULT:      -7.0     36.677     38.635
REMARK  Name = 11167602_Regorafenib.pdbqt.pdb
REMARK  6 active torsions:
REMARK  status: ('A' for Active; 'I' for Inactive)
REMARK    1  A    between atoms: C_2  and  N_10
REMARK    2  A    between atoms: C_3  and  O_25
REMARK    3  A    between atoms: N_9  and  C_15
REMARK    4  A    between atoms: C_16  and  C_24
REMARK    5  A    between atoms: O_25  and  C_27
REMARK    6  A    between atoms: C_29  and  C_34
REMARK                            x       y       z     vdW  Elec       q    Type
REMARK                         _______ _______ _______ _____ _____    ______ ____
ROOT
ATOM      1  F   UNL     1     137.601 132.556 132.132  0.00  0.00    +0.000 F 
ATOM      2  C   UNL     1     138.972 133.474 133.829  0.00  0.00    +0.000 A 
ATOM      3  C   UNL     1     137.137 135.565 134.094  0.00  0.00    +0.000 A 
ATOM      4  C   UNL     1     137.825 133.527 133.032  0.00  0.00    +0.000 A 
ATOM      5  C   UNL     1     139.197 134.497 134.749  0.00  0.00    +0.000 A 
ATOM      6  C   UNL     1     136.912 134.569 133.144  0.00  0.00    +0.000 A 
ATOM      7  C   UNL     1     138.291 135.549 134.874  0.00  0.00    +0.000 A 
ENDROOT
BRANCH   2  10
ATOM      8  O   UNL     1     138.697 130.769 134.852  0.00  0.00    +0.000 OA
ATOM      9  N   UNL     1     140.697 130.267 133.805  0.00  0.00    +0.000 N 
ATOM     10  N   UNL     1     139.851 132.382 133.667  0.00  0.00    +0.000 N 
ATOM     11  C   UNL     1     139.657 131.107 134.172  0.00  0.00    +0.000 C 
ATOM     12  H   UNL     1     141.424 130.645 133.216  0.00  0.00    +0.000 HD
ATOM     13  H   UNL     1     140.695 132.574 133.146  0.00  0.00    +0.000 HD
BRANCH   9  15
ATOM     14 CL   UNL     1     141.108 124.525 135.191  0.00  0.00    +0.000 Cl
ATOM     15  C   UNL     1     140.814 128.910 134.160  0.00  0.00    +0.000 A 
ATOM     16  C   UNL     1     140.186 126.604 133.670  0.00  0.00    +0.000 A 
ATOM     17  C   UNL     1     140.125 127.974 133.389  0.00  0.00    +0.000 A 
ATOM     18  C   UNL     1     141.581 128.468 135.234  0.00  0.00    +0.000 A 
ATOM     19  C   UNL     1     140.960 126.182 134.753  0.00  0.00    +0.000 A 
ATOM     20  C   UNL     1     141.653 127.110 135.530  0.00  0.00    +0.000 A 
BRANCH  16  24
ATOM     21  F   UNL     1     138.344 125.107 133.434  0.00  0.00    +0.000 F 
ATOM     22  F   UNL     1     138.923 126.244 131.682  0.00  0.00    +0.000 F 
ATOM     23  F   UNL     1     140.170 124.597 132.384  0.00  0.00    +0.000 F 
ATOM     24  C   UNL     1     139.423 125.655 132.802  0.00  0.00    +0.000 C 
ENDBRANCH  16  24
ENDBRANCH   9  15
ENDBRANCH   2  10
BRANCH   3  25
ATOM     25  O   UNL     1     136.316 136.663 134.208  0.00  0.00    +0.000 OA
BRANCH  25  27
ATOM     26  N   UNL     1     132.430 135.851 135.490  0.00  0.00    +0.000 NA
ATOM     27  C   UNL     1     135.008 136.452 134.582  0.00  0.00    +0.000 A 
ATOM     28  C   UNL     1     133.946 136.451 133.684  0.00  0.00    +0.000 A 
ATOM     29  C   UNL     1     132.690 136.157 134.187  0.00  0.00    +0.000 A 
ATOM     30  C   UNL     1     134.796 136.123 135.917  0.00  0.00    +0.000 A 
ATOM     31  C   UNL     1     133.500 135.840 136.317  0.00  0.00    +0.000 A 
BRANCH  29  34
ATOM     32  O   UNL     1     130.722 135.244 133.265  0.00  0.00    +0.000 OA
ATOM     33  N   UNL     1     131.475 137.317 132.490  0.00  0.00    +0.000 N 
ATOM     34  C   UNL     1     131.519 136.176 133.273  0.00  0.00    +0.000 C 
ATOM     35  C   UNL     1     130.544 137.748 131.484  0.00  0.00    +0.000 C 
ATOM     36  H   UNL     1     132.243 137.968 132.654  0.00  0.00    +0.000 HD
ENDBRANCH  29  34
ENDBRANCH  25  27
ENDBRANCH   3  25
TORSDOF 6
ENDMDL
MODEL 3
REMARK VINA RESULT:      -6.9      3.190      4.062
REMARK  Name = 11167602_Regorafenib.pdbqt.pdb
REMARK  6 active torsions:
REMARK  status: ('A' for Active; 'I' for Inactive)
REMARK    1  A    between atoms: C_2  and  N_10
REMARK    2  A    between atoms: C_3  and  O_25
REMARK    3  A    between atoms: N_9  and  C_15
REMARK    4  A    between atoms: C_16  and  C_24
REMARK    5  A    between atoms: O_25  and  C_27
REMARK    6  A    between atoms: C_29  and  C_34
REMARK                            x       y       z     vdW  Elec       q    Type
REMARK                         _______ _______ _______ _____ _____    ______ ____
ROOT
ATOM      1  F   UNL     1     143.226 128.520  97.002  0.00  0.00    +0.000 F 
ATOM      2  C   UNL     1     141.876 126.768  96.161  0.00  0.00    +0.000 A 
ATOM      3  C   UNL     1     142.233 125.415  98.580  0.00  0.00    +0.000 A 
ATOM      4  C   UNL     1     142.652 127.321  97.183  0.00  0.00    +0.000 A 
ATOM      5  C   UNL     1     141.298 125.516  96.359  0.00  0.00    +0.000 A 
ATOM      6  C   UNL     1     142.848 126.651  98.386  0.00  0.00    +0.000 A 
ATOM      7  C   UNL     1     141.485 124.832  97.560  0.00  0.00    +0.000 A 
ENDROOT
BRANCH   2  10
ATOM      8  O   UNL     1     140.020 128.937  95.624  0.00  0.00    +0.000 OA
ATOM      9  N   UNL     1     140.931 129.073  93.504  0.00  0.00    +0.000 N 
ATOM     10  N   UNL     1     141.712 127.508  94.970  0.00  0.00    +0.000 N 
ATOM     11  C   UNL     1     140.813 128.544  94.780  0.00  0.00    +0.000 C 
ATOM     12  H   UNL     1     141.641 128.690  92.898  0.00  0.00    +0.000 HD
ATOM     13  H   UNL     1     142.303 127.231  94.199  0.00  0.00    +0.000 HD
BRANCH   9  15
ATOM     14 CL   UNL     1     137.772 133.607  91.376  0.00  0.00    +0.000 Cl
ATOM     15  C   UNL     1     140.160 130.128  92.983  0.00  0.00    +0.000 A 
ATOM     16  C   UNL     1     139.828 132.541  92.834  0.00  0.00    +0.000 A 
ATOM     17  C   UNL     1     140.537 131.431  93.309  0.00  0.00    +0.000 A 
ATOM     18  C   UNL     1     139.051 129.930  92.166  0.00  0.00    +0.000 A 
ATOM     19  C   UNL     1     138.718 132.319  92.017  0.00  0.00    +0.000 A 
ATOM     20  C   UNL     1     138.332 131.021  91.686  0.00  0.00    +0.000 A 
BRANCH  16  24
ATOM     21  F   UNL     1     139.356 134.600  93.941  0.00  0.00    +0.000 F 
ATOM     22  F   UNL     1     141.406 133.897  93.997  0.00  0.00    +0.000 F 
ATOM     23  F   UNL     1     140.570 134.700  92.149  0.00  0.00    +0.000 F 
ATOM     24  C   UNL     1     140.288 133.911  93.221  0.00  0.00    +0.000 C 
ENDBRANCH  16  24
ENDBRANCH   9  15
ENDBRANCH   2  10
BRANCH   3  25
ATOM     25  O   UNL     1     142.445 124.664  99.713  0.00  0.00    +0.000 OA
BRANCH  25  27
ATOM     26  N   UNL     1     142.125 126.781 103.293  0.00  0.00    +0.000 NA
ATOM     27  C   UNL     1     142.380 125.304 100.930  0.00  0.00    +0.000 A 
ATOM     28  C   UNL     1     143.446 125.364 101.821  0.00  0.00    +0.000 A 
ATOM     29  C   UNL     1     143.263 126.100 102.980  0.00  0.00    +0.000 A 
ATOM     30  C   UNL     1     141.205 126.002 101.195  0.00  0.00    +0.000 A 
ATOM     31  C   UNL     1     141.128 126.712 102.382  0.00  0.00    +0.000 A 
BRANCH  29  34
ATOM     32  O   UNL     1     144.124 126.030 105.174  0.00  0.00    +0.000 OA
ATOM     33  N   UNL     1     145.596 126.391 103.395  0.00  0.00    +0.000 N 
ATOM     34  C   UNL     1     144.362 126.166 103.978  0.00  0.00    +0.000 C 
ATOM     35  C   UNL     1     146.909 126.529 103.964  0.00  0.00    +0.000 C 
ATOM     36  H   UNL     1     145.571 126.478 102.379  0.00  0.00    +0.000 HD
ENDBRANCH  29  34
ENDBRANCH  25  27
ENDBRANCH   3  25
TORSDOF 6
ENDMDL
MODEL 4
REMARK VINA RESULT:      -6.8     36.785     39.750
REMARK  Name = 11167602_Regorafenib.pdbqt.pdb
REMARK  6 active torsions:
REMARK  status: ('A' for Active; 'I' for Inactive)
REMARK    1  A    between atoms: C_2  and  N_10
REMARK    2  A    between atoms: C_3  and  O_25
REMARK    3  A    between atoms: N_9  and  C_15
REMARK    4  A    between atoms: C_16  and  C_24
REMARK    5  A    between atoms: O_25  and  C_27
REMARK    6  A    between atoms: C_29  and  C_34
REMARK                            x       y       z     vdW  Elec       q    Type
REMARK                         _______ _______ _______ _____ _____    ______ ____
ROOT
ATOM      1  F   UNL     1     137.417 132.898 132.374  0.00  0.00    +0.000 F 
ATOM      2  C   UNL     1     138.904 133.479 134.122  0.00  0.00    +0.000 A 
ATOM      3  C   UNL     1     137.216 135.612 134.764  0.00  0.00    +0.000 A 
ATOM      4  C   UNL     1     137.735 133.713 133.392  0.00  0.00    +0.000 A 
ATOM      5  C   UNL     1     139.226 134.343 135.167  0.00  0.00    +0.000 A 
ATOM      6  C   UNL     1     136.894 134.780 133.693  0.00  0.00    +0.000 A 
ATOM      7  C   UNL     1     138.393 135.416 135.482  0.00  0.00    +0.000 A 
ENDROOT
BRANCH   2  10
ATOM      8  O   UNL     1     138.552 130.689 134.847  0.00  0.00    +0.000 OA
ATOM      9  N   UNL     1     140.437 130.218 133.594  0.00  0.00    +0.000 N 
ATOM     10  N   UNL     1     139.704 132.373 133.767  0.00  0.00    +0.000 N 
ATOM     11  C   UNL     1     139.476 131.058 134.136  0.00  0.00    +0.000 C 
ATOM     12  H   UNL     1     141.139 130.628 132.995  0.00  0.00    +0.000 HD
ATOM     13  H   UNL     1     140.517 132.584 133.205  0.00  0.00    +0.000 HD
BRANCH   9  15
ATOM     14 CL   UNL     1     140.792 124.378 134.501  0.00  0.00    +0.000 Cl
ATOM     15  C   UNL     1     140.503 128.825 133.781  0.00  0.00    +0.000 A 
ATOM     16  C   UNL     1     141.323 126.982 135.153  0.00  0.00    +0.000 A 
ATOM     17  C   UNL     1     141.207 128.352 134.889  0.00  0.00    +0.000 A 
ATOM     18  C   UNL     1     139.903 127.911 132.921  0.00  0.00    +0.000 A 
ATOM     19  C   UNL     1     140.714 126.082 134.276  0.00  0.00    +0.000 A 
ATOM     20  C   UNL     1     140.009 126.546 133.166  0.00  0.00    +0.000 A 
BRANCH  16  24
ATOM     21  F   UNL     1     142.835 125.421 136.135  0.00  0.00    +0.000 F 
ATOM     22  F   UNL     1     142.975 127.480 136.797  0.00  0.00    +0.000 F 
ATOM     23  F   UNL     1     141.292 126.238 137.418  0.00  0.00    +0.000 F 
ATOM     24  C   UNL     1     142.091 126.542 136.359  0.00  0.00    +0.000 C 
ENDBRANCH  16  24
ENDBRANCH   9  15
ENDBRANCH   2  10
BRANCH   3  25
ATOM     25  O   UNL     1     136.472 136.728 135.071  0.00  0.00    +0.000 OA
BRANCH  25  27
ATOM     26  N   UNL     1     133.606 136.264 138.068  0.00  0.00    +0.000 NA
ATOM     27  C   UNL     1     135.471 136.595 136.007  0.00  0.00    +0.000 A 
ATOM     28  C   UNL     1     134.236 136.019 135.730  0.00  0.00    +0.000 A 
ATOM     29  C   UNL     1     133.346 135.888 136.784  0.00  0.00    +0.000 A 
ATOM     30  C   UNL     1     135.791 136.974 137.307  0.00  0.00    +0.000 A 
ATOM     31  C   UNL     1     134.831 136.795 138.289  0.00  0.00    +0.000 A 
BRANCH  29  34
ATOM     32  O   UNL     1     131.553 134.434 137.266  0.00  0.00    +0.000 OA
ATOM     33  N   UNL     1     131.386 135.862 135.422  0.00  0.00    +0.000 N 
ATOM     34  C   UNL     1     132.002 135.308 136.531  0.00  0.00    +0.000 C 
ATOM     35  C   UNL     1     130.108 135.607 134.815  0.00  0.00    +0.000 C 
ATOM     36  H   UNL     1     131.938 136.575 134.947  0.00  0.00    +0.000 HD
ENDBRANCH  29  34
ENDBRANCH  25  27
ENDBRANCH   3  25
TORSDOF 6
ENDMDL
MODEL 5
REMARK VINA RESULT:      -6.7      4.937     10.518
REMARK  Name = 11167602_Regorafenib.pdbqt.pdb
REMARK  6 active torsions:
REMARK  status: ('A' for Active; 'I' for Inactive)
REMARK    1  A    between atoms: C_2  and  N_10
REMARK    2  A    between atoms: C_3  and  O_25
REMARK    3  A    between atoms: N_9  and  C_15
REMARK    4  A    between atoms: C_16  and  C_24
REMARK    5  A    between atoms: O_25  and  C_27
REMARK    6  A    between atoms: C_29  and  C_34
REMARK                            x       y       z     vdW  Elec       q    Type
REMARK                         _______ _______ _______ _____ _____    ______ ____
ROOT
ATOM      1  F   UNL     1     138.895 129.326  95.618  0.00  0.00    +0.000 F 
ATOM      2  C   UNL     1     140.614 128.422  94.265  0.00  0.00    +0.000 A 
ATOM      3  C   UNL     1     140.237 130.539  92.479  0.00  0.00    +0.000 A 
ATOM      4  C   UNL     1     139.647 129.401  94.508  0.00  0.00    +0.000 A 
ATOM      5  C   UNL     1     141.377 128.507  93.101  0.00  0.00    +0.000 A 
ATOM      6  C   UNL     1     139.440 130.452  93.621  0.00  0.00    +0.000 A 
ATOM      7  C   UNL     1     141.182 129.554  92.202  0.00  0.00    +0.000 A 
ENDROOT
BRANCH   2  10
ATOM      8  O   UNL     1     142.392 128.342  96.560  0.00  0.00    +0.000 OA
ATOM      9  N   UNL     1     141.526 126.254  97.046  0.00  0.00    +0.000 N 
ATOM     10  N   UNL     1     140.775 127.390  95.214  0.00  0.00    +0.000 N 
ATOM     11  C   UNL     1     141.636 127.416  96.299  0.00  0.00    +0.000 C 
ATOM     12  H   UNL     1     140.846 125.567  96.753  0.00  0.00    +0.000 HD
ATOM     13  H   UNL     1     140.214 126.564  95.060  0.00  0.00    +0.000 HD
BRANCH   9  15
ATOM     14 CL   UNL     1     144.700 124.891 101.855  0.00  0.00    +0.000 Cl
ATOM     15  C   UNL     1     142.265 125.955  98.205  0.00  0.00    +0.000 A 
ATOM     16  C   UNL     1     143.927 124.512  99.257  0.00  0.00    +0.000 A 
ATOM     17  C   UNL     1     143.151 124.879  98.151  0.00  0.00    +0.000 A 
ATOM     18  C   UNL     1     142.153 126.680  99.388  0.00  0.00    +0.000 A 
ATOM     19  C   UNL     1     143.798 125.252 100.434  0.00  0.00    +0.000 A 
ATOM     20  C   UNL     1     142.915 126.329 100.498  0.00  0.00    +0.000 A 
BRANCH  16  24
ATOM     21  F   UNL     1     144.753 122.712  97.929  0.00  0.00    +0.000 F 
ATOM     22  F   UNL     1     146.168 123.701  99.238  0.00  0.00    +0.000 F 
ATOM     23  F   UNL     1     144.638 122.386 100.068  0.00  0.00    +0.000 F 
ATOM     24  C   UNL     1     144.858 123.348  99.131  0.00  0.00    +0.000 C 
ENDBRANCH  16  24
ENDBRANCH   9  15
ENDBRANCH   2  10
BRANCH   3  25
ATOM     25  O   UNL     1     140.037 131.506  91.522  0.00  0.00    +0.000 OA
BRANCH  25  27
ATOM     26  N   UNL     1     143.062 134.313  90.903  0.00  0.00    +0.000 NA
ATOM     27  C   UNL     1     141.004 132.475  91.377  0.00  0.00    +0.000 A 
ATOM     28  C   UNL     1     141.624 133.105  92.451  0.00  0.00    +0.000 A 
ATOM     29  C   UNL     1     142.629 134.013  92.160  0.00  0.00    +0.000 A 
ATOM     30  C   UNL     1     141.427 132.731  90.076  0.00  0.00    +0.000 A 
ATOM     31  C   UNL     1     142.445 133.654  89.895  0.00  0.00    +0.000 A 
BRANCH  29  34
ATOM     32  O   UNL     1     144.521 134.741  93.364  0.00  0.00    +0.000 OA
ATOM     33  N   UNL     1     142.396 135.349  94.125  0.00  0.00    +0.000 N 
ATOM     34  C   UNL     1     143.298 134.736  93.273  0.00  0.00    +0.000 C 
ATOM     35  C   UNL     1     142.590 136.137  95.312  0.00  0.00    +0.000 C 
ATOM     36  H   UNL     1     141.418 135.216  93.868  0.00  0.00    +0.000 HD
ENDBRANCH  29  34
ENDBRANCH  25  27
ENDBRANCH   3  25
TORSDOF 6
ENDMDL
MODEL 6
REMARK VINA RESULT:      -6.6      4.726     11.105
REMARK  Name = 11167602_Regorafenib.pdbqt.pdb
REMARK  6 active torsions:
REMARK  status: ('A' for Active; 'I' for Inactive)
REMARK    1  A    between atoms: C_2  and  N_10
REMARK    2  A    between atoms: C_3  and  O_25
REMARK    3  A    between atoms: N_9  and  C_15
REMARK    4  A    between atoms: C_16  and  C_24
REMARK    5  A    between atoms: O_25  and  C_27
REMARK    6  A    between atoms: C_29  and  C_34
REMARK                            x       y       z     vdW  Elec       q    Type
REMARK                         _______ _______ _______ _____ _____    ______ ____
ROOT
ATOM      1  F   UNL     1     143.312 127.666  94.525  0.00  0.00    +0.000 F 
ATOM      2  C   UNL     1     141.328 128.066  95.752  0.00  0.00    +0.000 A 
ATOM      3  C   UNL     1     140.380 129.585  93.605  0.00  0.00    +0.000 A 
ATOM      4  C   UNL     1     142.102 128.241  94.601  0.00  0.00    +0.000 A 
ATOM      5  C   UNL     1     140.079 128.681  95.821  0.00  0.00    +0.000 A 
ATOM      6  C   UNL     1     141.647 129.006  93.532  0.00  0.00    +0.000 A 
ATOM      7  C   UNL     1     139.609 129.450  94.757  0.00  0.00    +0.000 A 
ENDROOT
BRANCH   2  10
ATOM      8  O   UNL     1     142.436 128.921  98.296  0.00  0.00    +0.000 OA
ATOM      9  N   UNL     1     142.757 126.689  98.805  0.00  0.00    +0.000 N 
ATOM     10  N   UNL     1     141.849 127.269  96.793  0.00  0.00    +0.000 N 
ATOM     11  C   UNL     1     142.354 127.738  97.994  0.00  0.00    +0.000 C 
ATOM     12  H   UNL     1     142.616 125.749  98.466  0.00  0.00    +0.000 HD
ATOM     13  H   UNL     1     141.857 126.274  96.620  0.00  0.00    +0.000 HD
BRANCH   9  15
ATOM     14 CL   UNL     1     145.269 127.264 104.137  0.00  0.00    +0.000 Cl
ATOM     15  C   UNL     1     143.324 126.818 100.087  0.00  0.00    +0.000 A 
ATOM     16  C   UNL     1     145.328 127.274 101.401  0.00  0.00    +0.000 A 
ATOM     17  C   UNL     1     144.682 127.127 100.168  0.00  0.00    +0.000 A 
ATOM     18  C   UNL     1     142.597 126.655 101.261  0.00  0.00    +0.000 A 
ATOM     19  C   UNL     1     144.580 127.106 102.567  0.00  0.00    +0.000 A 
ATOM     20  C   UNL     1     143.222 126.797 102.497  0.00  0.00    +0.000 A 
BRANCH  16  24
ATOM     21  F   UNL     1     147.544 126.648 102.024  0.00  0.00    +0.000 F 
ATOM     22  F   UNL     1     147.314 127.744 100.169  0.00  0.00    +0.000 F 
ATOM     23  F   UNL     1     147.063 128.760 102.082  0.00  0.00    +0.000 F 
ATOM     24  C   UNL     1     146.787 127.607 101.416  0.00  0.00    +0.000 C 
ENDBRANCH  16  24
ENDBRANCH   9  15
ENDBRANCH   2  10
BRANCH   3  25
ATOM     25  O   UNL     1     139.898 130.414  92.619  0.00  0.00    +0.000 OA
BRANCH  25  27
ATOM     26  N   UNL     1     139.479 134.512  93.281  0.00  0.00    +0.000 NA
ATOM     27  C   UNL     1     139.813 131.760  92.897  0.00  0.00    +0.000 A 
ATOM     28  C   UNL     1     140.916 132.550  93.202  0.00  0.00    +0.000 A 
ATOM     29  C   UNL     1     140.693 133.903  93.393  0.00  0.00    +0.000 A 
ATOM     30  C   UNL     1     138.556 132.338  92.749  0.00  0.00    +0.000 A 
ATOM     31  C   UNL     1     138.443 133.704  92.956  0.00  0.00    +0.000 A 
BRANCH  29  34
ATOM     32  O   UNL     1     142.698 134.391  94.533  0.00  0.00    +0.000 OA
ATOM     33  N   UNL     1     141.775 136.015  93.127  0.00  0.00    +0.000 N 
ATOM     34  C   UNL     1     141.835 134.782  93.754  0.00  0.00    +0.000 C 
ATOM     35  C   UNL     1     142.646 137.157  93.184  0.00  0.00    +0.000 C 
ATOM     36  H   UNL     1     140.966 136.137  92.519  0.00  0.00    +0.000 HD
ENDBRANCH  29  34
ENDBRANCH  25  27
ENDBRANCH   3  25
TORSDOF 6
ENDMDL
MODEL 7
REMARK VINA RESULT:      -6.6      4.701     11.028
REMARK  Name = 11167602_Regorafenib.pdbqt.pdb
REMARK  6 active torsions:
REMARK  status: ('A' for Active; 'I' for Inactive)
REMARK    1  A    between atoms: C_2  and  N_10
REMARK    2  A    between atoms: C_3  and  O_25
REMARK    3  A    between atoms: N_9  and  C_15
REMARK    4  A    between atoms: C_16  and  C_24
REMARK    5  A    between atoms: O_25  and  C_27
REMARK    6  A    between atoms: C_29  and  C_34
REMARK                            x       y       z     vdW  Elec       q    Type
REMARK                         _______ _______ _______ _____ _____    ______ ____
ROOT
ATOM      1  F   UNL     1     143.333 126.882  94.368  0.00  0.00    +0.000 F 
ATOM      2  C   UNL     1     141.574 127.764  95.683  0.00  0.00    +0.000 A 
ATOM      3  C   UNL     1     140.751 129.258  93.469  0.00  0.00    +0.000 A 
ATOM      4  C   UNL     1     142.265 127.688  94.470  0.00  0.00    +0.000 A 
ATOM      5  C   UNL     1     140.475 128.616  95.777  0.00  0.00    +0.000 A 
ATOM      6  C   UNL     1     141.873 128.437  93.365  0.00  0.00    +0.000 A 
ATOM      7  C   UNL     1     140.070 129.373  94.679  0.00  0.00    +0.000 A 
ENDROOT
BRANCH   2  10
ATOM      8  O   UNL     1     143.726 128.309  97.557  0.00  0.00    +0.000 OA
ATOM      9  N   UNL     1     143.213 126.304  98.589  0.00  0.00    +0.000 N 
ATOM     10  N   UNL     1     142.022 126.969  96.759  0.00  0.00    +0.000 N 
ATOM     11  C   UNL     1     143.051 127.290  97.629  0.00  0.00    +0.000 C 
ATOM     12  H   UNL     1     142.579 125.519  98.571  0.00  0.00    +0.000 HD
ATOM     13  H   UNL     1     141.545 126.086  96.878  0.00  0.00    +0.000 HD
BRANCH   9  15
ATOM     14 CL   UNL     1     147.169 126.414 102.994  0.00  0.00    +0.000 Cl
ATOM     15  C   UNL     1     144.176 126.315  99.616  0.00  0.00    +0.000 A 
ATOM     16  C   UNL     1     144.713 126.945 101.910  0.00  0.00    +0.000 A 
ATOM     17  C   UNL     1     143.819 126.892 100.835  0.00  0.00    +0.000 A 
ATOM     18  C   UNL     1     145.452 125.780  99.469  0.00  0.00    +0.000 A 
ATOM     19  C   UNL     1     145.988 126.404 101.741  0.00  0.00    +0.000 A 
ATOM     20  C   UNL     1     146.355 125.825 100.526  0.00  0.00    +0.000 A 
BRANCH  16  24
ATOM     21  F   UNL     1     144.288 126.713 104.246  0.00  0.00    +0.000 F 
ATOM     22  F   UNL     1     145.045 128.627 103.566  0.00  0.00    +0.000 F 
ATOM     23  F   UNL     1     142.988 128.044 103.136  0.00  0.00    +0.000 F 
ATOM     24  C   UNL     1     144.265 127.577 103.190  0.00  0.00    +0.000 C 
ENDBRANCH  16  24
ENDBRANCH   9  15
ENDBRANCH   2  10
BRANCH   3  25
ATOM     25  O   UNL     1     140.352 130.082  92.442  0.00  0.00    +0.000 OA
BRANCH  25  27
ATOM     26  N   UNL     1     143.147 132.858  91.068  0.00  0.00    +0.000 NA
ATOM     27  C   UNL     1     141.230 131.056  92.021  0.00  0.00    +0.000 A 
ATOM     28  C   UNL     1     141.602 132.142  92.807  0.00  0.00    +0.000 A 
ATOM     29  C   UNL     1     142.547 133.009  92.283  0.00  0.00    +0.000 A 
ATOM     30  C   UNL     1     141.831 130.847  90.784  0.00  0.00    +0.000 A 
ATOM     31  C   UNL     1     142.770 131.772  90.356  0.00  0.00    +0.000 A 
BRANCH  29  34
ATOM     32  O   UNL     1     144.130 134.536  93.130  0.00  0.00    +0.000 OA
ATOM     33  N   UNL     1     141.876 134.825  93.680  0.00  0.00    +0.000 N 
ATOM     34  C   UNL     1     142.951 134.202  93.070  0.00  0.00    +0.000 C 
ATOM     35  C   UNL     1     141.801 135.987  94.524  0.00  0.00    +0.000 C 
ATOM     36  H   UNL     1     140.977 134.379  93.502  0.00  0.00    +0.000 HD
ENDBRANCH  29  34
ENDBRANCH  25  27
ENDBRANCH   3  25
TORSDOF 6
ENDMDL
MODEL 8
REMARK VINA RESULT:      -6.6     18.779     21.755
REMARK  Name = 11167602_Regorafenib.pdbqt.pdb
REMARK  6 active torsions:
REMARK  status: ('A' for Active; 'I' for Inactive)
REMARK    1  A    between atoms: C_2  and  N_10
REMARK    2  A    between atoms: C_3  and  O_25
REMARK    3  A    between atoms: N_9  and  C_15
REMARK    4  A    between atoms: C_16  and  C_24
REMARK    5  A    between atoms: O_25  and  C_27
REMARK    6  A    between atoms: C_29  and  C_34
REMARK                            x       y       z     vdW  Elec       q    Type
REMARK                         _______ _______ _______ _____ _____    ______ ____
ROOT
ATOM      1  F   UNL     1     137.972 116.448 110.756  0.00  0.00    +0.000 F 
ATOM      2  C   UNL     1     138.803 116.368 112.971  0.00  0.00    +0.000 A 
ATOM      3  C   UNL     1     136.254 115.613 113.834  0.00  0.00    +0.000 A 
ATOM      4  C   UNL     1     137.751 116.225 112.061  0.00  0.00    +0.000 A 
ATOM      5  C   UNL     1     138.554 116.147 114.324  0.00  0.00    +0.000 A 
ATOM      6  C   UNL     1     136.475 115.864 112.480  0.00  0.00    +0.000 A 
ATOM      7  C   UNL     1     137.280 115.783 114.760  0.00  0.00    +0.000 A 
ENDROOT
BRANCH   2  10
ATOM      8  O   UNL     1     140.849 114.651 111.831  0.00  0.00    +0.000 OA
ATOM      9  N   UNL     1     142.135 116.546 111.512  0.00  0.00    +0.000 N 
ATOM     10  N   UNL     1     140.073 116.729 112.474  0.00  0.00    +0.000 N 
ATOM     11  C   UNL     1     141.004 115.861 111.929  0.00  0.00    +0.000 C 
ATOM     12  H   UNL     1     142.143 117.550 111.615  0.00  0.00    +0.000 HD
ATOM     13  H   UNL     1     140.308 117.709 112.545  0.00  0.00    +0.000 HD
BRANCH   9  15
ATOM     14 CL   UNL     1     146.984 114.083 109.170  0.00  0.00    +0.000 Cl
ATOM     15  C   UNL     1     143.273 115.962 110.925  0.00  0.00    +0.000 A 
ATOM     16  C   UNL     1     145.511 115.053 111.263  0.00  0.00    +0.000 A 
ATOM     17  C   UNL     1     144.341 115.637 111.762  0.00  0.00    +0.000 A 
ATOM     18  C   UNL     1     143.377 115.698 109.563  0.00  0.00    +0.000 A 
ATOM     19  C   UNL     1     145.595 114.798 109.893  0.00  0.00    +0.000 A 
ATOM     20  C   UNL     1     144.533 115.119 109.049  0.00  0.00    +0.000 A 
BRANCH  16  24
ATOM     21  F   UNL     1     147.074 113.449 112.084  0.00  0.00    +0.000 F 
ATOM     22  F   UNL     1     147.712 115.520 112.049  0.00  0.00    +0.000 F 
ATOM     23  F   UNL     1     146.250 114.846 113.521  0.00  0.00    +0.000 F 
ATOM     24  C   UNL     1     146.618 114.728 112.216  0.00  0.00    +0.000 C 
ENDBRANCH  16  24
ENDBRANCH   9  15
ENDBRANCH   2  10
BRANCH   3  25
ATOM     25  O   UNL     1     135.003 115.326 114.328  0.00  0.00    +0.000 OA
BRANCH  25  27
ATOM     26  N   UNL     1     132.833 118.185 116.455  0.00  0.00    +0.000 NA
ATOM     27  C   UNL     1     134.329 116.326 114.993  0.00  0.00    +0.000 A 
ATOM     28  C   UNL     1     133.904 117.500 114.380  0.00  0.00    +0.000 A 
ATOM     29  C   UNL     1     133.177 118.391 115.152  0.00  0.00    +0.000 A 
ATOM     30  C   UNL     1     133.983 116.060 116.314  0.00  0.00    +0.000 A 
ATOM     31  C   UNL     1     133.247 117.016 116.996  0.00  0.00    +0.000 A 
BRANCH  29  34
ATOM     32  O   UNL     1     132.475 120.639 115.267  0.00  0.00    +0.000 OA
ATOM     33  N   UNL     1     132.651 119.616 113.172  0.00  0.00    +0.000 N 
ATOM     34  C   UNL     1     132.731 119.675 114.552  0.00  0.00    +0.000 C 
ATOM     35  C   UNL     1     132.267 120.600 112.196  0.00  0.00    +0.000 C 
ATOM     36  H   UNL     1     132.905 118.712 112.775  0.00  0.00    +0.000 HD
ENDBRANCH  29  34
ENDBRANCH  25  27
ENDBRANCH   3  25
TORSDOF 6
ENDMDL
MODEL 9
REMARK VINA RESULT:      -6.4     31.285     37.751
REMARK  Name = 11167602_Regorafenib.pdbqt.pdb
REMARK  6 active torsions:
REMARK  status: ('A' for Active; 'I' for Inactive)
REMARK    1  A    between atoms: C_2  and  N_10
REMARK    2  A    between atoms: C_3  and  O_25
REMARK    3  A    between atoms: N_9  and  C_15
REMARK    4  A    between atoms: C_16  and  C_24
REMARK    5  A    between atoms: O_25  and  C_27
REMARK    6  A    between atoms: C_29  and  C_34
REMARK                            x       y       z     vdW  Elec       q    Type
REMARK                         _______ _______ _______ _____ _____    ______ ____
ROOT
ATOM      1  F   UNL     1     153.773 134.020 130.719  0.00  0.00    +0.000 F 
ATOM      2  C   UNL     1     151.584 133.154 130.967  0.00  0.00    +0.000 A 
ATOM      3  C   UNL     1     151.618 132.462 128.259  0.00  0.00    +0.000 A 
ATOM      4  C   UNL     1     152.701 133.425 130.171  0.00  0.00    +0.000 A 
ATOM      5  C   UNL     1     150.474 132.549 130.380  0.00  0.00    +0.000 A 
ATOM      6  C   UNL     1     152.725 133.098 128.820  0.00  0.00    +0.000 A 
ATOM      7  C   UNL     1     150.482 132.214 129.026  0.00  0.00    +0.000 A 
ENDROOT
BRANCH   2  10
ATOM      8  O   UNL     1     152.533 131.566 133.205  0.00  0.00    +0.000 OA
ATOM      9  N   UNL     1     152.043 133.365 134.573  0.00  0.00    +0.000 N 
ATOM     10  N   UNL     1     151.633 133.505 132.332  0.00  0.00    +0.000 N 
ATOM     11  C   UNL     1     152.111 132.704 133.356  0.00  0.00    +0.000 C 
ATOM     12  H   UNL     1     151.703 134.315 134.576  0.00  0.00    +0.000 HD
ATOM     13  H   UNL     1     151.271 134.420 132.562  0.00  0.00    +0.000 HD
BRANCH   9  15
ATOM     14 CL   UNL     1     153.579 131.056 139.805  0.00  0.00    +0.000 Cl
ATOM     15  C   UNL     1     152.438 132.832 135.814  0.00  0.00    +0.000 A 
ATOM     16  C   UNL     1     151.836 131.449 137.732  0.00  0.00    +0.000 A 
ATOM     17  C   UNL     1     151.527 132.021 136.492  0.00  0.00    +0.000 A 
ATOM     18  C   UNL     1     153.683 133.074 136.386  0.00  0.00    +0.000 A 
ATOM     19  C   UNL     1     153.091 131.706 138.288  0.00  0.00    +0.000 A 
ATOM     20  C   UNL     1     154.008 132.515 137.618  0.00  0.00    +0.000 A 
BRANCH  16  24
ATOM     21  F   UNL     1     151.087 129.257 138.297  0.00  0.00    +0.000 F 
ATOM     22  F   UNL     1     150.713 130.830 139.741  0.00  0.00    +0.000 F 
ATOM     23  F   UNL     1     149.564 130.743 137.888  0.00  0.00    +0.000 F 
ATOM     24  C   UNL     1     150.813 130.589 138.405  0.00  0.00    +0.000 C 
ENDBRANCH  16  24
ENDBRANCH   9  15
ENDBRANCH   2  10
BRANCH   3  25
ATOM     25  O   UNL     1     151.543 132.178 126.915  0.00  0.00    +0.000 OA
BRANCH  25  27
ATOM     26  N   UNL     1     148.837 134.168 124.439  0.00  0.00    +0.000 NA
ATOM     27  C   UNL     1     150.630 132.880 126.160  0.00  0.00    +0.000 A 
ATOM     28  C   UNL     1     150.456 134.257 126.254  0.00  0.00    +0.000 A 
ATOM     29  C   UNL     1     149.550 134.842 125.386  0.00  0.00    +0.000 A 
ATOM     30  C   UNL     1     149.942 132.151 125.195  0.00  0.00    +0.000 A 
ATOM     31  C   UNL     1     149.062 132.835 124.372  0.00  0.00    +0.000 A 
BRANCH  29  34
ATOM     32  O   UNL     1     149.618 137.042 124.540  0.00  0.00    +0.000 OA
ATOM     33  N   UNL     1     148.721 136.677 126.668  0.00  0.00    +0.000 N 
ATOM     34  C   UNL     1     149.306 136.305 125.470  0.00  0.00    +0.000 C 
ATOM     35  C   UNL     1     148.319 137.962 127.174  0.00  0.00    +0.000 C 
ATOM     36  H   UNL     1     148.547 135.903 127.308  0.00  0.00    +0.000 HD
ENDBRANCH  29  34
ENDBRANCH  25  27
ENDBRANCH   3  25
TORSDOF 6
ENDMDL
