MODEL 1
REMARK VINA RESULT:      -6.2      0.000      0.000
REMARK  Name = 114778_Kahweol.pdbqt.pdb
REMARK  3 active torsions:
REMARK  status: ('A' for Active; 'I' for Inactive)
REMARK    1  A    between atoms: C_8  and  O_21
REMARK    2  A    between atoms: C_8  and  C_23
REMARK    3  A    between atoms: C_23  and  O_24
REMARK                            x       y       z     vdW  Elec       q    Type
REMARK                         _______ _______ _______ _____ _____    ______ ____
ROOT
ATOM      1  O   UNL     1     133.419 115.923 134.036  0.00  0.00    +0.000 OA
ATOM      2  C   UNL     1     135.289 121.884 133.607  0.00  0.00    +0.000 C 
ATOM      3  C   UNL     1     134.846 121.064 134.896  0.00  0.00    +0.000 C 
ATOM      4  C   UNL     1     136.445 123.570 134.853  0.00  0.00    +0.000 C 
ATOM      5  C   UNL     1     135.276 123.321 133.992  0.00  0.00    +0.000 C 
ATOM      6  C   UNL     1     136.756 121.767 133.461  0.00  0.00    +0.000 C 
ATOM      7  C   UNL     1     133.652 120.104 134.878  0.00  0.00    +0.000 C 
ATOM      8  C   UNL     1     137.598 122.819 134.066  0.00  0.00    +0.000 C 
ATOM      9  C   UNL     1     134.509 121.450 132.477  0.00  0.00    +0.000 C 
ATOM     10  C   UNL     1     135.351 121.670 136.118  0.00  0.00    +0.000 C 
ATOM     11  C   UNL     1     136.131 122.990 136.152  0.00  0.00    +0.000 C 
ATOM     12  C   UNL     1     133.258 119.495 133.424  0.00  0.00    +0.000 C 
ATOM     13  C   UNL     1     133.546 120.317 132.311  0.00  0.00    +0.000 C 
ATOM     14  C   UNL     1     132.383 120.856 135.397  0.00  0.00    +0.000 C 
ATOM     15  C   UNL     1     133.964 118.921 135.727  0.00  0.00    +0.000 C 
ATOM     16  C   UNL     1     133.187 118.057 133.297  0.00  0.00    +0.000 A 
ATOM     17  C   UNL     1     133.920 117.731 135.593  0.00  0.00    +0.000 C 
ATOM     18  C   UNL     1     133.506 117.223 134.348  0.00  0.00    +0.000 A 
ATOM     19  C   UNL     1     132.874 117.191 132.230  0.00  0.00    +0.000 A 
ATOM     20  C   UNL     1     133.016 115.901 132.724  0.00  0.00    +0.000 A 
ENDROOT
BRANCH   8  21
ATOM     21  O   UNL     1     138.114 123.652 133.043  0.00  0.00    +0.000 OA
ATOM     22  H   UNL     1     138.846 123.156 132.640  0.00  0.00    +0.000 HD
ENDBRANCH   8  21
BRANCH   8  23
ATOM     23  C   UNL     1     138.695 122.340 134.916  0.00  0.00    +0.000 C 
BRANCH  23  24
ATOM     24  O   UNL     1     139.703 121.918 135.680  0.00  0.00    +0.000 OA
ATOM     25  H   UNL     1     140.512 122.429 135.502  0.00  0.00    +0.000 HD
ENDBRANCH  23  24
ENDBRANCH   8  23
TORSDOF 3
ENDMDL
MODEL 2
REMARK VINA RESULT:      -6.1     12.981     15.123
REMARK  Name = 114778_Kahweol.pdbqt.pdb
REMARK  3 active torsions:
REMARK  status: ('A' for Active; 'I' for Inactive)
REMARK    1  A    between atoms: C_8  and  O_21
REMARK    2  A    between atoms: C_8  and  C_23
REMARK    3  A    between atoms: C_23  and  O_24
REMARK                            x       y       z     vdW  Elec       q    Type
REMARK                         _______ _______ _______ _____ _____    ______ ____
ROOT
ATOM      1  O   UNL     1     135.791 135.555 131.300  0.00  0.00    +0.000 OA
ATOM      2  C   UNL     1     138.384 133.554 136.638  0.00  0.00    +0.000 C 
ATOM      3  C   UNL     1     138.877 134.704 135.655  0.00  0.00    +0.000 C 
ATOM      4  C   UNL     1     139.669 134.344 138.497  0.00  0.00    +0.000 C 
ATOM      5  C   UNL     1     139.531 133.240 137.532  0.00  0.00    +0.000 C 
ATOM      6  C   UNL     1     137.528 134.164 137.678  0.00  0.00    +0.000 C 
ATOM      7  C   UNL     1     138.827 134.547 134.131  0.00  0.00    +0.000 C 
ATOM      8  C   UNL     1     138.166 134.578 138.944  0.00  0.00    +0.000 C 
ATOM      9  C   UNL     1     137.781 132.498 135.867  0.00  0.00    +0.000 C 
ATOM     10  C   UNL     1     139.776 135.633 136.322  0.00  0.00    +0.000 C 
ATOM     11  C   UNL     1     140.256 135.458 137.768  0.00  0.00    +0.000 C 
ATOM     12  C   UNL     1     137.730 133.489 133.566  0.00  0.00    +0.000 C 
ATOM     13  C   UNL     1     137.422 132.405 134.418  0.00  0.00    +0.000 C 
ATOM     14  C   UNL     1     140.219 134.051 133.622  0.00  0.00    +0.000 C 
ATOM     15  C   UNL     1     138.463 135.855 133.518  0.00  0.00    +0.000 C 
ATOM     16  C   UNL     1     136.783 133.967 132.585  0.00  0.00    +0.000 A 
ATOM     17  C   UNL     1     137.653 136.234 132.720  0.00  0.00    +0.000 C 
ATOM     18  C   UNL     1     136.760 135.287 132.187  0.00  0.00    +0.000 A 
ATOM     19  C   UNL     1     135.727 133.357 131.878  0.00  0.00    +0.000 A 
ATOM     20  C   UNL     1     135.156 134.355 131.099  0.00  0.00    +0.000 A 
ENDROOT
BRANCH   8  21
ATOM     21  O   UNL     1     137.812 133.664 139.967  0.00  0.00    +0.000 OA
ATOM     22  H   UNL     1     137.050 133.166 139.627  0.00  0.00    +0.000 HD
ENDBRANCH   8  21
BRANCH   8  23
ATOM     23  C   UNL     1     137.873 135.949 139.381  0.00  0.00    +0.000 C 
BRANCH  23  24
ATOM     24  O   UNL     1     137.626 137.197 139.781  0.00  0.00    +0.000 OA
ATOM     25  H   UNL     1     138.367 137.547 140.306  0.00  0.00    +0.000 HD
ENDBRANCH  23  24
ENDBRANCH   8  23
TORSDOF 3
ENDMDL
MODEL 3
REMARK VINA RESULT:      -6.0     26.700     28.560
REMARK  Name = 114778_Kahweol.pdbqt.pdb
REMARK  3 active torsions:
REMARK  status: ('A' for Active; 'I' for Inactive)
REMARK    1  A    between atoms: C_8  and  O_21
REMARK    2  A    between atoms: C_8  and  C_23
REMARK    3  A    between atoms: C_23  and  O_24
REMARK                            x       y       z     vdW  Elec       q    Type
REMARK                         _______ _______ _______ _____ _____    ______ ____
ROOT
ATOM      1  O   UNL     1     155.081 120.405 112.975  0.00  0.00    +0.000 OA
ATOM      2  C   UNL     1     154.474 126.052 115.612  0.00  0.00    +0.000 C 
ATOM      3  C   UNL     1     155.603 125.526 114.623  0.00  0.00    +0.000 C 
ATOM      4  C   UNL     1     154.932 128.364 115.193  0.00  0.00    +0.000 C 
ATOM      5  C   UNL     1     154.993 127.309 116.218  0.00  0.00    +0.000 C 
ATOM      6  C   UNL     1     153.407 126.687 114.808  0.00  0.00    +0.000 C 
ATOM      7  C   UNL     1     156.207 124.123 114.751  0.00  0.00    +0.000 C 
ATOM      8  C   UNL     1     153.486 128.144 114.582  0.00  0.00    +0.000 C 
ATOM      9  C   UNL     1     154.057 124.975 116.472  0.00  0.00    +0.000 C 
ATOM     10  C   UNL     1     156.293 126.622 113.961  0.00  0.00    +0.000 C 
ATOM     11  C   UNL     1     156.021 128.101 114.264  0.00  0.00    +0.000 C 
ATOM     12  C   UNL     1     155.271 123.016 115.486  0.00  0.00    +0.000 C 
ATOM     13  C   UNL     1     154.375 123.513 116.459  0.00  0.00    +0.000 C 
ATOM     14  C   UNL     1     157.525 124.208 115.587  0.00  0.00    +0.000 C 
ATOM     15  C   UNL     1     156.465 123.576 113.390  0.00  0.00    +0.000 C 
ATOM     16  C   UNL     1     155.000 121.788 114.773  0.00  0.00    +0.000 A 
ATOM     17  C   UNL     1     156.209 122.559 112.809  0.00  0.00    +0.000 C 
ATOM     18  C   UNL     1     155.459 121.583 113.489  0.00  0.00    +0.000 A 
ATOM     19  C   UNL     1     154.265 120.627 115.085  0.00  0.00    +0.000 A 
ATOM     20  C   UNL     1     154.348 119.805 113.969  0.00  0.00    +0.000 A 
ENDROOT
BRANCH   8  21
ATOM     21  O   UNL     1     152.513 128.795 115.379  0.00  0.00    +0.000 OA
ATOM     22  H   UNL     1     152.364 129.661 114.963  0.00  0.00    +0.000 HD
ENDBRANCH   8  21
BRANCH   8  23
ATOM     23  C   UNL     1     153.350 128.575 113.185  0.00  0.00    +0.000 C 
BRANCH  23  24
ATOM     24  O   UNL     1     153.225 128.984 111.922  0.00  0.00    +0.000 OA
ATOM     25  H   UNL     1     152.298 129.200 111.717  0.00  0.00    +0.000 HD
ENDBRANCH  23  24
ENDBRANCH   8  23
TORSDOF 3
ENDMDL
MODEL 4
REMARK VINA RESULT:      -6.0     27.209     29.409
REMARK  Name = 114778_Kahweol.pdbqt.pdb
REMARK  3 active torsions:
REMARK  status: ('A' for Active; 'I' for Inactive)
REMARK    1  A    between atoms: C_8  and  O_21
REMARK    2  A    between atoms: C_8  and  C_23
REMARK    3  A    between atoms: C_23  and  O_24
REMARK                            x       y       z     vdW  Elec       q    Type
REMARK                         _______ _______ _______ _____ _____    ______ ____
ROOT
ATOM      1  O   UNL     1     158.328 124.104 116.977  0.00  0.00    +0.000 OA
ATOM      2  C   UNL     1     153.829 127.256 113.970  0.00  0.00    +0.000 C 
ATOM      3  C   UNL     1     155.311 127.717 114.321  0.00  0.00    +0.000 C 
ATOM      4  C   UNL     1     153.531 128.898 112.253  0.00  0.00    +0.000 C 
ATOM      5  C   UNL     1     153.080 128.486 113.593  0.00  0.00    +0.000 C 
ATOM      6  C   UNL     1     153.836 126.648 112.622  0.00  0.00    +0.000 C 
ATOM      7  C   UNL     1     155.958 127.411 115.676  0.00  0.00    +0.000 C 
ATOM      8  C   UNL     1     153.531 127.520 111.469  0.00  0.00    +0.000 C 
ATOM      9  C   UNL     1     153.328 126.423 115.032  0.00  0.00    +0.000 C 
ATOM     10  C   UNL     1     155.751 128.809 113.467  0.00  0.00    +0.000 C 
ATOM     11  C   UNL     1     154.851 129.487 112.426  0.00  0.00    +0.000 C 
ATOM     12  C   UNL     1     155.359 126.125 116.470  0.00  0.00    +0.000 C 
ATOM     13  C   UNL     1     153.997 125.833 116.233  0.00  0.00    +0.000 C 
ATOM     14  C   UNL     1     155.767 128.640 116.623  0.00  0.00    +0.000 C 
ATOM     15  C   UNL     1     157.401 127.107 115.470  0.00  0.00    +0.000 C 
ATOM     16  C   UNL     1     156.289 125.097 116.877  0.00  0.00    +0.000 A 
ATOM     17  C   UNL     1     158.150 126.231 115.798  0.00  0.00    +0.000 C 
ATOM     18  C   UNL     1     157.626 125.163 116.548  0.00  0.00    +0.000 A 
ATOM     19  C   UNL     1     156.146 123.880 117.574  0.00  0.00    +0.000 A 
ATOM     20  C   UNL     1     157.412 123.312 117.623  0.00  0.00    +0.000 A 
ENDROOT
BRANCH   8  21
ATOM     21  O   UNL     1     152.228 127.229 110.993  0.00  0.00    +0.000 OA
ATOM     22  H   UNL     1     152.319 127.095 110.035  0.00  0.00    +0.000 HD
ENDBRANCH   8  21
BRANCH   8  23
ATOM     23  C   UNL     1     154.489 127.458 110.358  0.00  0.00    +0.000 C 
BRANCH  23  24
ATOM     24  O   UNL     1     155.360 127.421 109.349  0.00  0.00    +0.000 OA
ATOM     25  H   UNL     1     156.263 127.258 109.676  0.00  0.00    +0.000 HD
ENDBRANCH  23  24
ENDBRANCH   8  23
TORSDOF 3
ENDMDL
MODEL 5
REMARK VINA RESULT:      -5.9     13.516     16.399
REMARK  Name = 114778_Kahweol.pdbqt.pdb
REMARK  3 active torsions:
REMARK  status: ('A' for Active; 'I' for Inactive)
REMARK    1  A    between atoms: C_8  and  O_21
REMARK    2  A    between atoms: C_8  and  C_23
REMARK    3  A    between atoms: C_23  and  O_24
REMARK                            x       y       z     vdW  Elec       q    Type
REMARK                         _______ _______ _______ _____ _____    ______ ____
ROOT
ATOM      1  O   UNL     1     136.840 136.693 141.236  0.00  0.00    +0.000 OA
ATOM      2  C   UNL     1     139.314 135.440 135.621  0.00  0.00    +0.000 C 
ATOM      3  C   UNL     1     138.674 134.438 136.679  0.00  0.00    +0.000 C 
ATOM      4  C   UNL     1     139.089 133.925 133.781  0.00  0.00    +0.000 C 
ATOM      5  C   UNL     1     140.068 134.603 134.648  0.00  0.00    +0.000 C 
ATOM      6  C   UNL     1     138.254 135.868 134.683  0.00  0.00    +0.000 C 
ATOM      7  C   UNL     1     138.938 134.567 138.183  0.00  0.00    +0.000 C 
ATOM      8  C   UNL     1     138.089 135.104 133.430  0.00  0.00    +0.000 C 
ATOM      9  C   UNL     1     139.998 136.496 136.322  0.00  0.00    +0.000 C 
ATOM     10  C   UNL     1     138.257 133.192 136.056  0.00  0.00    +0.000 C 
ATOM     11  C   UNL     1     138.501 132.859 134.579  0.00  0.00    +0.000 C 
ATOM     12  C   UNL     1     139.356 136.049 138.703  0.00  0.00    +0.000 C 
ATOM     13  C   UNL     1     140.046 136.858 137.772  0.00  0.00    +0.000 C 
ATOM     14  C   UNL     1     140.115 133.616 138.578  0.00  0.00    +0.000 C 
ATOM     15  C   UNL     1     137.696 134.225 138.928  0.00  0.00    +0.000 C 
ATOM     16  C   UNL     1     138.570 136.631 139.767  0.00  0.00    +0.000 A 
ATOM     17  C   UNL     1     137.045 134.737 139.795  0.00  0.00    +0.000 C 
ATOM     18  C   UNL     1     137.465 135.988 140.283  0.00  0.00    +0.000 A 
ATOM     19  C   UNL     1     138.637 137.853 140.466  0.00  0.00    +0.000 A 
ATOM     20  C   UNL     1     137.573 137.847 141.358  0.00  0.00    +0.000 A 
ENDROOT
BRANCH   8  21
ATOM     21  O   UNL     1     138.592 135.866 132.346  0.00  0.00    +0.000 OA
ATOM     22  H   UNL     1     138.395 135.351 131.546  0.00  0.00    +0.000 HD
ENDBRANCH   8  21
BRANCH   8  23
ATOM     23  C   UNL     1     136.720 134.664 133.132  0.00  0.00    +0.000 C 
BRANCH  23  24
ATOM     24  O   UNL     1     135.483 134.255 132.848  0.00  0.00    +0.000 OA
ATOM     25  H   UNL     1     135.006 134.926 132.329  0.00  0.00    +0.000 HD
ENDBRANCH  23  24
ENDBRANCH   8  23
TORSDOF 3
ENDMDL
MODEL 6
REMARK VINA RESULT:      -5.9     27.995     30.527
REMARK  Name = 114778_Kahweol.pdbqt.pdb
REMARK  3 active torsions:
REMARK  status: ('A' for Active; 'I' for Inactive)
REMARK    1  A    between atoms: C_8  and  O_21
REMARK    2  A    between atoms: C_8  and  C_23
REMARK    3  A    between atoms: C_23  and  O_24
REMARK                            x       y       z     vdW  Elec       q    Type
REMARK                         _______ _______ _______ _____ _____    ______ ____
ROOT
ATOM      1  O   UNL     1     157.519 126.398 108.748  0.00  0.00    +0.000 OA
ATOM      2  C   UNL     1     154.345 128.431 113.748  0.00  0.00    +0.000 C 
ATOM      3  C   UNL     1     154.293 127.006 113.041  0.00  0.00    +0.000 C 
ATOM      4  C   UNL     1     153.402 127.645 115.803  0.00  0.00    +0.000 C 
ATOM      5  C   UNL     1     153.153 128.507 114.636  0.00  0.00    +0.000 C 
ATOM      6  C   UNL     1     155.352 128.379 114.830  0.00  0.00    +0.000 C 
ATOM      7  C   UNL     1     154.299 126.856 111.516  0.00  0.00    +0.000 C 
ATOM      8  C   UNL     1     154.888 128.039 116.191  0.00  0.00    +0.000 C 
ATOM      9  C   UNL     1     154.547 129.448 112.750  0.00  0.00    +0.000 C 
ATOM     10  C   UNL     1     153.771 125.982 113.932  0.00  0.00    +0.000 C 
ATOM     11  C   UNL     1     153.247 126.273 115.344  0.00  0.00    +0.000 C 
ATOM     12  C   UNL     1     154.961 128.087 110.687  0.00  0.00    +0.000 C 
ATOM     13  C   UNL     1     154.863 129.361 111.291  0.00  0.00    +0.000 C 
ATOM     14  C   UNL     1     152.825 126.728 111.010  0.00  0.00    +0.000 C 
ATOM     15  C   UNL     1     155.102 125.657 111.147  0.00  0.00    +0.000 C 
ATOM     16  C   UNL     1     156.024 127.774 109.759  0.00  0.00    +0.000 A 
ATOM     17  C   UNL     1     156.000 125.425 110.388  0.00  0.00    +0.000 C 
ATOM     18  C   UNL     1     156.511 126.491 109.626  0.00  0.00    +0.000 A 
ATOM     19  C   UNL     1     156.806 128.552 108.882  0.00  0.00    +0.000 A 
ATOM     20  C   UNL     1     157.697 127.675 108.277  0.00  0.00    +0.000 A 
ENDROOT
BRANCH   8  21
ATOM     21  O   UNL     1     154.891 129.207 116.992  0.00  0.00    +0.000 OA
ATOM     22  H   UNL     1     155.052 129.947 116.383  0.00  0.00    +0.000 HD
ENDBRANCH   8  21
BRANCH   8  23
ATOM     23  C   UNL     1     155.637 126.973 116.867  0.00  0.00    +0.000 C 
BRANCH  23  24
ATOM     24  O   UNL     1     156.319 126.015 117.496  0.00  0.00    +0.000 OA
ATOM     25  H   UNL     1     156.702 126.349 118.326  0.00  0.00    +0.000 HD
ENDBRANCH  23  24
ENDBRANCH   8  23
TORSDOF 3
ENDMDL
MODEL 7
REMARK VINA RESULT:      -5.8     13.786     16.492
REMARK  Name = 114778_Kahweol.pdbqt.pdb
REMARK  3 active torsions:
REMARK  status: ('A' for Active; 'I' for Inactive)
REMARK    1  A    between atoms: C_8  and  O_21
REMARK    2  A    between atoms: C_8  and  C_23
REMARK    3  A    between atoms: C_23  and  O_24
REMARK                            x       y       z     vdW  Elec       q    Type
REMARK                         _______ _______ _______ _____ _____    ______ ____
ROOT
ATOM      1  O   UNL     1     138.078 135.069 133.358  0.00  0.00    +0.000 OA
ATOM      2  C   UNL     1     137.820 134.855 139.612  0.00  0.00    +0.000 C 
ATOM      3  C   UNL     1     138.387 136.007 138.672  0.00  0.00    +0.000 C 
ATOM      4  C   UNL     1     137.573 136.282 141.517  0.00  0.00    +0.000 C 
ATOM      5  C   UNL     1     138.327 135.137 140.982  0.00  0.00    +0.000 C 
ATOM      6  C   UNL     1     136.399 135.145 139.900  0.00  0.00    +0.000 C 
ATOM      7  C   UNL     1     139.223 135.700 137.425  0.00  0.00    +0.000 C 
ATOM      8  C   UNL     1     136.083 135.906 141.126  0.00  0.00    +0.000 C 
ATOM      9  C   UNL     1     138.090 133.575 139.009  0.00  0.00    +0.000 C 
ATOM     10  C   UNL     1     138.443 137.285 139.363  0.00  0.00    +0.000 C 
ATOM     11  C   UNL     1     138.087 137.466 140.844  0.00  0.00    +0.000 C 
ATOM     12  C   UNL     1     138.997 134.231 136.766  0.00  0.00    +0.000 C 
ATOM     13  C   UNL     1     138.625 133.204 137.662  0.00  0.00    +0.000 C 
ATOM     14  C   UNL     1     140.740 135.787 137.792  0.00  0.00    +0.000 C 
ATOM     15  C   UNL     1     138.872 136.670 136.351  0.00  0.00    +0.000 C 
ATOM     16  C   UNL     1     138.642 134.173 135.367  0.00  0.00    +0.000 A 
ATOM     17  C   UNL     1     138.556 136.597 135.197  0.00  0.00    +0.000 C 
ATOM     18  C   UNL     1     138.436 135.317 134.626  0.00  0.00    +0.000 A 
ATOM     19  C   UNL     1     138.387 133.112 134.474  0.00  0.00    +0.000 A 
ATOM     20  C   UNL     1     138.058 133.700 133.259  0.00  0.00    +0.000 A 
ENDROOT
BRANCH   8  21
ATOM     21  O   UNL     1     135.531 135.029 142.092  0.00  0.00    +0.000 OA
ATOM     22  H   UNL     1     135.687 135.451 142.954  0.00  0.00    +0.000 HD
ENDBRANCH   8  21
BRANCH   8  23
ATOM     23  C   UNL     1     135.197 137.062 140.943  0.00  0.00    +0.000 C 
BRANCH  23  24
ATOM     24  O   UNL     1     134.404 138.122 140.787  0.00  0.00    +0.000 OA
ATOM     25  H   UNL     1     133.707 138.138 141.467  0.00  0.00    +0.000 HD
ENDBRANCH  23  24
ENDBRANCH   8  23
TORSDOF 3
ENDMDL
MODEL 8
REMARK VINA RESULT:      -5.5     16.041     19.933
REMARK  Name = 114778_Kahweol.pdbqt.pdb
REMARK  3 active torsions:
REMARK  status: ('A' for Active; 'I' for Inactive)
REMARK    1  A    between atoms: C_8  and  O_21
REMARK    2  A    between atoms: C_8  and  C_23
REMARK    3  A    between atoms: C_23  and  O_24
REMARK                            x       y       z     vdW  Elec       q    Type
REMARK                         _______ _______ _______ _____ _____    ______ ____
ROOT
ATOM      1  O   UNL     1     141.952 140.595 143.574  0.00  0.00    +0.000 OA
ATOM      2  C   UNL     1     137.799 136.953 140.624  0.00  0.00    +0.000 C 
ATOM      3  C   UNL     1     139.079 137.691 140.034  0.00  0.00    +0.000 C 
ATOM      4  C   UNL     1     137.640 135.395 138.812  0.00  0.00    +0.000 C 
ATOM      5  C   UNL     1     136.973 136.539 139.457  0.00  0.00    +0.000 C 
ATOM      6  C   UNL     1     138.195 135.589 141.035  0.00  0.00    +0.000 C 
ATOM      7  C   UNL     1     139.451 139.122 140.440  0.00  0.00    +0.000 C 
ATOM      8  C   UNL     1     138.022 134.494 140.059  0.00  0.00    +0.000 C 
ATOM      9  C   UNL     1     137.209 137.773 141.650  0.00  0.00    +0.000 C 
ATOM     10  C   UNL     1     139.525 137.085 138.790  0.00  0.00    +0.000 C 
ATOM     11  C   UNL     1     138.784 135.937 138.093  0.00  0.00    +0.000 C 
ATOM     12  C   UNL     1     138.894 139.613 141.886  0.00  0.00    +0.000 C 
ATOM     13  C   UNL     1     137.679 139.029 142.311  0.00  0.00    +0.000 C 
ATOM     14  C   UNL     1     138.871 140.119 139.385  0.00  0.00    +0.000 C 
ATOM     15  C   UNL     1     140.933 139.234 140.531  0.00  0.00    +0.000 C 
ATOM     16  C   UNL     1     139.858 140.118 142.837  0.00  0.00    +0.000 A 
ATOM     17  C   UNL     1     141.716 139.637 141.344  0.00  0.00    +0.000 C 
ATOM     18  C   UNL     1     141.209 140.125 142.562  0.00  0.00    +0.000 A 
ATOM     19  C   UNL     1     139.752 140.631 144.146  0.00  0.00    +0.000 A 
ATOM     20  C   UNL     1     141.048 140.920 144.554  0.00  0.00    +0.000 A 
ENDROOT
BRANCH   8  21
ATOM     21  O   UNL     1     136.917 133.695 140.442  0.00  0.00    +0.000 OA
ATOM     22  H   UNL     1     136.212 134.317 140.688  0.00  0.00    +0.000 HD
ENDBRANCH   8  21
BRANCH   8  23
ATOM     23  C   UNL     1     139.200 133.642 139.849  0.00  0.00    +0.000 C 
BRANCH  23  24
ATOM     24  O   UNL     1     140.271 132.867 139.676  0.00  0.00    +0.000 OA
ATOM     25  H   UNL     1     140.257 132.446 138.798  0.00  0.00    +0.000 HD
ENDBRANCH  23  24
ENDBRANCH   8  23
TORSDOF 3
ENDMDL
MODEL 9
REMARK VINA RESULT:      -5.3     15.058     19.109
REMARK  Name = 114778_Kahweol.pdbqt.pdb
REMARK  3 active torsions:
REMARK  status: ('A' for Active; 'I' for Inactive)
REMARK    1  A    between atoms: C_8  and  O_21
REMARK    2  A    between atoms: C_8  and  C_23
REMARK    3  A    between atoms: C_23  and  O_24
REMARK                            x       y       z     vdW  Elec       q    Type
REMARK                         _______ _______ _______ _____ _____    ______ ____
ROOT
ATOM      1  O   UNL     1     142.498 141.213 138.905  0.00  0.00    +0.000 OA
ATOM      2  C   UNL     1     138.318 136.550 138.886  0.00  0.00    +0.000 C 
ATOM      3  C   UNL     1     139.365 136.960 137.760  0.00  0.00    +0.000 C 
ATOM      4  C   UNL     1     138.001 134.334 138.037  0.00  0.00    +0.000 C 
ATOM      5  C   UNL     1     137.339 135.633 138.241  0.00  0.00    +0.000 C 
ATOM      6  C   UNL     1     138.945 135.532 139.758  0.00  0.00    +0.000 C 
ATOM      7  C   UNL     1     139.635 138.424 137.397  0.00  0.00    +0.000 C 
ATOM      8  C   UNL     1     138.719 134.109 139.433  0.00  0.00    +0.000 C 
ATOM      9  C   UNL     1     137.843 137.737 139.547  0.00  0.00    +0.000 C 
ATOM     10  C   UNL     1     139.633 135.860 136.848  0.00  0.00    +0.000 C 
ATOM     11  C   UNL     1     138.914 134.507 136.916  0.00  0.00    +0.000 C 
ATOM     12  C   UNL     1     139.312 139.512 138.561  0.00  0.00    +0.000 C 
ATOM     13  C   UNL     1     138.279 139.165 139.460  0.00  0.00    +0.000 C 
ATOM     14  C   UNL     1     138.750 138.818 136.170  0.00  0.00    +0.000 C 
ATOM     15  C   UNL     1     141.083 138.593 137.093  0.00  0.00    +0.000 C 
ATOM     16  C   UNL     1     140.373 140.414 138.946  0.00  0.00    +0.000 A 
ATOM     17  C   UNL     1     141.955 139.337 137.445  0.00  0.00    +0.000 C 
ATOM     18  C   UNL     1     141.636 140.319 138.400  0.00  0.00    +0.000 A 
ATOM     19  C   UNL     1     140.460 141.467 139.880  0.00  0.00    +0.000 A 
ATOM     20  C   UNL     1     141.766 141.934 139.816  0.00  0.00    +0.000 A 
ENDROOT
BRANCH   8  21
ATOM     21  O   UNL     1     137.810 133.554 140.367  0.00  0.00    +0.000 OA
ATOM     22  H   UNL     1     137.341 134.308 140.762  0.00  0.00    +0.000 HD
ENDBRANCH   8  21
BRANCH   8  23
ATOM     23  C   UNL     1     139.927 133.277 139.363  0.00  0.00    +0.000 C 
BRANCH  23  24
ATOM     24  O   UNL     1     141.025 132.522 139.317  0.00  0.00    +0.000 OA
ATOM     25  H   UNL     1     141.435 132.558 138.435  0.00  0.00    +0.000 HD
ENDBRANCH  23  24
ENDBRANCH   8  23
TORSDOF 3
ENDMDL
