MODEL 1
REMARK VINA RESULT:      -4.5      0.000      0.000
REMARK  Name = 1174_Uracil.pdbqt.pdb
REMARK  0 active torsions:
REMARK  status: ('A' for Active; 'I' for Inactive)
REMARK                            x       y       z     vdW  Elec       q    Type
REMARK                         _______ _______ _______ _____ _____    ______ ____
ROOT
ATOM      1  O   UNL     1     139.943 125.318 113.390  0.00  0.00    +0.000 OA
ATOM      2  O   UNL     1     137.009 127.881 110.881  0.00  0.00    +0.000 OA
ATOM      3  N   UNL     1     138.426 126.569 112.175  0.00  0.00    +0.000 N 
ATOM      4  N   UNL     1     140.723 126.728 111.735  0.00  0.00    +0.000 N 
ATOM      5  C   UNL     1     139.718 126.136 112.508  0.00  0.00    +0.000 A 
ATOM      6  C   UNL     1     138.130 127.498 111.179  0.00  0.00    +0.000 A 
ATOM      7  C   UNL     1     140.420 127.622 110.778  0.00  0.00    +0.000 A 
ATOM      8  C   UNL     1     139.313 127.976 110.513  0.00  0.00    +0.000 A 
ATOM      9  H   UNL     1     137.657 126.180 112.696  0.00  0.00    +0.000 HD
ATOM     10  H   UNL     1     141.684 126.467 111.914  0.00  0.00    +0.000 HD
ENDROOT
TORSDOF 0
ENDMDL
MODEL 2
REMARK VINA RESULT:      -4.2      2.100      2.656
REMARK  Name = 1174_Uracil.pdbqt.pdb
REMARK  0 active torsions:
REMARK  status: ('A' for Active; 'I' for Inactive)
REMARK                            x       y       z     vdW  Elec       q    Type
REMARK                         _______ _______ _______ _____ _____    ______ ____
ROOT
ATOM      1  O   UNL     1     137.044 127.831 113.344  0.00  0.00    +0.000 OA
ATOM      2  O   UNL     1     139.676 126.488 109.774  0.00  0.00    +0.000 OA
ATOM      3  N   UNL     1     138.316 127.198 111.520  0.00  0.00    +0.000 N 
ATOM      4  N   UNL     1     138.881 126.470 113.675  0.00  0.00    +0.000 N 
ATOM      5  C   UNL     1     138.000 127.218 112.887  0.00  0.00    +0.000 A 
ATOM      6  C   UNL     1     139.393 126.513 110.962  0.00  0.00    +0.000 A 
ATOM      7  C   UNL     1     139.915 125.815 113.121  0.00  0.00    +0.000 A 
ATOM      8  C   UNL     1     140.165 125.812 111.955  0.00  0.00    +0.000 A 
ATOM      9  H   UNL     1     137.719 127.718 110.898  0.00  0.00    +0.000 HD
ATOM     10  H   UNL     1     138.721 126.433 114.674  0.00  0.00    +0.000 HD
ENDROOT
TORSDOF 0
ENDMDL
MODEL 3
REMARK VINA RESULT:      -3.9     10.101     10.880
REMARK  Name = 1174_Uracil.pdbqt.pdb
REMARK  0 active torsions:
REMARK  status: ('A' for Active; 'I' for Inactive)
REMARK                            x       y       z     vdW  Elec       q    Type
REMARK                         _______ _______ _______ _____ _____    ______ ____
ROOT
ATOM      1  O   UNL     1     143.101 126.107 104.013  0.00  0.00    +0.000 OA
ATOM      2  O   UNL     1     146.908 124.991 101.617  0.00  0.00    +0.000 OA
ATOM      3  N   UNL     1     144.967 125.493 102.796  0.00  0.00    +0.000 N 
ATOM      4  N   UNL     1     144.962 127.478 104.041  0.00  0.00    +0.000 N 
ATOM      5  C   UNL     1     144.247 126.341 103.649  0.00  0.00    +0.000 A 
ATOM      6  C   UNL     1     146.270 125.723 102.359  0.00  0.00    +0.000 A 
ATOM      7  C   UNL     1     146.217 127.686 103.611  0.00  0.00    +0.000 A 
ATOM      8  C   UNL     1     146.811 126.950 102.885  0.00  0.00    +0.000 A 
ATOM      9  H   UNL     1     144.508 124.655 102.476  0.00  0.00    +0.000 HD
ATOM     10  H   UNL     1     144.509 128.141 104.658  0.00  0.00    +0.000 HD
ENDROOT
TORSDOF 0
ENDMDL
MODEL 4
REMARK VINA RESULT:      -3.9     21.011     21.814
REMARK  Name = 1174_Uracil.pdbqt.pdb
REMARK  0 active torsions:
REMARK  status: ('A' for Active; 'I' for Inactive)
REMARK                            x       y       z     vdW  Elec       q    Type
REMARK                         _______ _______ _______ _____ _____    ______ ____
ROOT
ATOM      1  O   UNL     1     136.720 122.374 131.831  0.00  0.00    +0.000 OA
ATOM      2  O   UNL     1     140.862 124.427 132.157  0.00  0.00    +0.000 OA
ATOM      3  N   UNL     1     138.782 123.415 131.926  0.00  0.00    +0.000 N 
ATOM      4  N   UNL     1     137.863 122.421 133.839  0.00  0.00    +0.000 N 
ATOM      5  C   UNL     1     137.704 122.708 132.479  0.00  0.00    +0.000 A 
ATOM      6  C   UNL     1     139.918 123.812 132.629  0.00  0.00    +0.000 A 
ATOM      7  C   UNL     1     138.964 122.811 134.502  0.00  0.00    +0.000 A 
ATOM      8  C   UNL     1     139.869 123.413 134.011  0.00  0.00    +0.000 A 
ATOM      9  H   UNL     1     138.730 123.653 130.948  0.00  0.00    +0.000 HD
ATOM     10  H   UNL     1     137.127 121.912 134.312  0.00  0.00    +0.000 HD
ENDROOT
TORSDOF 0
ENDMDL
MODEL 5
REMARK VINA RESULT:      -3.8     23.316     24.190
REMARK  Name = 1174_Uracil.pdbqt.pdb
REMARK  0 active torsions:
REMARK  status: ('A' for Active; 'I' for Inactive)
REMARK                            x       y       z     vdW  Elec       q    Type
REMARK                         _______ _______ _______ _____ _____    ______ ____
ROOT
ATOM      1  O   UNL     1     137.563 121.579 137.592  0.00  0.00    +0.000 OA
ATOM      2  O   UNL     1     135.981 124.182 134.100  0.00  0.00    +0.000 OA
ATOM      3  N   UNL     1     136.712 122.881 135.883  0.00  0.00    +0.000 N 
ATOM      4  N   UNL     1     138.929 122.125 135.811  0.00  0.00    +0.000 N 
ATOM      5  C   UNL     1     137.723 122.146 136.519  0.00  0.00    +0.000 A 
ATOM      6  C   UNL     1     136.855 123.541 134.664  0.00  0.00    +0.000 A 
ATOM      7  C   UNL     1     139.050 122.766 134.636  0.00  0.00    +0.000 A 
ATOM      8  C   UNL     1     138.176 123.385 134.113  0.00  0.00    +0.000 A 
ATOM      9  H   UNL     1     135.817 122.936 136.342  0.00  0.00    +0.000 HD
ATOM     10  H   UNL     1     139.709 121.615 136.205  0.00  0.00    +0.000 HD
ENDROOT
TORSDOF 0
ENDMDL
MODEL 6
REMARK VINA RESULT:      -3.8     19.808     20.570
REMARK  Name = 1174_Uracil.pdbqt.pdb
REMARK  0 active torsions:
REMARK  status: ('A' for Active; 'I' for Inactive)
REMARK                            x       y       z     vdW  Elec       q    Type
REMARK                         _______ _______ _______ _____ _____    ______ ____
ROOT
ATOM      1  O   UNL     1     137.623 124.068 132.366  0.00  0.00    +0.000 OA
ATOM      2  O   UNL     1     141.744 125.334 130.667  0.00  0.00    +0.000 OA
ATOM      3  N   UNL     1     139.681 124.639 131.484  0.00  0.00    +0.000 N 
ATOM      4  N   UNL     1     138.556 126.107 132.922  0.00  0.00    +0.000 N 
ATOM      5  C   UNL     1     138.541 124.871 132.267  0.00  0.00    +0.000 A 
ATOM      6  C   UNL     1     140.746 125.526 131.345  0.00  0.00    +0.000 A 
ATOM      7  C   UNL     1     139.591 126.951 132.779  0.00  0.00    +0.000 A 
ATOM      8  C   UNL     1     140.551 126.733 132.107  0.00  0.00    +0.000 A 
ATOM      9  H   UNL     1     139.733 123.765 130.985  0.00  0.00    +0.000 HD
ATOM     10  H   UNL     1     137.767 126.350 133.508  0.00  0.00    +0.000 HD
ENDROOT
TORSDOF 0
ENDMDL
MODEL 7
REMARK VINA RESULT:      -3.7     10.025     10.525
REMARK  Name = 1174_Uracil.pdbqt.pdb
REMARK  0 active torsions:
REMARK  status: ('A' for Active; 'I' for Inactive)
REMARK                            x       y       z     vdW  Elec       q    Type
REMARK                         _______ _______ _______ _____ _____    ______ ____
ROOT
ATOM      1  O   UNL     1     146.446 127.559 103.981  0.00  0.00    +0.000 OA
ATOM      2  O   UNL     1     144.243 124.040 101.920  0.00  0.00    +0.000 OA
ATOM      3  N   UNL     1     145.407 125.767 102.954  0.00  0.00    +0.000 N 
ATOM      4  N   UNL     1     144.199 127.711 103.461  0.00  0.00    +0.000 N 
ATOM      5  C   UNL     1     145.435 127.056 103.506  0.00  0.00    +0.000 A 
ATOM      6  C   UNL     1     144.279 125.161 102.404  0.00  0.00    +0.000 A 
ATOM      7  C   UNL     1     143.121 127.112 102.928  0.00  0.00    +0.000 A 
ATOM      8  C   UNL     1     143.120 126.014 102.464  0.00  0.00    +0.000 A 
ATOM      9  H   UNL     1     146.266 125.242 102.955  0.00  0.00    +0.000 HD
ATOM     10  H   UNL     1     144.137 128.647 103.841  0.00  0.00    +0.000 HD
ENDROOT
TORSDOF 0
ENDMDL
MODEL 8
REMARK VINA RESULT:      -3.7      9.859     10.437
REMARK  Name = 1174_Uracil.pdbqt.pdb
REMARK  0 active torsions:
REMARK  status: ('A' for Active; 'I' for Inactive)
REMARK                            x       y       z     vdW  Elec       q    Type
REMARK                         _______ _______ _______ _____ _____    ______ ____
ROOT
ATOM      1  O   UNL     1     144.257 123.730 101.494  0.00  0.00    +0.000 OA
ATOM      2  O   UNL     1     142.254 127.558 103.168  0.00  0.00    +0.000 OA
ATOM      3  N   UNL     1     143.196 125.615 102.308  0.00  0.00    +0.000 N 
ATOM      4  N   UNL     1     145.516 125.369 102.527  0.00  0.00    +0.000 N 
ATOM      5  C   UNL     1     144.320 124.813 102.062  0.00  0.00    +0.000 A 
ATOM      6  C   UNL     1     143.226 126.851 102.950  0.00  0.00    +0.000 A 
ATOM      7  C   UNL     1     145.528 126.562 103.144  0.00  0.00    +0.000 A 
ATOM      8  C   UNL     1     144.559 127.228 103.343  0.00  0.00    +0.000 A 
ATOM      9  H   UNL     1     142.302 125.271 101.997  0.00  0.00    +0.000 HD
ATOM     10  H   UNL     1     146.374 124.850 102.388  0.00  0.00    +0.000 HD
ENDROOT
TORSDOF 0
ENDMDL
MODEL 9
REMARK VINA RESULT:      -3.7     12.361     13.330
REMARK  Name = 1174_Uracil.pdbqt.pdb
REMARK  0 active torsions:
REMARK  status: ('A' for Active; 'I' for Inactive)
REMARK                            x       y       z     vdW  Elec       q    Type
REMARK                         _______ _______ _______ _____ _____    ______ ____
ROOT
ATOM      1  O   UNL     1     142.596 125.963 122.809  0.00  0.00    +0.000 OA
ATOM      2  O   UNL     1     142.591 130.481 123.840  0.00  0.00    +0.000 OA
ATOM      3  N   UNL     1     142.576 128.231 123.257  0.00  0.00    +0.000 N 
ATOM      4  N   UNL     1     143.074 126.689 124.950  0.00  0.00    +0.000 N 
ATOM      5  C   UNL     1     142.737 126.882 123.606  0.00  0.00    +0.000 A 
ATOM      6  C   UNL     1     142.728 129.303 124.134  0.00  0.00    +0.000 A 
ATOM      7  C   UNL     1     143.217 127.733 125.782  0.00  0.00    +0.000 A 
ATOM      8  C   UNL     1     143.075 128.873 125.463  0.00  0.00    +0.000 A 
ATOM      9  H   UNL     1     142.333 128.438 122.302  0.00  0.00    +0.000 HD
ATOM     10  H   UNL     1     143.208 125.741 125.280  0.00  0.00    +0.000 HD
ENDROOT
TORSDOF 0
ENDMDL
