MODEL 1
REMARK VINA RESULT:      -5.9      0.000      0.000
REMARK  Name = 122180587_TripolinolateA.pdbqt.pdb
REMARK  9 active torsions:
REMARK  status: ('A' for Active; 'I' for Inactive)
REMARK    1  A    between atoms: C_1  and  O_16
REMARK    2  A    between atoms: C_2  and  O_7
REMARK    3  A    between atoms: C_3  and  C_9
REMARK    4  A    between atoms: C_10  and  C_11
REMARK    5  A    between atoms: C_11  and  O_12
REMARK    6  A    between atoms: O_12  and  C_14
REMARK    7  A    between atoms: O_16  and  C_18
REMARK    8  A    between atoms: C_18  and  C_19
REMARK    9  A    between atoms: C_19  and  C_21
REMARK                            x       y       z     vdW  Elec       q    Type
REMARK                         _______ _______ _______ _____ _____    ______ ____
ROOT
ATOM      1  C   UNL     1     139.098 124.135 134.011  0.00  0.00    +0.000 A 
ATOM      2  C   UNL     1     140.317 123.621 133.555  0.00  0.00    +0.000 A 
ATOM      3  C   UNL     1     140.183 125.139 131.667  0.00  0.00    +0.000 A 
ATOM      4  C   UNL     1     138.407 125.115 133.297  0.00  0.00    +0.000 A 
ATOM      5  C   UNL     1     140.854 124.141 132.374  0.00  0.00    +0.000 A 
ATOM      6  C   UNL     1     138.960 125.623 132.125  0.00  0.00    +0.000 A 
ENDROOT
BRANCH   2   7
ATOM      7  O   UNL     1     140.895 122.621 134.294  0.00  0.00    +0.000 OA
ATOM      8  C   UNL     1     142.279 122.473 134.139  0.00  0.00    +0.000 C 
ENDBRANCH   2   7
BRANCH   3   9
ATOM      9  C   UNL     1     140.750 125.660 130.466  0.00  0.00    +0.000 C 
ATOM     10  C   UNL     1     141.227 126.098 129.455  0.00  0.00    +0.000 C 
BRANCH  10  11
ATOM     11  C   UNL     1     141.840 126.654 128.165  0.00  0.00    +0.000 C 
BRANCH  11  12
ATOM     12  O   UNL     1     142.372 127.138 127.046  0.00  0.00    +0.000 OA
BRANCH  12  14
ATOM     13  O   UNL     1     142.612 125.001 126.130  0.00  0.00    +0.000 OA
ATOM     14  C   UNL     1     142.734 126.212 126.137  0.00  0.00    +0.000 C 
ATOM     15  C   UNL     1     143.402 126.766 124.924  0.00  0.00    +0.000 C 
ENDBRANCH  12  14
ENDBRANCH  11  12
ENDBRANCH  10  11
ENDBRANCH   3   9
BRANCH   1  16
ATOM     16  O   UNL     1     138.504 123.601 135.163  0.00  0.00    +0.000 OA
BRANCH  16  18
ATOM     17  O   UNL     1     137.482 121.822 134.069  0.00  0.00    +0.000 OA
ATOM     18  C   UNL     1     137.457 122.730 134.891  0.00  0.00    +0.000 C 
BRANCH  18  19
ATOM     19  C   UNL     1     136.275 123.054 135.728  0.00  0.00    +0.000 C 
ATOM     20  C   UNL     1     135.085 123.859 135.222  0.00  0.00    +0.000 C 
BRANCH  19  21
ATOM     21  C   UNL     1     136.234 122.593 137.070  0.00  0.00    +0.000 C 
ATOM     22  C   UNL     1     136.193 122.099 138.528  0.00  0.00    +0.000 C 
ENDBRANCH  19  21
ENDBRANCH  18  19
ENDBRANCH  16  18
ENDBRANCH   1  16
TORSDOF 9
ENDMDL
MODEL 2
REMARK VINA RESULT:      -5.9      3.433      6.473
REMARK  Name = 122180587_TripolinolateA.pdbqt.pdb
REMARK  9 active torsions:
REMARK  status: ('A' for Active; 'I' for Inactive)
REMARK    1  A    between atoms: C_1  and  O_16
REMARK    2  A    between atoms: C_2  and  O_7
REMARK    3  A    between atoms: C_3  and  C_9
REMARK    4  A    between atoms: C_10  and  C_11
REMARK    5  A    between atoms: C_11  and  O_12
REMARK    6  A    between atoms: O_12  and  C_14
REMARK    7  A    between atoms: O_16  and  C_18
REMARK    8  A    between atoms: C_18  and  C_19
REMARK    9  A    between atoms: C_19  and  C_21
REMARK                            x       y       z     vdW  Elec       q    Type
REMARK                         _______ _______ _______ _____ _____    ______ ____
ROOT
ATOM      1  C   UNL     1     138.155 123.712 133.828  0.00  0.00    +0.000 A 
ATOM      2  C   UNL     1     139.171 123.992 132.909  0.00  0.00    +0.000 A 
ATOM      3  C   UNL     1     140.721 122.803 134.347  0.00  0.00    +0.000 A 
ATOM      4  C   UNL     1     138.412 123.014 135.010  0.00  0.00    +0.000 A 
ATOM      5  C   UNL     1     140.459 123.523 133.182  0.00  0.00    +0.000 A 
ATOM      6  C   UNL     1     139.700 122.551 135.262  0.00  0.00    +0.000 A 
ENDROOT
BRANCH   2   7
ATOM      7  O   UNL     1     138.834 124.732 131.804  0.00  0.00    +0.000 OA
ATOM      8  C   UNL     1     139.808 125.633 131.357  0.00  0.00    +0.000 C 
ENDBRANCH   2   7
BRANCH   3   9
ATOM      9  C   UNL     1     142.040 122.327 134.606  0.00  0.00    +0.000 C 
ATOM     10  C   UNL     1     143.151 121.926 134.824  0.00  0.00    +0.000 C 
BRANCH  10  11
ATOM     11  C   UNL     1     144.566 121.412 135.107  0.00  0.00    +0.000 C 
BRANCH  11  12
ATOM     12  O   UNL     1     145.795 120.964 135.352  0.00  0.00    +0.000 OA
BRANCH  12  14
ATOM     13  O   UNL     1     145.489 119.602 137.228  0.00  0.00    +0.000 OA
ATOM     14  C   UNL     1     145.857 119.839 136.092  0.00  0.00    +0.000 C 
ATOM     15  C   UNL     1     146.487 118.679 135.399  0.00  0.00    +0.000 C 
ENDBRANCH  12  14
ENDBRANCH  11  12
ENDBRANCH  10  11
ENDBRANCH   3   9
BRANCH   1  16
ATOM     16  O   UNL     1     136.863 124.211 133.613  0.00  0.00    +0.000 OA
BRANCH  16  18
ATOM     17  O   UNL     1     135.902 122.656 132.174  0.00  0.00    +0.000 OA
ATOM     18  C   UNL     1     135.945 123.231 133.255  0.00  0.00    +0.000 C 
BRANCH  18  19
ATOM     19  C   UNL     1     134.994 122.974 134.364  0.00  0.00    +0.000 C 
ATOM     20  C   UNL     1     134.828 123.904 135.559  0.00  0.00    +0.000 C 
BRANCH  19  21
ATOM     21  C   UNL     1     134.183 121.809 134.322  0.00  0.00    +0.000 C 
ATOM     22  C   UNL     1     133.300 120.548 134.269  0.00  0.00    +0.000 C 
ENDBRANCH  19  21
ENDBRANCH  18  19
ENDBRANCH  16  18
ENDBRANCH   1  16
TORSDOF 9
ENDMDL
MODEL 3
REMARK VINA RESULT:      -5.7      3.581      9.004
REMARK  Name = 122180587_TripolinolateA.pdbqt.pdb
REMARK  9 active torsions:
REMARK  status: ('A' for Active; 'I' for Inactive)
REMARK    1  A    between atoms: C_1  and  O_16
REMARK    2  A    between atoms: C_2  and  O_7
REMARK    3  A    between atoms: C_3  and  C_9
REMARK    4  A    between atoms: C_10  and  C_11
REMARK    5  A    between atoms: C_11  and  O_12
REMARK    6  A    between atoms: O_12  and  C_14
REMARK    7  A    between atoms: O_16  and  C_18
REMARK    8  A    between atoms: C_18  and  C_19
REMARK    9  A    between atoms: C_19  and  C_21
REMARK                            x       y       z     vdW  Elec       q    Type
REMARK                         _______ _______ _______ _____ _____    ______ ____
ROOT
ATOM      1  C   UNL     1     139.595 124.906 133.389  0.00  0.00    +0.000 A 
ATOM      2  C   UNL     1     140.179 123.892 134.154  0.00  0.00    +0.000 A 
ATOM      3  C   UNL     1     137.952 123.147 134.763  0.00  0.00    +0.000 A 
ATOM      4  C   UNL     1     138.210 125.069 133.329  0.00  0.00    +0.000 A 
ATOM      5  C   UNL     1     139.338 123.009 134.837  0.00  0.00    +0.000 A 
ATOM      6  C   UNL     1     137.388 124.177 134.012  0.00  0.00    +0.000 A 
ENDROOT
BRANCH   2   7
ATOM      7  O   UNL     1     141.550 123.845 134.197  0.00  0.00    +0.000 OA
ATOM      8  C   UNL     1     142.130 122.645 133.768  0.00  0.00    +0.000 C 
ENDBRANCH   2   7
BRANCH   3   9
ATOM      9  C   UNL     1     137.110 122.234 135.463  0.00  0.00    +0.000 C 
ATOM     10  C   UNL     1     136.401 121.464 136.052  0.00  0.00    +0.000 C 
BRANCH  10  11
ATOM     11  C   UNL     1     135.499 120.478 136.800  0.00  0.00    +0.000 C 
BRANCH  11  12
ATOM     12  O   UNL     1     134.713 119.621 137.449  0.00  0.00    +0.000 OA
BRANCH  12  14
ATOM     13  O   UNL     1     133.499 119.832 139.436  0.00  0.00    +0.000 OA
ATOM     14  C   UNL     1     133.859 120.182 138.327  0.00  0.00    +0.000 C 
ATOM     15  C   UNL     1     133.244 121.458 137.860  0.00  0.00    +0.000 C 
ENDBRANCH  12  14
ENDBRANCH  11  12
ENDBRANCH  10  11
ENDBRANCH   3   9
BRANCH   1  16
ATOM     16  O   UNL     1     140.408 125.841 132.733  0.00  0.00    +0.000 OA
BRANCH  16  18
ATOM     17  O   UNL     1     141.069 127.118 134.560  0.00  0.00    +0.000 OA
ATOM     18  C   UNL     1     140.575 127.022 133.444  0.00  0.00    +0.000 C 
BRANCH  18  19
ATOM     19  C   UNL     1     140.054 128.177 132.670  0.00  0.00    +0.000 C 
ATOM     20  C   UNL     1     139.441 128.048 131.282  0.00  0.00    +0.000 C 
BRANCH  19  21
ATOM     21  C   UNL     1     140.117 129.475 133.242  0.00  0.00    +0.000 C 
ATOM     22  C   UNL     1     140.179 130.884 133.859  0.00  0.00    +0.000 C 
ENDBRANCH  19  21
ENDBRANCH  18  19
ENDBRANCH  16  18
ENDBRANCH   1  16
TORSDOF 9
ENDMDL
MODEL 4
REMARK VINA RESULT:      -5.5      3.724      8.551
REMARK  Name = 122180587_TripolinolateA.pdbqt.pdb
REMARK  9 active torsions:
REMARK  status: ('A' for Active; 'I' for Inactive)
REMARK    1  A    between atoms: C_1  and  O_16
REMARK    2  A    between atoms: C_2  and  O_7
REMARK    3  A    between atoms: C_3  and  C_9
REMARK    4  A    between atoms: C_10  and  C_11
REMARK    5  A    between atoms: C_11  and  O_12
REMARK    6  A    between atoms: O_12  and  C_14
REMARK    7  A    between atoms: O_16  and  C_18
REMARK    8  A    between atoms: C_18  and  C_19
REMARK    9  A    between atoms: C_19  and  C_21
REMARK                            x       y       z     vdW  Elec       q    Type
REMARK                         _______ _______ _______ _____ _____    ______ ____
ROOT
ATOM      1  C   UNL     1     139.752 125.147 133.554  0.00  0.00    +0.000 A 
ATOM      2  C   UNL     1     139.928 124.245 134.608  0.00  0.00    +0.000 A 
ATOM      3  C   UNL     1     137.557 123.742 134.495  0.00  0.00    +0.000 A 
ATOM      4  C   UNL     1     138.495 125.376 132.991  0.00  0.00    +0.000 A 
ATOM      5  C   UNL     1     138.813 123.539 135.068  0.00  0.00    +0.000 A 
ATOM      6  C   UNL     1     137.397 124.661 133.460  0.00  0.00    +0.000 A 
ENDROOT
BRANCH   2   7
ATOM      7  O   UNL     1     141.190 124.128 135.134  0.00  0.00    +0.000 OA
ATOM      8  C   UNL     1     141.863 122.937 134.836  0.00  0.00    +0.000 C 
ENDBRANCH   2   7
BRANCH   3   9
ATOM      9  C   UNL     1     136.432 123.009 134.975  0.00  0.00    +0.000 C 
ATOM     10  C   UNL     1     135.485 122.390 135.380  0.00  0.00    +0.000 C 
BRANCH  10  11
ATOM     11  C   UNL     1     134.280 121.598 135.896  0.00  0.00    +0.000 C 
BRANCH  11  12
ATOM     12  O   UNL     1     133.232 120.909 136.343  0.00  0.00    +0.000 OA
BRANCH  12  14
ATOM     13  O   UNL     1     131.123 120.457 135.441  0.00  0.00    +0.000 OA
ATOM     14  C   UNL     1     132.335 120.558 135.400  0.00  0.00    +0.000 C 
ATOM     15  C   UNL     1     132.930 120.238 134.071  0.00  0.00    +0.000 C 
ENDBRANCH  12  14
ENDBRANCH  11  12
ENDBRANCH  10  11
ENDBRANCH   3   9
BRANCH   1  16
ATOM     16  O   UNL     1     140.837 125.910 133.101  0.00  0.00    +0.000 OA
BRANCH  16  18
ATOM     17  O   UNL     1     140.018 127.683 131.839  0.00  0.00    +0.000 OA
ATOM     18  C   UNL     1     140.516 127.241 132.867  0.00  0.00    +0.000 C 
BRANCH  18  19
ATOM     19  C   UNL     1     140.876 128.081 134.036  0.00  0.00    +0.000 C 
ATOM     20  C   UNL     1     141.673 127.563 135.226  0.00  0.00    +0.000 C 
BRANCH  19  21
ATOM     21  C   UNL     1     140.470 129.441 134.060  0.00  0.00    +0.000 C 
ATOM     22  C   UNL     1     140.036 130.918 134.089  0.00  0.00    +0.000 C 
ENDBRANCH  19  21
ENDBRANCH  18  19
ENDBRANCH  16  18
ENDBRANCH   1  16
TORSDOF 9
ENDMDL
MODEL 5
REMARK VINA RESULT:      -5.4      3.841      8.989
REMARK  Name = 122180587_TripolinolateA.pdbqt.pdb
REMARK  9 active torsions:
REMARK  status: ('A' for Active; 'I' for Inactive)
REMARK    1  A    between atoms: C_1  and  O_16
REMARK    2  A    between atoms: C_2  and  O_7
REMARK    3  A    between atoms: C_3  and  C_9
REMARK    4  A    between atoms: C_10  and  C_11
REMARK    5  A    between atoms: C_11  and  O_12
REMARK    6  A    between atoms: O_12  and  C_14
REMARK    7  A    between atoms: O_16  and  C_18
REMARK    8  A    between atoms: C_18  and  C_19
REMARK    9  A    between atoms: C_19  and  C_21
REMARK                            x       y       z     vdW  Elec       q    Type
REMARK                         _______ _______ _______ _____ _____    ______ ____
ROOT
ATOM      1  C   UNL     1     139.555 124.130 134.356  0.00  0.00    +0.000 A 
ATOM      2  C   UNL     1     138.476 124.818 133.791  0.00  0.00    +0.000 A 
ATOM      3  C   UNL     1     136.985 123.192 134.799  0.00  0.00    +0.000 A 
ATOM      4  C   UNL     1     139.366 122.969 135.108  0.00  0.00    +0.000 A 
ATOM      5  C   UNL     1     137.186 124.336 134.028  0.00  0.00    +0.000 A 
ATOM      6  C   UNL     1     138.074 122.506 135.336  0.00  0.00    +0.000 A 
ENDROOT
BRANCH   2   7
ATOM      7  O   UNL     1     138.764 125.918 133.022  0.00  0.00    +0.000 OA
ATOM      8  C   UNL     1     139.105 125.653 131.690  0.00  0.00    +0.000 C 
ENDBRANCH   2   7
BRANCH   3   9
ATOM      9  C   UNL     1     135.661 122.717 135.034  0.00  0.00    +0.000 C 
ATOM     10  C   UNL     1     134.545 122.319 135.231  0.00  0.00    +0.000 C 
BRANCH  10  11
ATOM     11  C   UNL     1     133.121 121.815 135.487  0.00  0.00    +0.000 C 
BRANCH  11  12
ATOM     12  O   UNL     1     131.884 121.377 135.707  0.00  0.00    +0.000 OA
BRANCH  12  14
ATOM     13  O   UNL     1     130.312 122.865 136.593  0.00  0.00    +0.000 OA
ATOM     14  C   UNL     1     131.205 122.040 136.664  0.00  0.00    +0.000 C 
ATOM     15  C   UNL     1     131.618 121.705 138.057  0.00  0.00    +0.000 C 
ENDBRANCH  12  14
ENDBRANCH  11  12
ENDBRANCH  10  11
ENDBRANCH   3   9
BRANCH   1  16
ATOM     16  O   UNL     1     140.865 124.555 134.097  0.00  0.00    +0.000 OA
BRANCH  16  18
ATOM     17  O   UNL     1     142.420 123.796 135.651  0.00  0.00    +0.000 OA
ATOM     18  C   UNL     1     141.649 124.654 135.240  0.00  0.00    +0.000 C 
BRANCH  18  19
ATOM     19  C   UNL     1     141.417 125.951 135.923  0.00  0.00    +0.000 C 
ATOM     20  C   UNL     1     141.234 126.084 137.429  0.00  0.00    +0.000 C 
BRANCH  19  21
ATOM     21  C   UNL     1     141.367 127.139 135.148  0.00  0.00    +0.000 C 
ATOM     22  C   UNL     1     141.312 128.432 134.313  0.00  0.00    +0.000 C 
ENDBRANCH  19  21
ENDBRANCH  18  19
ENDBRANCH  16  18
ENDBRANCH   1  16
TORSDOF 9
ENDMDL
MODEL 6
REMARK VINA RESULT:      -5.3     30.738     34.297
REMARK  Name = 122180587_TripolinolateA.pdbqt.pdb
REMARK  9 active torsions:
REMARK  status: ('A' for Active; 'I' for Inactive)
REMARK    1  A    between atoms: C_1  and  O_16
REMARK    2  A    between atoms: C_2  and  O_7
REMARK    3  A    between atoms: C_3  and  C_9
REMARK    4  A    between atoms: C_10  and  C_11
REMARK    5  A    between atoms: C_11  and  O_12
REMARK    6  A    between atoms: O_12  and  C_14
REMARK    7  A    between atoms: O_16  and  C_18
REMARK    8  A    between atoms: C_18  and  C_19
REMARK    9  A    between atoms: C_19  and  C_21
REMARK                            x       y       z     vdW  Elec       q    Type
REMARK                         _______ _______ _______ _____ _____    ______ ____
ROOT
ATOM      1  C   UNL     1     143.107 124.517 100.582  0.00  0.00    +0.000 A 
ATOM      2  C   UNL     1     144.320 123.940 100.191  0.00  0.00    +0.000 A 
ATOM      3  C   UNL     1     143.181 122.977  98.278  0.00  0.00    +0.000 A 
ATOM      4  C   UNL     1     141.933 124.307  99.855  0.00  0.00    +0.000 A 
ATOM      5  C   UNL     1     144.343 123.171  99.025  0.00  0.00    +0.000 A 
ATOM      6  C   UNL     1     141.976 123.541  98.694  0.00  0.00    +0.000 A 
ENDROOT
BRANCH   2   7
ATOM      7  O   UNL     1     145.409 124.156 100.998  0.00  0.00    +0.000 OA
ATOM      8  C   UNL     1     146.541 124.682 100.363  0.00  0.00    +0.000 C 
ENDBRANCH   2   7
BRANCH   3   9
ATOM      9  C   UNL     1     143.225 122.193  97.088  0.00  0.00    +0.000 C 
ATOM     10  C   UNL     1     143.263 121.532  96.086  0.00  0.00    +0.000 C 
BRANCH  10  11
ATOM     11  C   UNL     1     143.316 120.687  94.809  0.00  0.00    +0.000 C 
BRANCH  11  12
ATOM     12  O   UNL     1     143.361 119.952  93.700  0.00  0.00    +0.000 OA
BRANCH  12  14
ATOM     13  O   UNL     1     144.707 120.406  91.842  0.00  0.00    +0.000 OA
ATOM     14  C   UNL     1     144.502 120.058  92.991  0.00  0.00    +0.000 C 
ATOM     15  C   UNL     1     145.734 119.683  93.744  0.00  0.00    +0.000 C 
ENDBRANCH  12  14
ENDBRANCH  11  12
ENDBRANCH  10  11
ENDBRANCH   3   9
BRANCH   1  16
ATOM     16  O   UNL     1     143.036 125.251 101.773  0.00  0.00    +0.000 OA
BRANCH  16  18
ATOM     17  O   UNL     1     144.356 127.164 101.687  0.00  0.00    +0.000 OA
ATOM     18  C   UNL     1     143.267 126.610 101.598  0.00  0.00    +0.000 C 
BRANCH  18  19
ATOM     19  C   UNL     1     142.000 127.323 101.301  0.00  0.00    +0.000 C 
ATOM     20  C   UNL     1     140.684 127.024 102.007  0.00  0.00    +0.000 C 
BRANCH  19  21
ATOM     21  C   UNL     1     141.999 128.343 100.314  0.00  0.00    +0.000 C 
ATOM     22  C   UNL     1     142.005 129.448  99.241  0.00  0.00    +0.000 C 
ENDBRANCH  19  21
ENDBRANCH  18  19
ENDBRANCH  16  18
ENDBRANCH   1  16
TORSDOF 9
ENDMDL
MODEL 7
REMARK VINA RESULT:      -5.3     30.421     34.779
REMARK  Name = 122180587_TripolinolateA.pdbqt.pdb
REMARK  9 active torsions:
REMARK  status: ('A' for Active; 'I' for Inactive)
REMARK    1  A    between atoms: C_1  and  O_16
REMARK    2  A    between atoms: C_2  and  O_7
REMARK    3  A    between atoms: C_3  and  C_9
REMARK    4  A    between atoms: C_10  and  C_11
REMARK    5  A    between atoms: C_11  and  O_12
REMARK    6  A    between atoms: O_12  and  C_14
REMARK    7  A    between atoms: O_16  and  C_18
REMARK    8  A    between atoms: C_18  and  C_19
REMARK    9  A    between atoms: C_19  and  C_21
REMARK                            x       y       z     vdW  Elec       q    Type
REMARK                         _______ _______ _______ _____ _____    ______ ____
ROOT
ATOM      1  C   UNL     1     142.809 124.223  99.434  0.00  0.00    +0.000 A 
ATOM      2  C   UNL     1     144.063 124.185  98.816  0.00  0.00    +0.000 A 
ATOM      3  C   UNL     1     143.175 122.566  97.243  0.00  0.00    +0.000 A 
ATOM      4  C   UNL     1     141.753 123.424  98.991  0.00  0.00    +0.000 A 
ATOM      5  C   UNL     1     144.231 123.349  97.709  0.00  0.00    +0.000 A 
ATOM      6  C   UNL     1     141.938 122.600  97.884  0.00  0.00    +0.000 A 
ENDROOT
BRANCH   2   7
ATOM      7  O   UNL     1     145.055 124.964  99.356  0.00  0.00    +0.000 OA
ATOM      8  C   UNL     1     146.139 124.270  99.908  0.00  0.00    +0.000 C 
ENDBRANCH   2   7
BRANCH   3   9
ATOM      9  C   UNL     1     143.364 121.723  96.108  0.00  0.00    +0.000 C 
ATOM     10  C   UNL     1     143.523 121.013  95.152  0.00  0.00    +0.000 C 
BRANCH  10  11
ATOM     11  C   UNL     1     143.722 120.110  93.931  0.00  0.00    +0.000 C 
BRANCH  11  12
ATOM     12  O   UNL     1     143.892 119.326  92.869  0.00  0.00    +0.000 OA
BRANCH  12  14
ATOM     13  O   UNL     1     144.125 117.007  93.047  0.00  0.00    +0.000 OA
ATOM     14  C   UNL     1     143.497 118.049  93.032  0.00  0.00    +0.000 C 
ATOM     15  C   UNL     1     142.028 117.879  93.228  0.00  0.00    +0.000 C 
ENDBRANCH  12  14
ENDBRANCH  11  12
ENDBRANCH  10  11
ENDBRANCH   3   9
BRANCH   1  16
ATOM     16  O   UNL     1     142.619 125.010 100.577  0.00  0.00    +0.000 OA
BRANCH  16  18
ATOM     17  O   UNL     1     141.756 126.861  99.464  0.00  0.00    +0.000 OA
ATOM     18  C   UNL     1     141.723 126.055 100.385  0.00  0.00    +0.000 C 
BRANCH  18  19
ATOM     19  C   UNL     1     140.709 126.082 101.469  0.00  0.00    +0.000 C 
ATOM     20  C   UNL     1     140.884 126.868 102.761  0.00  0.00    +0.000 C 
BRANCH  19  21
ATOM     21  C   UNL     1     139.507 125.345 101.306  0.00  0.00    +0.000 C 
ATOM     22  C   UNL     1     138.197 124.553 101.132  0.00  0.00    +0.000 C 
ENDBRANCH  19  21
ENDBRANCH  18  19
ENDBRANCH  16  18
ENDBRANCH   1  16
TORSDOF 9
ENDMDL
MODEL 8
REMARK VINA RESULT:      -5.2      2.445      4.183
REMARK  Name = 122180587_TripolinolateA.pdbqt.pdb
REMARK  9 active torsions:
REMARK  status: ('A' for Active; 'I' for Inactive)
REMARK    1  A    between atoms: C_1  and  O_16
REMARK    2  A    between atoms: C_2  and  O_7
REMARK    3  A    between atoms: C_3  and  C_9
REMARK    4  A    between atoms: C_10  and  C_11
REMARK    5  A    between atoms: C_11  and  O_12
REMARK    6  A    between atoms: O_12  and  C_14
REMARK    7  A    between atoms: O_16  and  C_18
REMARK    8  A    between atoms: C_18  and  C_19
REMARK    9  A    between atoms: C_19  and  C_21
REMARK                            x       y       z     vdW  Elec       q    Type
REMARK                         _______ _______ _______ _____ _____    ______ ____
ROOT
ATOM      1  C   UNL     1     136.374 122.212 135.321  0.00  0.00    +0.000 A 
ATOM      2  C   UNL     1     136.047 122.444 133.981  0.00  0.00    +0.000 A 
ATOM      3  C   UNL     1     138.229 123.461 133.684  0.00  0.00    +0.000 A 
ATOM      4  C   UNL     1     137.597 122.623 135.855  0.00  0.00    +0.000 A 
ATOM      5  C   UNL     1     136.994 123.069 133.167  0.00  0.00    +0.000 A 
ATOM      6  C   UNL     1     138.530 123.241 135.027  0.00  0.00    +0.000 A 
ENDROOT
BRANCH   2   7
ATOM      7  O   UNL     1     134.800 122.054 133.561  0.00  0.00    +0.000 OA
ATOM      8  C   UNL     1     134.745 121.459 132.295  0.00  0.00    +0.000 C 
ENDBRANCH   2   7
BRANCH   3   9
ATOM      9  C   UNL     1     139.185 124.093 132.836  0.00  0.00    +0.000 C 
ATOM     10  C   UNL     1     139.992 124.625 132.122  0.00  0.00    +0.000 C 
BRANCH  10  11
ATOM     11  C   UNL     1     141.023 125.303 131.215  0.00  0.00    +0.000 C 
BRANCH  11  12
ATOM     12  O   UNL     1     141.918 125.892 130.426  0.00  0.00    +0.000 OA
BRANCH  12  14
ATOM     13  O   UNL     1     141.967 126.129 128.100  0.00  0.00    +0.000 OA
ATOM     14  C   UNL     1     141.465 126.234 129.204  0.00  0.00    +0.000 C 
ATOM     15  C   UNL     1     140.107 126.852 129.200  0.00  0.00    +0.000 C 
ENDBRANCH  12  14
ENDBRANCH  11  12
ENDBRANCH  10  11
ENDBRANCH   3   9
BRANCH   1  16
ATOM     16  O   UNL     1     135.429 121.634 136.180  0.00  0.00    +0.000 OA
BRANCH  16  18
ATOM     17  O   UNL     1     136.317 119.556 135.627  0.00  0.00    +0.000 OA
ATOM     18  C   UNL     1     135.518 120.249 136.246  0.00  0.00    +0.000 C 
BRANCH  18  19
ATOM     19  C   UNL     1     134.492 119.702 137.168  0.00  0.00    +0.000 C 
ATOM     20  C   UNL     1     133.901 118.305 137.031  0.00  0.00    +0.000 C 
BRANCH  19  21
ATOM     21  C   UNL     1     134.030 120.508 138.242  0.00  0.00    +0.000 C 
ATOM     22  C   UNL     1     133.536 121.386 139.407  0.00  0.00    +0.000 C 
ENDBRANCH  19  21
ENDBRANCH  18  19
ENDBRANCH  16  18
ENDBRANCH   1  16
TORSDOF 9
ENDMDL
MODEL 9
REMARK VINA RESULT:      -5.2     29.673     34.669
REMARK  Name = 122180587_TripolinolateA.pdbqt.pdb
REMARK  9 active torsions:
REMARK  status: ('A' for Active; 'I' for Inactive)
REMARK    1  A    between atoms: C_1  and  O_16
REMARK    2  A    between atoms: C_2  and  O_7
REMARK    3  A    between atoms: C_3  and  C_9
REMARK    4  A    between atoms: C_10  and  C_11
REMARK    5  A    between atoms: C_11  and  O_12
REMARK    6  A    between atoms: O_12  and  C_14
REMARK    7  A    between atoms: O_16  and  C_18
REMARK    8  A    between atoms: C_18  and  C_19
REMARK    9  A    between atoms: C_19  and  C_21
REMARK                            x       y       z     vdW  Elec       q    Type
REMARK                         _______ _______ _______ _____ _____    ______ ____
ROOT
ATOM      1  C   UNL     1     143.654 124.553  99.125  0.00  0.00    +0.000 A 
ATOM      2  C   UNL     1     142.606 123.628  99.072  0.00  0.00    +0.000 A 
ATOM      3  C   UNL     1     143.613 122.689  97.075  0.00  0.00    +0.000 A 
ATOM      4  C   UNL     1     144.657 124.576  98.154  0.00  0.00    +0.000 A 
ATOM      5  C   UNL     1     142.602 122.691  98.035  0.00  0.00    +0.000 A 
ATOM      6  C   UNL     1     144.638 123.632  97.132  0.00  0.00    +0.000 A 
ENDROOT
BRANCH   2   7
ATOM      7  O   UNL     1     141.637 123.719 100.039  0.00  0.00    +0.000 OA
ATOM      8  C   UNL     1     140.351 124.034  99.581  0.00  0.00    +0.000 C 
ENDBRANCH   2   7
BRANCH   3   9
ATOM      9  C   UNL     1     143.594 121.722  96.027  0.00  0.00    +0.000 C 
ATOM     10  C   UNL     1     143.581 120.907  95.145  0.00  0.00    +0.000 C 
BRANCH  10  11
ATOM     11  C   UNL     1     143.566 119.870  94.018  0.00  0.00    +0.000 C 
BRANCH  11  12
ATOM     12  O   UNL     1     143.553 118.969  93.037  0.00  0.00    +0.000 OA
BRANCH  12  14
ATOM     13  O   UNL     1     141.327 118.253  93.065  0.00  0.00    +0.000 OA
ATOM     14  C   UNL     1     142.533 118.090  93.083  0.00  0.00    +0.000 C 
ATOM     15  C   UNL     1     142.955 116.662  93.173  0.00  0.00    +0.000 C 
ENDBRANCH  12  14
ENDBRANCH  11  12
ENDBRANCH  10  11
ENDBRANCH   3   9
BRANCH   1  16
ATOM     16  O   UNL     1     143.663 125.540 100.121  0.00  0.00    +0.000 OA
BRANCH  16  18
ATOM     17  O   UNL     1     145.000 124.217 101.489  0.00  0.00    +0.000 OA
ATOM     18  C   UNL     1     144.153 125.089 101.340  0.00  0.00    +0.000 C 
BRANCH  18  19
ATOM     19  C   UNL     1     143.493 125.800 102.464  0.00  0.00    +0.000 C 
ATOM     20  C   UNL     1     144.133 125.978 103.834  0.00  0.00    +0.000 C 
BRANCH  19  21
ATOM     21  C   UNL     1     142.202 126.355 102.265  0.00  0.00    +0.000 C 
ATOM     22  C   UNL     1     140.797 126.949 102.050  0.00  0.00    +0.000 C 
ENDBRANCH  19  21
ENDBRANCH  18  19
ENDBRANCH  16  18
ENDBRANCH   1  16
TORSDOF 9
ENDMDL
