MODEL 1
REMARK VINA RESULT:      -7.0      0.000      0.000
REMARK  Name = 135423438_Nintedanib.pdbqt.pdb
REMARK  9 active torsions:
REMARK  status: ('A' for Active; 'I' for Inactive)
REMARK    1  A    between atoms: N_1  and  C_22
REMARK    2  A    between atoms: C_2  and  C_4
REMARK    3  A    between atoms: C_2  and  C_37
REMARK    4  A    between atoms: C_7  and  O_13
REMARK    5  A    between atoms: C_10  and  C_16
REMARK    6  A    between atoms: C_16  and  O_17
REMARK    7  A    between atoms: C_19  and  N_26
REMARK    8  A    between atoms: C_27  and  C_29
REMARK    9  A    between atoms: C_29  and  N_30
REMARK                            x       y       z     vdW  Elec       q    Type
REMARK                         _______ _______ _______ _____ _____    ______ ____
ROOT
ATOM      1  N   UNL     1     143.784 127.607  97.177  0.00  0.00    +0.000 NA
ATOM      2  C   UNL     1     143.792 126.421  97.714  0.00  0.00    +0.000 C 
ENDROOT
BRANCH   2   4
ATOM      3  N   UNL     1     146.630 125.741  99.928  0.00  0.00    +0.000 N 
ATOM      4  C   UNL     1     144.752 126.199  98.803  0.00  0.00    +0.000 A 
ATOM      5  C   UNL     1     144.488 126.266 100.216  0.00  0.00    +0.000 A 
ATOM      6  C   UNL     1     145.676 125.979 100.885  0.00  0.00    +0.000 A 
ATOM      7  C   UNL     1     146.094 125.863  98.672  0.00  0.00    +0.000 A 
ATOM      8  C   UNL     1     143.343 126.553 100.987  0.00  0.00    +0.000 A 
ATOM      9  C   UNL     1     145.780 125.959 102.280  0.00  0.00    +0.000 A 
ATOM     10  C   UNL     1     144.624 126.245 103.018  0.00  0.00    +0.000 A 
ATOM     11  C   UNL     1     143.424 126.539 102.381  0.00  0.00    +0.000 A 
ATOM     12  H   UNL     1     147.589 125.503 100.134  0.00  0.00    +0.000 HD
BRANCH   7  13
ATOM     13  O   UNL     1     146.829 125.661  97.584  0.00  0.00    +0.000 OA
ATOM     14  H   UNL     1     147.375 126.442  97.385  0.00  0.00    +0.000 HD
ENDBRANCH   7  13
BRANCH  10  16
ATOM     15  O   UNL     1     145.591 126.656 105.145  0.00  0.00    +0.000 OA
ATOM     16  C   UNL     1     144.639 126.247 104.497  0.00  0.00    +0.000 C 
BRANCH  16  17
ATOM     17  O   UNL     1     143.458 125.737 104.946  0.00  0.00    +0.000 OA
ATOM     18  C   UNL     1     143.499 124.616 105.792  0.00  0.00    +0.000 C 
ENDBRANCH  16  17
ENDBRANCH  10  16
ENDBRANCH   2   4
BRANCH   1  22
ATOM     19  C   UNL     1     141.168 128.390  93.944  0.00  0.00    +0.000 A 
ATOM     20  C   UNL     1     142.449 127.872  93.740  0.00  0.00    +0.000 A 
ATOM     21  C   UNL     1     140.784 128.641  95.269  0.00  0.00    +0.000 A 
ATOM     22  C   UNL     1     142.927 127.904  96.110  0.00  0.00    +0.000 A 
ATOM     23  C   UNL     1     143.317 127.621  94.802  0.00  0.00    +0.000 A 
ATOM     24  C   UNL     1     141.643 128.394  96.339  0.00  0.00    +0.000 A 
BRANCH  19  26
ATOM     25  O   UNL     1     140.700 130.991  92.763  0.00  0.00    +0.000 OA
ATOM     26  N   UNL     1     140.268 128.659  92.846  0.00  0.00    +0.000 N 
ATOM     27  C   UNL     1     140.129 129.983  92.359  0.00  0.00    +0.000 C 
ATOM     28  C   UNL     1     139.551 127.491  92.325  0.00  0.00    +0.000 C 
BRANCH  27  29
ATOM     29  C   UNL     1     139.197 130.176  91.257  0.00  0.00    +0.000 C 
BRANCH  29  30
ATOM     30  N   UNL     1     138.273 130.399  90.146  0.00  0.00    +0.000 N 
ATOM     31  N   UNL     1     135.167 131.877  91.021  0.00  0.00    +0.000 N 
ATOM     32  C   UNL     1     136.966 129.810  90.551  0.00  0.00    +0.000 C 
ATOM     33  C   UNL     1     137.836 131.819  90.238  0.00  0.00    +0.000 C 
ATOM     34  C   UNL     1     135.605 130.458  90.937  0.00  0.00    +0.000 C 
ATOM     35  C   UNL     1     136.474 132.467  90.626  0.00  0.00    +0.000 C 
ATOM     36  C   UNL     1     134.977 132.178  92.434  0.00  0.00    +0.000 C 
ENDBRANCH  29  30
ENDBRANCH  27  29
ENDBRANCH  19  26
ENDBRANCH   1  22
BRANCH   2  37
ATOM     37  C   UNL     1     142.920 125.304  97.309  0.00  0.00    +0.000 A 
ATOM     38  C   UNL     1     143.371 124.392  96.357  0.00  0.00    +0.000 A 
ATOM     39  C   UNL     1     141.671 125.164  97.912  0.00  0.00    +0.000 A 
ATOM     40  C   UNL     1     142.552 123.326  95.999  0.00  0.00    +0.000 A 
ATOM     41  C   UNL     1     140.860 124.095  97.546  0.00  0.00    +0.000 A 
ATOM     42  C   UNL     1     141.299 123.178  96.592  0.00  0.00    +0.000 A 
ENDBRANCH   2  37
TORSDOF 9
ENDMDL
MODEL 2
REMARK VINA RESULT:      -7.0     35.861     40.236
REMARK  Name = 135423438_Nintedanib.pdbqt.pdb
REMARK  9 active torsions:
REMARK  status: ('A' for Active; 'I' for Inactive)
REMARK    1  A    between atoms: N_1  and  C_22
REMARK    2  A    between atoms: C_2  and  C_4
REMARK    3  A    between atoms: C_2  and  C_37
REMARK    4  A    between atoms: C_7  and  O_13
REMARK    5  A    between atoms: C_10  and  C_16
REMARK    6  A    between atoms: C_16  and  O_17
REMARK    7  A    between atoms: C_19  and  N_26
REMARK    8  A    between atoms: C_27  and  C_29
REMARK    9  A    between atoms: C_29  and  N_30
REMARK                            x       y       z     vdW  Elec       q    Type
REMARK                         _______ _______ _______ _____ _____    ______ ____
ROOT
ATOM      1  N   UNL     1     138.709 134.795 134.572  0.00  0.00    +0.000 NA
ATOM      2  C   UNL     1     138.613 135.351 135.746  0.00  0.00    +0.000 C 
ENDROOT
BRANCH   2   4
ATOM      3  N   UNL     1     137.072 138.665 135.500  0.00  0.00    +0.000 N 
ATOM      4  C   UNL     1     138.221 136.766 135.774  0.00  0.00    +0.000 A 
ATOM      5  C   UNL     1     138.989 137.865 136.296  0.00  0.00    +0.000 A 
ATOM      6  C   UNL     1     138.246 139.029 136.112  0.00  0.00    +0.000 A 
ATOM      7  C   UNL     1     137.041 137.311 135.285  0.00  0.00    +0.000 A 
ATOM      8  C   UNL     1     140.251 137.974 136.917  0.00  0.00    +0.000 A 
ATOM      9  C   UNL     1     138.695 140.293 136.510  0.00  0.00    +0.000 A 
ATOM     10  C   UNL     1     139.954 140.368 137.119  0.00  0.00    +0.000 A 
ATOM     11  C   UNL     1     140.720 139.225 137.322  0.00  0.00    +0.000 A 
ATOM     12  H   UNL     1     136.344 139.316 135.244  0.00  0.00    +0.000 HD
BRANCH   7  13
ATOM     13  O   UNL     1     136.006 136.730 134.687  0.00  0.00    +0.000 OA
ATOM     14  H   UNL     1     135.560 137.353 134.087  0.00  0.00    +0.000 HD
ENDBRANCH   7  13
BRANCH  10  16
ATOM     15  O   UNL     1     140.291 142.119 138.684  0.00  0.00    +0.000 OA
ATOM     16  C   UNL     1     140.511 141.661 137.573  0.00  0.00    +0.000 C 
BRANCH  16  17
ATOM     17  O   UNL     1     141.263 142.189 136.566  0.00  0.00    +0.000 OA
ATOM     18  C   UNL     1     141.977 143.371 136.822  0.00  0.00    +0.000 C 
ENDBRANCH  16  17
ENDBRANCH  10  16
ENDBRANCH   2   4
BRANCH   1  22
ATOM     19  C   UNL     1     139.845 130.749 134.083  0.00  0.00    +0.000 A 
ATOM     20  C   UNL     1     138.635 131.101 134.685  0.00  0.00    +0.000 A 
ATOM     21  C   UNL     1     140.670 131.795 133.647  0.00  0.00    +0.000 A 
ATOM     22  C   UNL     1     139.109 133.460 134.442  0.00  0.00    +0.000 A 
ATOM     23  C   UNL     1     138.262 132.434 134.856  0.00  0.00    +0.000 A 
ATOM     24  C   UNL     1     140.307 133.131 133.811  0.00  0.00    +0.000 A 
BRANCH  19  26
ATOM     25  O   UNL     1     138.946 129.006 131.953  0.00  0.00    +0.000 OA
ATOM     26  N   UNL     1     140.240 129.369 133.910  0.00  0.00    +0.000 N 
ATOM     27  C   UNL     1     139.725 128.622 132.821  0.00  0.00    +0.000 C 
ATOM     28  C   UNL     1     141.166 128.853 134.922  0.00  0.00    +0.000 C 
BRANCH  27  29
ATOM     29  C   UNL     1     140.162 127.237 132.718  0.00  0.00    +0.000 C 
BRANCH  29  30
ATOM     30  N   UNL     1     140.625 125.854 132.631  0.00  0.00    +0.000 N 
ATOM     31  N   UNL     1     138.217 123.384 133.472  0.00  0.00    +0.000 N 
ATOM     32  C   UNL     1     140.274 125.201 133.923  0.00  0.00    +0.000 C 
ATOM     33  C   UNL     1     139.619 125.122 131.812  0.00  0.00    +0.000 C 
ATOM     34  C   UNL     1     139.217 124.121 134.292  0.00  0.00    +0.000 C 
ATOM     35  C   UNL     1     138.561 124.041 132.182  0.00  0.00    +0.000 C 
ATOM     36  C   UNL     1     136.904 123.879 133.862  0.00  0.00    +0.000 C 
ENDBRANCH  29  30
ENDBRANCH  27  29
ENDBRANCH  19  26
ENDBRANCH   1  22
BRANCH   2  37
ATOM     37  C   UNL     1     138.872 134.668 137.026  0.00  0.00    +0.000 A 
ATOM     38  C   UNL     1     140.186 134.457 137.438  0.00  0.00    +0.000 A 
ATOM     39  C   UNL     1     137.792 134.278 137.818  0.00  0.00    +0.000 A 
ATOM     40  C   UNL     1     140.421 133.836 138.661  0.00  0.00    +0.000 A 
ATOM     41  C   UNL     1     138.038 133.657 139.038  0.00  0.00    +0.000 A 
ATOM     42  C   UNL     1     139.350 133.436 139.459  0.00  0.00    +0.000 A 
ENDBRANCH   2  37
TORSDOF 9
ENDMDL
MODEL 3
REMARK VINA RESULT:      -7.0      2.322      3.006
REMARK  Name = 135423438_Nintedanib.pdbqt.pdb
REMARK  9 active torsions:
REMARK  status: ('A' for Active; 'I' for Inactive)
REMARK    1  A    between atoms: N_1  and  C_22
REMARK    2  A    between atoms: C_2  and  C_4
REMARK    3  A    between atoms: C_2  and  C_37
REMARK    4  A    between atoms: C_7  and  O_13
REMARK    5  A    between atoms: C_10  and  C_16
REMARK    6  A    between atoms: C_16  and  O_17
REMARK    7  A    between atoms: C_19  and  N_26
REMARK    8  A    between atoms: C_27  and  C_29
REMARK    9  A    between atoms: C_29  and  N_30
REMARK                            x       y       z     vdW  Elec       q    Type
REMARK                         _______ _______ _______ _____ _____    ______ ____
ROOT
ATOM      1  N   UNL     1     141.966 125.665  97.233  0.00  0.00    +0.000 NA
ATOM      2  C   UNL     1     143.192 125.600  97.664  0.00  0.00    +0.000 C 
ENDROOT
BRANCH   2   4
ATOM      3  N   UNL     1     143.518 123.469 100.626  0.00  0.00    +0.000 N 
ATOM      4  C   UNL     1     143.395 124.976  98.978  0.00  0.00    +0.000 A 
ATOM      5  C   UNL     1     143.776 125.637 100.199  0.00  0.00    +0.000 A 
ATOM      6  C   UNL     1     143.846 124.671 101.202  0.00  0.00    +0.000 A 
ATOM      7  C   UNL     1     143.240 123.632  99.293  0.00  0.00    +0.000 A 
ATOM      8  C   UNL     1     144.075 126.972 100.540  0.00  0.00    +0.000 A 
ATOM      9  C   UNL     1     144.192 124.968 102.524  0.00  0.00    +0.000 A 
ATOM     10  C   UNL     1     144.480 126.304 102.831  0.00  0.00    +0.000 A 
ATOM     11  C   UNL     1     144.424 127.291 101.854  0.00  0.00    +0.000 A 
ATOM     12  H   UNL     1     143.485 122.594 101.128  0.00  0.00    +0.000 HD
BRANCH   7  13
ATOM     13  O   UNL     1     142.882 122.604  98.531  0.00  0.00    +0.000 OA
ATOM     14  H   UNL     1     143.664 122.112  98.226  0.00  0.00    +0.000 HD
ENDBRANCH   7  13
BRANCH  10  16
ATOM     15  O   UNL     1     145.695 127.572 104.428  0.00  0.00    +0.000 OA
ATOM     16  C   UNL     1     144.856 126.712 104.203  0.00  0.00    +0.000 C 
BRANCH  16  17
ATOM     17  O   UNL     1     144.126 125.980 105.091  0.00  0.00    +0.000 OA
ATOM     18  C   UNL     1     144.667 125.754 106.367  0.00  0.00    +0.000 C 
ENDBRANCH  16  17
ENDBRANCH  10  16
ENDBRANCH   2   4
BRANCH   1  22
ATOM     19  C   UNL     1     140.958 127.447  93.530  0.00  0.00    +0.000 A 
ATOM     20  C   UNL     1     141.362 126.113  93.614  0.00  0.00    +0.000 A 
ATOM     21  C   UNL     1     140.901 128.174  94.727  0.00  0.00    +0.000 A 
ATOM     22  C   UNL     1     141.668 126.272  96.007  0.00  0.00    +0.000 A 
ATOM     23  C   UNL     1     141.704 125.525  94.831  0.00  0.00    +0.000 A 
ATOM     24  C   UNL     1     141.240 127.597  95.950  0.00  0.00    +0.000 A 
BRANCH  19  26
ATOM     25  O   UNL     1     142.732 129.069  91.915  0.00  0.00    +0.000 OA
ATOM     26  N   UNL     1     140.611 128.063  92.269  0.00  0.00    +0.000 N 
ATOM     27  C   UNL     1     141.575 128.837  91.576  0.00  0.00    +0.000 C 
ATOM     28  C   UNL     1     139.238 127.825  91.815  0.00  0.00    +0.000 C 
BRANCH  27  29
ATOM     29  C   UNL     1     141.149 129.432  90.317  0.00  0.00    +0.000 C 
BRANCH  29  30
ATOM     30  N   UNL     1     140.718 130.001  89.042  0.00  0.00    +0.000 N 
ATOM     31  N   UNL     1     137.427 129.145  88.023  0.00  0.00    +0.000 N 
ATOM     32  C   UNL     1     140.187 128.874  88.225  0.00  0.00    +0.000 C 
ATOM     33  C   UNL     1     139.398 130.645  89.290  0.00  0.00    +0.000 C 
ATOM     34  C   UNL     1     138.745 128.497  87.781  0.00  0.00    +0.000 C 
ATOM     35  C   UNL     1     137.955 130.266  88.846  0.00  0.00    +0.000 C 
ATOM     36  C   UNL     1     136.686 128.272  88.924  0.00  0.00    +0.000 C 
ENDBRANCH  29  30
ENDBRANCH  27  29
ENDBRANCH  19  26
ENDBRANCH   1  22
BRANCH   2  37
ATOM     37  C   UNL     1     144.371 126.105  96.937  0.00  0.00    +0.000 A 
ATOM     38  C   UNL     1     145.139 125.223  96.179  0.00  0.00    +0.000 A 
ATOM     39  C   UNL     1     144.673 127.465  96.996  0.00  0.00    +0.000 A 
ATOM     40  C   UNL     1     146.234 125.714  95.475  0.00  0.00    +0.000 A 
ATOM     41  C   UNL     1     145.771 127.944  96.288  0.00  0.00    +0.000 A 
ATOM     42  C   UNL     1     146.549 127.071  95.529  0.00  0.00    +0.000 A 
ENDBRANCH   2  37
TORSDOF 9
ENDMDL
MODEL 4
REMARK VINA RESULT:      -6.9      6.081      7.551
REMARK  Name = 135423438_Nintedanib.pdbqt.pdb
REMARK  9 active torsions:
REMARK  status: ('A' for Active; 'I' for Inactive)
REMARK    1  A    between atoms: N_1  and  C_22
REMARK    2  A    between atoms: C_2  and  C_4
REMARK    3  A    between atoms: C_2  and  C_37
REMARK    4  A    between atoms: C_7  and  O_13
REMARK    5  A    between atoms: C_10  and  C_16
REMARK    6  A    between atoms: C_16  and  O_17
REMARK    7  A    between atoms: C_19  and  N_26
REMARK    8  A    between atoms: C_27  and  C_29
REMARK    9  A    between atoms: C_29  and  N_30
REMARK                            x       y       z     vdW  Elec       q    Type
REMARK                         _______ _______ _______ _____ _____    ______ ____
ROOT
ATOM      1  N   UNL     1     147.492 126.815  97.668  0.00  0.00    +0.000 NA
ATOM      2  C   UNL     1     146.480 126.509  98.429  0.00  0.00    +0.000 C 
ENDROOT
BRANCH   2   4
ATOM      3  N   UNL     1     146.881 128.415 101.531  0.00  0.00    +0.000 N 
ATOM      4  C   UNL     1     146.474 127.086  99.779  0.00  0.00    +0.000 A 
ATOM      5  C   UNL     1     145.788 126.572 100.935  0.00  0.00    +0.000 A 
ATOM      6  C   UNL     1     146.060 127.423 102.005  0.00  0.00    +0.000 A 
ATOM      7  C   UNL     1     147.144 128.228 100.198  0.00  0.00    +0.000 A 
ATOM      8  C   UNL     1     144.952 125.460 101.167  0.00  0.00    +0.000 A 
ATOM      9  C   UNL     1     145.547 127.221 103.290  0.00  0.00    +0.000 A 
ATOM     10  C   UNL     1     144.723 126.105 103.488  0.00  0.00    +0.000 A 
ATOM     11  C   UNL     1     144.428 125.239 102.442  0.00  0.00    +0.000 A 
ATOM     12  H   UNL     1     147.239 129.170 102.097  0.00  0.00    +0.000 HD
BRANCH   7  13
ATOM     13  O   UNL     1     147.934 129.059  99.526  0.00  0.00    +0.000 OA
ATOM     14  H   UNL     1     148.606 128.566  99.023  0.00  0.00    +0.000 HD
ENDBRANCH   7  13
BRANCH  10  16
ATOM     15  O   UNL     1     143.022 125.324 104.948  0.00  0.00    +0.000 OA
ATOM     16  C   UNL     1     144.135 125.811 104.814  0.00  0.00    +0.000 C 
BRANCH  16  17
ATOM     17  O   UNL     1     145.030 126.172 105.777  0.00  0.00    +0.000 OA
ATOM     18  C   UNL     1     144.753 125.813 107.106  0.00  0.00    +0.000 C 
ENDBRANCH  16  17
ENDBRANCH  10  16
ENDBRANCH   2   4
BRANCH   1  22
ATOM     19  C   UNL     1     147.901 125.309  93.735  0.00  0.00    +0.000 A 
ATOM     20  C   UNL     1     147.033 126.364  94.028  0.00  0.00    +0.000 A 
ATOM     21  C   UNL     1     148.632 124.768  94.801  0.00  0.00    +0.000 A 
ATOM     22  C   UNL     1     147.604 126.286  96.377  0.00  0.00    +0.000 A 
ATOM     23  C   UNL     1     146.889 126.857  95.325  0.00  0.00    +0.000 A 
ATOM     24  C   UNL     1     148.497 125.253  96.102  0.00  0.00    +0.000 A 
BRANCH  19  26
ATOM     25  O   UNL     1     149.544 126.481  91.659  0.00  0.00    +0.000 OA
ATOM     26  N   UNL     1     148.048 124.791  92.394  0.00  0.00    +0.000 N 
ATOM     27  C   UNL     1     148.886 125.462  91.469  0.00  0.00    +0.000 C 
ATOM     28  C   UNL     1     147.279 123.576  92.106  0.00  0.00    +0.000 C 
BRANCH  27  29
ATOM     29  C   UNL     1     148.977 124.884  90.135  0.00  0.00    +0.000 C 
BRANCH  29  30
ATOM     30  N   UNL     1     149.039 124.309  88.793  0.00  0.00    +0.000 N 
ATOM     31  N   UNL     1     146.572 121.860  88.071  0.00  0.00    +0.000 N 
ATOM     32  C   UNL     1     149.023 122.829  88.960  0.00  0.00    +0.000 C 
ATOM     33  C   UNL     1     147.666 124.413  88.225  0.00  0.00    +0.000 C 
ATOM     34  C   UNL     1     147.941 121.755  88.646  0.00  0.00    +0.000 C 
ATOM     35  C   UNL     1     146.583 123.339  87.912  0.00  0.00    +0.000 C 
ATOM     36  C   UNL     1     145.638 121.557  89.146  0.00  0.00    +0.000 C 
ENDBRANCH  29  30
ENDBRANCH  27  29
ENDBRANCH  19  26
ENDBRANCH   1  22
BRANCH   2  37
ATOM     37  C   UNL     1     145.362 125.633  98.034  0.00  0.00    +0.000 A 
ATOM     38  C   UNL     1     144.145 126.201  97.662  0.00  0.00    +0.000 A 
ATOM     39  C   UNL     1     145.557 124.253  98.008  0.00  0.00    +0.000 A 
ATOM     40  C   UNL     1     143.103 125.368  97.265  0.00  0.00    +0.000 A 
ATOM     41  C   UNL     1     144.508 123.430  97.611  0.00  0.00    +0.000 A 
ATOM     42  C   UNL     1     143.284 123.986  97.240  0.00  0.00    +0.000 A 
ENDBRANCH   2  37
TORSDOF 9
ENDMDL
MODEL 5
REMARK VINA RESULT:      -6.9      1.178      1.987
REMARK  Name = 135423438_Nintedanib.pdbqt.pdb
REMARK  9 active torsions:
REMARK  status: ('A' for Active; 'I' for Inactive)
REMARK    1  A    between atoms: N_1  and  C_22
REMARK    2  A    between atoms: C_2  and  C_4
REMARK    3  A    between atoms: C_2  and  C_37
REMARK    4  A    between atoms: C_7  and  O_13
REMARK    5  A    between atoms: C_10  and  C_16
REMARK    6  A    between atoms: C_16  and  O_17
REMARK    7  A    between atoms: C_19  and  N_26
REMARK    8  A    between atoms: C_27  and  C_29
REMARK    9  A    between atoms: C_29  and  N_30
REMARK                            x       y       z     vdW  Elec       q    Type
REMARK                         _______ _______ _______ _____ _____    ______ ____
ROOT
ATOM      1  N   UNL     1     143.711 127.585  97.062  0.00  0.00    +0.000 NA
ATOM      2  C   UNL     1     143.758 126.395  97.588  0.00  0.00    +0.000 C 
ENDROOT
BRANCH   2   4
ATOM      3  N   UNL     1     146.639 125.761  99.761  0.00  0.00    +0.000 N 
ATOM      4  C   UNL     1     144.738 126.189  98.663  0.00  0.00    +0.000 A 
ATOM      5  C   UNL     1     144.493 126.255 100.080  0.00  0.00    +0.000 A 
ATOM      6  C   UNL     1     145.695 125.987 100.732  0.00  0.00    +0.000 A 
ATOM      7  C   UNL     1     146.082 125.874  98.512  0.00  0.00    +0.000 A 
ATOM      8  C   UNL     1     143.356 126.527 100.867  0.00  0.00    +0.000 A 
ATOM      9  C   UNL     1     145.820 125.971 102.125  0.00  0.00    +0.000 A 
ATOM     10  C   UNL     1     144.671 126.241 102.879  0.00  0.00    +0.000 A 
ATOM     11  C   UNL     1     143.457 126.517 102.260  0.00  0.00    +0.000 A 
ATOM     12  H   UNL     1     147.604 125.538  99.953  0.00  0.00    +0.000 HD
BRANCH   7  13
ATOM     13  O   UNL     1     146.804 125.679  97.414  0.00  0.00    +0.000 OA
ATOM     14  H   UNL     1     147.724 125.454  97.641  0.00  0.00    +0.000 HD
ENDBRANCH   7  13
BRANCH  10  16
ATOM     15  O   UNL     1     145.675 126.643 104.991  0.00  0.00    +0.000 OA
ATOM     16  C   UNL     1     144.708 126.247 104.358  0.00  0.00    +0.000 C 
BRANCH  16  17
ATOM     17  O   UNL     1     143.526 125.754 104.826  0.00  0.00    +0.000 OA
ATOM     18  C   UNL     1     143.569 124.721 105.777  0.00  0.00    +0.000 C 
ENDBRANCH  16  17
ENDBRANCH  10  16
ENDBRANCH   2   4
BRANCH   1  22
ATOM     19  C   UNL     1     141.038 128.326  93.868  0.00  0.00    +0.000 A 
ATOM     20  C   UNL     1     142.342 127.882  93.641  0.00  0.00    +0.000 A 
ATOM     21  C   UNL     1     140.650 128.518  95.200  0.00  0.00    +0.000 A 
ATOM     22  C   UNL     1     142.833 127.869  96.009  0.00  0.00    +0.000 A 
ATOM     23  C   UNL     1     143.229 127.645  94.691  0.00  0.00    +0.000 A 
ATOM     24  C   UNL     1     141.527 128.284  96.259  0.00  0.00    +0.000 A 
BRANCH  19  26
ATOM     25  O   UNL     1     139.682 130.837  93.375  0.00  0.00    +0.000 OA
ATOM     26  N   UNL     1     140.118 128.580  92.782  0.00  0.00    +0.000 N 
ATOM     27  C   UNL     1     139.519 129.858  92.653  0.00  0.00    +0.000 C 
ATOM     28  C   UNL     1     139.878 127.444  91.888  0.00  0.00    +0.000 C 
BRANCH  27  29
ATOM     29  C   UNL     1     138.597 130.035  91.539  0.00  0.00    +0.000 C 
BRANCH  29  30
ATOM     30  N   UNL     1     137.694 130.227  90.406  0.00  0.00    +0.000 N 
ATOM     31  N   UNL     1     137.818 127.701  87.914  0.00  0.00    +0.000 N 
ATOM     32  C   UNL     1     138.516 130.081  89.173  0.00  0.00    +0.000 C 
ATOM     33  C   UNL     1     136.945 128.950  90.242  0.00  0.00    +0.000 C 
ATOM     34  C   UNL     1     138.573 128.973  88.082  0.00  0.00    +0.000 C 
ATOM     35  C   UNL     1     137.002 127.841  89.151  0.00  0.00    +0.000 C 
ATOM     36  C   UNL     1     138.761 126.617  88.150  0.00  0.00    +0.000 C 
ENDBRANCH  29  30
ENDBRANCH  27  29
ENDBRANCH  19  26
ENDBRANCH   1  22
BRANCH   2  37
ATOM     37  C   UNL     1     142.912 125.259  97.182  0.00  0.00    +0.000 A 
ATOM     38  C   UNL     1     143.371 124.377  96.205  0.00  0.00    +0.000 A 
ATOM     39  C   UNL     1     141.682 125.069  97.809  0.00  0.00    +0.000 A 
ATOM     40  C   UNL     1     142.577 123.292  95.847  0.00  0.00    +0.000 A 
ATOM     41  C   UNL     1     140.896 123.982  97.443  0.00  0.00    +0.000 A 
ATOM     42  C   UNL     1     141.343 123.094  96.464  0.00  0.00    +0.000 A 
ENDBRANCH   2  37
TORSDOF 9
ENDMDL
MODEL 6
REMARK VINA RESULT:      -6.8      2.554      3.543
REMARK  Name = 135423438_Nintedanib.pdbqt.pdb
REMARK  9 active torsions:
REMARK  status: ('A' for Active; 'I' for Inactive)
REMARK    1  A    between atoms: N_1  and  C_22
REMARK    2  A    between atoms: C_2  and  C_4
REMARK    3  A    between atoms: C_2  and  C_37
REMARK    4  A    between atoms: C_7  and  O_13
REMARK    5  A    between atoms: C_10  and  C_16
REMARK    6  A    between atoms: C_16  and  O_17
REMARK    7  A    between atoms: C_19  and  N_26
REMARK    8  A    between atoms: C_27  and  C_29
REMARK    9  A    between atoms: C_29  and  N_30
REMARK                            x       y       z     vdW  Elec       q    Type
REMARK                         _______ _______ _______ _____ _____    ______ ____
ROOT
ATOM      1  N   UNL     1     141.973 125.913  97.389  0.00  0.00    +0.000 NA
ATOM      2  C   UNL     1     143.195 125.812  97.825  0.00  0.00    +0.000 C 
ENDROOT
BRANCH   2   4
ATOM      3  N   UNL     1     143.447 123.573 100.714  0.00  0.00    +0.000 N 
ATOM      4  C   UNL     1     143.379 125.137  99.117  0.00  0.00    +0.000 A 
ATOM      5  C   UNL     1     143.795 125.741 100.356  0.00  0.00    +0.000 A 
ATOM      6  C   UNL     1     143.829 124.741 101.326  0.00  0.00    +0.000 A 
ATOM      7  C   UNL     1     143.169 123.792  99.389  0.00  0.00    +0.000 A 
ATOM      8  C   UNL     1     144.152 127.050 100.738  0.00  0.00    +0.000 A 
ATOM      9  C   UNL     1     144.195 124.979 102.655  0.00  0.00    +0.000 A 
ATOM     10  C   UNL     1     144.541 126.292 103.003  0.00  0.00    +0.000 A 
ATOM     11  C   UNL     1     144.522 127.312 102.058  0.00  0.00    +0.000 A 
ATOM     12  H   UNL     1     143.380 122.684 101.187  0.00  0.00    +0.000 HD
BRANCH   7  13
ATOM     13  O   UNL     1     142.762 122.805  98.597  0.00  0.00    +0.000 OA
ATOM     14  H   UNL     1     143.460 122.134  98.496  0.00  0.00    +0.000 HD
ENDBRANCH   7  13
BRANCH  10  16
ATOM     15  O   UNL     1     145.807 127.467 104.631  0.00  0.00    +0.000 OA
ATOM     16  C   UNL     1     144.943 126.638 104.384  0.00  0.00    +0.000 C 
BRANCH  16  17
ATOM     17  O   UNL     1     144.202 125.894 105.253  0.00  0.00    +0.000 OA
ATOM     18  C   UNL     1     144.629 125.814 106.589  0.00  0.00    +0.000 C 
ENDBRANCH  16  17
ENDBRANCH  10  16
ENDBRANCH   2   4
BRANCH   1  22
ATOM     19  C   UNL     1     141.019 127.847  93.749  0.00  0.00    +0.000 A 
ATOM     20  C   UNL     1     141.376 126.498  93.788  0.00  0.00    +0.000 A 
ATOM     21  C   UNL     1     140.990 128.537  94.969  0.00  0.00    +0.000 A 
ATOM     22  C   UNL     1     141.693 126.569  96.185  0.00  0.00    +0.000 A 
ATOM     23  C   UNL     1     141.700 125.859  94.985  0.00  0.00    +0.000 A 
ATOM     24  C   UNL     1     141.311 127.910  96.172  0.00  0.00    +0.000 A 
BRANCH  19  26
ATOM     25  O   UNL     1     142.902 129.241  92.049  0.00  0.00    +0.000 OA
ATOM     26  N   UNL     1     140.690 128.515  92.510  0.00  0.00    +0.000 N 
ATOM     27  C   UNL     1     141.709 129.164  91.769  0.00  0.00    +0.000 C 
ATOM     28  C   UNL     1     139.276 128.461  92.127  0.00  0.00    +0.000 C 
BRANCH  27  29
ATOM     29  C   UNL     1     141.300 129.821  90.536  0.00  0.00    +0.000 C 
BRANCH  29  30
ATOM     30  N   UNL     1     140.908 130.463  89.283  0.00  0.00    +0.000 N 
ATOM     31  N   UNL     1     141.841 133.873  88.961  0.00  0.00    +0.000 N 
ATOM     32  C   UNL     1     140.211 131.728  89.648  0.00  0.00    +0.000 C 
ATOM     33  C   UNL     1     142.133 131.116  88.741  0.00  0.00    +0.000 C 
ATOM     34  C   UNL     1     140.620 133.223  89.510  0.00  0.00    +0.000 C 
ATOM     35  C   UNL     1     142.543 132.611  88.604  0.00  0.00    +0.000 C 
ATOM     36  C   UNL     1     142.556 134.450  90.092  0.00  0.00    +0.000 C 
ENDBRANCH  29  30
ENDBRANCH  27  29
ENDBRANCH  19  26
ENDBRANCH   1  22
BRANCH   2  37
ATOM     37  C   UNL     1     144.386 126.323  97.124  0.00  0.00    +0.000 A 
ATOM     38  C   UNL     1     144.725 127.670  97.241  0.00  0.00    +0.000 A 
ATOM     39  C   UNL     1     145.171 125.440  96.385  0.00  0.00    +0.000 A 
ATOM     40  C   UNL     1     145.867 128.139  96.598  0.00  0.00    +0.000 A 
ATOM     41  C   UNL     1     146.309 125.919  95.745  0.00  0.00    +0.000 A 
ATOM     42  C   UNL     1     146.656 127.266  95.851  0.00  0.00    +0.000 A 
ENDBRANCH   2  37
TORSDOF 9
ENDMDL
MODEL 7
REMARK VINA RESULT:      -6.8      6.112      8.671
REMARK  Name = 135423438_Nintedanib.pdbqt.pdb
REMARK  9 active torsions:
REMARK  status: ('A' for Active; 'I' for Inactive)
REMARK    1  A    between atoms: N_1  and  C_22
REMARK    2  A    between atoms: C_2  and  C_4
REMARK    3  A    between atoms: C_2  and  C_37
REMARK    4  A    between atoms: C_7  and  O_13
REMARK    5  A    between atoms: C_10  and  C_16
REMARK    6  A    between atoms: C_16  and  O_17
REMARK    7  A    between atoms: C_19  and  N_26
REMARK    8  A    between atoms: C_27  and  C_29
REMARK    9  A    between atoms: C_29  and  N_30
REMARK                            x       y       z     vdW  Elec       q    Type
REMARK                         _______ _______ _______ _____ _____    ______ ____
ROOT
ATOM      1  N   UNL     1     147.622 126.638  97.488  0.00  0.00    +0.000 NA
ATOM      2  C   UNL     1     146.583 126.397  98.233  0.00  0.00    +0.000 C 
ENDROOT
BRANCH   2   4
ATOM      3  N   UNL     1     146.932 128.452 101.246  0.00  0.00    +0.000 N 
ATOM      4  C   UNL     1     146.559 127.035  99.556  0.00  0.00    +0.000 A 
ATOM      5  C   UNL     1     145.882 126.559 100.734  0.00  0.00    +0.000 A 
ATOM      6  C   UNL     1     146.132 127.464 101.763  0.00  0.00    +0.000 A 
ATOM      7  C   UNL     1     147.203 128.210  99.923  0.00  0.00    +0.000 A 
ATOM      8  C   UNL     1     145.071 125.440 101.014  0.00  0.00    +0.000 A 
ATOM      9  C   UNL     1     145.621 127.309 103.056  0.00  0.00    +0.000 A 
ATOM     10  C   UNL     1     144.822 126.185 103.304  0.00  0.00    +0.000 A 
ATOM     11  C   UNL     1     144.550 125.265 102.297  0.00  0.00    +0.000 A 
ATOM     12  H   UNL     1     147.271 129.240 101.778  0.00  0.00    +0.000 HD
BRANCH   7  13
ATOM     13  O   UNL     1     147.975 129.028  99.215  0.00  0.00    +0.000 OA
ATOM     14  H   UNL     1     147.689 129.052  98.285  0.00  0.00    +0.000 HD
ENDBRANCH   7  13
BRANCH  10  16
ATOM     15  O   UNL     1     143.121 125.466 104.794  0.00  0.00    +0.000 OA
ATOM     16  C   UNL     1     144.238 125.939 104.640  0.00  0.00    +0.000 C 
BRANCH  16  17
ATOM     17  O   UNL     1     145.139 126.323 105.588  0.00  0.00    +0.000 OA
ATOM     18  C   UNL     1     144.996 125.807 106.886  0.00  0.00    +0.000 C 
ENDBRANCH  16  17
ENDBRANCH  10  16
ENDBRANCH   2   4
BRANCH   1  22
ATOM     19  C   UNL     1     148.084 124.945  93.638  0.00  0.00    +0.000 A 
ATOM     20  C   UNL     1     147.231 126.027  93.863  0.00  0.00    +0.000 A 
ATOM     21  C   UNL     1     148.782 124.440  94.744  0.00  0.00    +0.000 A 
ATOM     22  C   UNL     1     147.751 126.048  96.225  0.00  0.00    +0.000 A 
ATOM     23  C   UNL     1     147.069 126.582  95.132  0.00  0.00    +0.000 A 
ATOM     24  C   UNL     1     148.630 124.987  96.017  0.00  0.00    +0.000 A 
BRANCH  19  26
ATOM     25  O   UNL     1     149.512 126.162  91.434  0.00  0.00    +0.000 OA
ATOM     26  N   UNL     1     148.249 124.361  92.325  0.00  0.00    +0.000 N 
ATOM     27  C   UNL     1     148.973 125.065  91.330  0.00  0.00    +0.000 C 
ATOM     28  C   UNL     1     147.620 123.051  92.141  0.00  0.00    +0.000 C 
BRANCH  27  29
ATOM     29  C   UNL     1     149.089 124.417  90.031  0.00  0.00    +0.000 C 
BRANCH  29  30
ATOM     30  N   UNL     1     149.178 123.758  88.730  0.00  0.00    +0.000 N 
ATOM     31  N   UNL     1     152.396 122.547  87.849  0.00  0.00    +0.000 N 
ATOM     32  C   UNL     1     150.317 124.387  88.006  0.00  0.00    +0.000 C 
ATOM     33  C   UNL     1     149.849 122.449  88.963  0.00  0.00    +0.000 C 
ATOM     34  C   UNL     1     151.729 123.858  87.622  0.00  0.00    +0.000 C 
ATOM     35  C   UNL     1     151.262 121.920  88.579  0.00  0.00    +0.000 C 
ATOM     36  C   UNL     1     153.454 122.775  88.824  0.00  0.00    +0.000 C 
ENDBRANCH  29  30
ENDBRANCH  27  29
ENDBRANCH  19  26
ENDBRANCH   1  22
BRANCH   2  37
ATOM     37  C   UNL     1     145.449 125.538  97.849  0.00  0.00    +0.000 A 
ATOM     38  C   UNL     1     145.586 124.152  97.909  0.00  0.00    +0.000 A 
ATOM     39  C   UNL     1     144.248 126.131  97.463  0.00  0.00    +0.000 A 
ATOM     40  C   UNL     1     144.502 123.349  97.570  0.00  0.00    +0.000 A 
ATOM     41  C   UNL     1     143.170 125.318  97.125  0.00  0.00    +0.000 A 
ATOM     42  C   UNL     1     143.297 123.930  97.178  0.00  0.00    +0.000 A 
ENDBRANCH   2  37
TORSDOF 9
ENDMDL
MODEL 8
REMARK VINA RESULT:      -6.5     28.939     32.654
REMARK  Name = 135423438_Nintedanib.pdbqt.pdb
REMARK  9 active torsions:
REMARK  status: ('A' for Active; 'I' for Inactive)
REMARK    1  A    between atoms: N_1  and  C_22
REMARK    2  A    between atoms: C_2  and  C_4
REMARK    3  A    between atoms: C_2  and  C_37
REMARK    4  A    between atoms: C_7  and  O_13
REMARK    5  A    between atoms: C_10  and  C_16
REMARK    6  A    between atoms: C_16  and  O_17
REMARK    7  A    between atoms: C_19  and  N_26
REMARK    8  A    between atoms: C_27  and  C_29
REMARK    9  A    between atoms: C_29  and  N_30
REMARK                            x       y       z     vdW  Elec       q    Type
REMARK                         _______ _______ _______ _____ _____    ______ ____
ROOT
ATOM      1  N   UNL     1     153.137 135.587 125.551  0.00  0.00    +0.000 NA
ATOM      2  C   UNL     1     152.818 135.019 124.424  0.00  0.00    +0.000 C 
ENDROOT
BRANCH   2   4
ATOM      3  N   UNL     1     155.692 134.158 122.321  0.00  0.00    +0.000 N 
ATOM      4  C   UNL     1     153.916 134.418 123.656  0.00  0.00    +0.000 A 
ATOM      5  C   UNL     1     154.234 133.017 123.555  0.00  0.00    +0.000 A 
ATOM      6  C   UNL     1     155.343 132.892 122.721  0.00  0.00    +0.000 A 
ATOM      7  C   UNL     1     154.844 135.087 122.869  0.00  0.00    +0.000 A 
ATOM      8  C   UNL     1     153.680 131.843 124.105  0.00  0.00    +0.000 A 
ATOM      9  C   UNL     1     155.924 131.660 122.404  0.00  0.00    +0.000 A 
ATOM     10  C   UNL     1     155.348 130.512 122.963  0.00  0.00    +0.000 A 
ATOM     11  C   UNL     1     154.244 130.602 123.803  0.00  0.00    +0.000 A 
ATOM     12  H   UNL     1     156.464 134.363 121.705  0.00  0.00    +0.000 HD
BRANCH   7  13
ATOM     13  O   UNL     1     154.978 136.383 122.609  0.00  0.00    +0.000 OA
ATOM     14  H   UNL     1     154.327 136.905 123.109  0.00  0.00    +0.000 HD
ENDBRANCH   7  13
BRANCH  10  16
ATOM     15  O   UNL     1     156.791 128.973 121.876  0.00  0.00    +0.000 OA
ATOM     16  C   UNL     1     155.895 129.166 122.685  0.00  0.00    +0.000 C 
BRANCH  16  17
ATOM     17  O   UNL     1     155.239 128.259 123.463  0.00  0.00    +0.000 OA
ATOM     18  C   UNL     1     155.893 127.055 123.771  0.00  0.00    +0.000 C 
ENDBRANCH  16  17
ENDBRANCH  10  16
ENDBRANCH   2   4
BRANCH   1  22
ATOM     19  C   UNL     1     150.123 137.487 127.833  0.00  0.00    +0.000 A 
ATOM     20  C   UNL     1     150.867 138.185 126.879  0.00  0.00    +0.000 A 
ATOM     21  C   UNL     1     150.417 136.128 128.004  0.00  0.00    +0.000 A 
ATOM     22  C   UNL     1     152.165 136.218 126.337  0.00  0.00    +0.000 A 
ATOM     23  C   UNL     1     151.867 137.564 126.131  0.00  0.00    +0.000 A 
ATOM     24  C   UNL     1     151.414 135.496 127.263  0.00  0.00    +0.000 A 
BRANCH  19  26
ATOM     25  O   UNL     1     150.387 138.315 130.594  0.00  0.00    +0.000 OA
ATOM     26  N   UNL     1     149.090 138.128 128.615  0.00  0.00    +0.000 N 
ATOM     27  C   UNL     1     149.348 138.484 129.962  0.00  0.00    +0.000 C 
ATOM     28  C   UNL     1     147.822 138.350 127.913  0.00  0.00    +0.000 C 
BRANCH  27  29
ATOM     29  C   UNL     1     148.257 139.119 130.688  0.00  0.00    +0.000 C 
BRANCH  29  30
ATOM     30  N   UNL     1     147.168 139.738 131.441  0.00  0.00    +0.000 N 
ATOM     31  N   UNL     1     145.209 142.084 129.635  0.00  0.00    +0.000 N 
ATOM     32  C   UNL     1     147.297 141.210 131.250  0.00  0.00    +0.000 C 
ATOM     33  C   UNL     1     145.940 139.584 130.612  0.00  0.00    +0.000 C 
ATOM     34  C   UNL     1     146.440 142.238 130.456  0.00  0.00    +0.000 C 
ATOM     35  C   UNL     1     145.083 140.613 129.817  0.00  0.00    +0.000 C 
ATOM     36  C   UNL     1     145.595 142.307 128.248  0.00  0.00    +0.000 C 
ENDBRANCH  29  30
ENDBRANCH  27  29
ENDBRANCH  19  26
ENDBRANCH   1  22
BRANCH   2  37
ATOM     37  C   UNL     1     151.453 134.945 123.873  0.00  0.00    +0.000 A 
ATOM     38  C   UNL     1     151.027 135.911 122.963  0.00  0.00    +0.000 A 
ATOM     39  C   UNL     1     150.626 133.887 124.248  0.00  0.00    +0.000 A 
ATOM     40  C   UNL     1     149.746 135.818 122.428  0.00  0.00    +0.000 A 
ATOM     41  C   UNL     1     149.348 133.804 123.707  0.00  0.00    +0.000 A 
ATOM     42  C   UNL     1     148.908 134.767 122.799  0.00  0.00    +0.000 A 
ENDBRANCH   2  37
TORSDOF 9
ENDMDL
MODEL 9
REMARK VINA RESULT:      -6.4      3.835      5.286
REMARK  Name = 135423438_Nintedanib.pdbqt.pdb
REMARK  9 active torsions:
REMARK  status: ('A' for Active; 'I' for Inactive)
REMARK    1  A    between atoms: N_1  and  C_22
REMARK    2  A    between atoms: C_2  and  C_4
REMARK    3  A    between atoms: C_2  and  C_37
REMARK    4  A    between atoms: C_7  and  O_13
REMARK    5  A    between atoms: C_10  and  C_16
REMARK    6  A    between atoms: C_16  and  O_17
REMARK    7  A    between atoms: C_19  and  N_26
REMARK    8  A    between atoms: C_27  and  C_29
REMARK    9  A    between atoms: C_29  and  N_30
REMARK                            x       y       z     vdW  Elec       q    Type
REMARK                         _______ _______ _______ _____ _____    ______ ____
ROOT
ATOM      1  N   UNL     1     141.554 127.488  97.157  0.00  0.00    +0.000 NA
ATOM      2  C   UNL     1     142.679 127.593  97.805  0.00  0.00    +0.000 C 
ENDROOT
BRANCH   2   4
ATOM      3  N   UNL     1     142.153 129.327 100.989  0.00  0.00    +0.000 N 
ATOM      4  C   UNL     1     142.598 128.074  99.190  0.00  0.00    +0.000 A 
ATOM      5  C   UNL     1     143.135 127.432 100.361  0.00  0.00    +0.000 A 
ATOM      6  C   UNL     1     142.838 128.235 101.461  0.00  0.00    +0.000 A 
ATOM      7  C   UNL     1     142.003 129.250  99.628  0.00  0.00    +0.000 A 
ATOM      8  C   UNL     1     143.842 126.232 100.586  0.00  0.00    +0.000 A 
ATOM      9  C   UNL     1     143.214 127.908 102.768  0.00  0.00    +0.000 A 
ATOM     10  C   UNL     1     143.918 126.712 102.957  0.00  0.00    +0.000 A 
ATOM     11  C   UNL     1     144.226 125.885 101.882  0.00  0.00    +0.000 A 
ATOM     12  H   UNL     1     141.816 130.077 101.574  0.00  0.00    +0.000 HD
BRANCH   7  13
ATOM     13  O   UNL     1     141.382 130.208  98.946  0.00  0.00    +0.000 OA
ATOM     14  H   UNL     1     140.428 130.204  99.137  0.00  0.00    +0.000 HD
ENDBRANCH   7  13
BRANCH  10  16
ATOM     15  O   UNL     1     145.411 126.649 104.801  0.00  0.00    +0.000 OA
ATOM     16  C   UNL     1     144.356 126.284 104.304  0.00  0.00    +0.000 C 
BRANCH  16  17
ATOM     17  O   UNL     1     143.405 125.461 104.830  0.00  0.00    +0.000 OA
ATOM     18  C   UNL     1     143.715 124.757 106.005  0.00  0.00    +0.000 C 
ENDBRANCH  16  17
ENDBRANCH  10  16
ENDBRANCH   2   4
BRANCH   1  22
ATOM     19  C   UNL     1     141.607 126.245  93.113  0.00  0.00    +0.000 A 
ATOM     20  C   UNL     1     141.637 127.597  93.463  0.00  0.00    +0.000 A 
ATOM     21  C   UNL     1     141.558 125.315  94.160  0.00  0.00    +0.000 A 
ATOM     22  C   UNL     1     141.533 127.071  95.821  0.00  0.00    +0.000 A 
ATOM     23  C   UNL     1     141.611 128.011  94.795  0.00  0.00    +0.000 A 
ATOM     24  C   UNL     1     141.531 125.716  95.495  0.00  0.00    +0.000 A 
BRANCH  19  26
ATOM     25  O   UNL     1     139.269 125.644  91.515  0.00  0.00    +0.000 OA
ATOM     26  N   UNL     1     141.627 125.812  91.734  0.00  0.00    +0.000 N 
ATOM     27  C   UNL     1     140.406 125.549  91.063  0.00  0.00    +0.000 C 
ATOM     28  C   UNL     1     142.960 125.675  91.141  0.00  0.00    +0.000 C 
BRANCH  27  29
ATOM     29  C   UNL     1     140.507 125.109  89.679  0.00  0.00    +0.000 C 
BRANCH  29  30
ATOM     30  N   UNL     1     140.578 124.669  88.287  0.00  0.00    +0.000 N 
ATOM     31  N   UNL     1     139.281 121.427  87.645  0.00  0.00    +0.000 N 
ATOM     32  C   UNL     1     141.211 123.321  88.294  0.00  0.00    +0.000 C 
ATOM     33  C   UNL     1     139.213 124.194  87.923  0.00  0.00    +0.000 C 
ATOM     34  C   UNL     1     140.642 121.899  88.016  0.00  0.00    +0.000 C 
ATOM     35  C   UNL     1     138.644 122.772  87.646  0.00  0.00    +0.000 C 
ATOM     36  C   UNL     1     138.754 120.710  88.799  0.00  0.00    +0.000 C 
ENDBRANCH  29  30
ENDBRANCH  27  29
ENDBRANCH  19  26
ENDBRANCH   1  22
BRANCH   2  37
ATOM     37  C   UNL     1     144.005 127.270  97.251  0.00  0.00    +0.000 A 
ATOM     38  C   UNL     1     144.424 125.941  97.202  0.00  0.00    +0.000 A 
ATOM     39  C   UNL     1     144.802 128.300  96.753  0.00  0.00    +0.000 A 
ATOM     40  C   UNL     1     145.667 125.643  96.653  0.00  0.00    +0.000 A 
ATOM     41  C   UNL     1     146.044 127.990  96.207  0.00  0.00    +0.000 A 
ATOM     42  C   UNL     1     146.475 126.665  96.156  0.00  0.00    +0.000 A 
ENDBRANCH   2  37
TORSDOF 9
ENDMDL
