MODEL 1
REMARK VINA RESULT:      -7.0      0.000      0.000
REMARK  Name = 135403648_CalciumFolinate.pdbqt.pdb
REMARK  10 active torsions:
REMARK  status: ('A' for Active; 'I' for Inactive)
REMARK    1  A    between atoms: N_1  and  C_3
REMARK    2  A    between atoms: N_1  and  C_24
REMARK    3  A    between atoms: C_6  and  C_11
REMARK    4  A    between atoms: CA_13  and  C_15
REMARK    5  A    between atoms: CA_13  and  CB_18
REMARK    6  A    between atoms: C_15  and  O_16
REMARK    7  A    between atoms: CG_19  and  CD_21
REMARK    8  A    between atoms: CD_21  and  OE1_22
REMARK    9  A    between atoms: C_24  and  C_32
REMARK   10  A    between atoms: N_27  and  C_37
REMARK                            x       y       z     vdW  Elec       q    Type
REMARK                         _______ _______ _______ _____ _____    ______ ____
ROOT
ATOM      1  N   UNL     1     148.331 128.050  96.611  0.00  0.00    +0.000 N 
ATOM      2  H   UNL     1     148.383 129.055  96.447  0.00  0.00    +0.000 HD
ENDROOT
BRANCH   1   3
ATOM      3  C   UNL     1     147.806 127.745  97.885  0.00  0.00    +0.000 A 
ATOM      4  C   UNL     1     147.189 126.507  98.089  0.00  0.00    +0.000 A 
ATOM      5  C   UNL     1     147.717 128.702  98.902  0.00  0.00    +0.000 A 
ATOM      6  C   UNL     1     146.526 127.151 100.320  0.00  0.00    +0.000 A 
ATOM      7  C   UNL     1     146.568 126.204  99.300  0.00  0.00    +0.000 A 
ATOM      8  C   UNL     1     147.099 128.406 100.116  0.00  0.00    +0.000 A 
BRANCH   6  11
ATOM      9  O   UNL     1     146.592 126.632 102.595  0.00  0.00    +0.000 OA
ATOM     10  N   UNL     1     144.498 126.907 101.643  0.00  0.00    +0.000 N 
ATOM     11  C   ACE A   0     145.880 126.873 101.627  0.00  0.00    +0.000 C 
ATOM     12  H   UNL     1     143.993 127.113 100.785  0.00  0.00    +0.000 HD
ATOM     13  CA  UNL     1     143.671 126.682 102.729  0.00  0.00    +0.000 C 
BRANCH  13  15
ATOM     14  OXT UNL     1     141.418 127.314 103.220  0.00  0.00    +0.000 OA
ATOM     15  C   UNL     1     142.215 126.779 102.462  0.00  0.00    +0.000 C 
BRANCH  15  16
ATOM     16  O   UNL     1     141.830 126.227 101.302  0.00  0.00    +0.000 OA
ATOM     17  H   UNL     1     141.405 126.956 100.805  0.00  0.00    +0.000 HD
ENDBRANCH  15  16
ENDBRANCH  13  15
BRANCH  13  18
ATOM     18  CB  UNL     1     144.179 126.378 104.020  0.00  0.00    +0.000 C 
ATOM     19  CG  UNL     1     144.735 126.041 105.408  0.00  0.00    +0.000 C 
BRANCH  19  21
ATOM     20  OE2 UNL     1     144.689 125.952 107.743  0.00  0.00    +0.000 OA
ATOM     21  CD  UNL     1     145.265 125.713 106.696  0.00  0.00    +0.000 C 
BRANCH  21  22
ATOM     22  OE1 UNL     1     146.477 125.130 106.659  0.00  0.00    +0.000 OA
ATOM     23  HE1 UNL     1     146.317 124.310 106.149  0.00  0.00    +0.000 HD
ENDBRANCH  21  22
ENDBRANCH  19  21
ENDBRANCH  13  18
ENDBRANCH   6  11
ENDBRANCH   1   3
BRANCH   1  24
ATOM     24  C   UNL     1     147.917 127.239  95.472  0.00  0.00    +0.000 C 
BRANCH  24  31
ATOM     25  O   UNL     1     148.967 122.490  93.467  0.00  0.00    +0.000 OA
ATOM     26  N   UNL     1     147.967 125.115  94.214  0.00  0.00    +0.000 N 
ATOM     27  N   UNL     1     145.962 126.079  92.327  0.00  0.00    +0.000 N 
ATOM     28  N   UNL     1     146.257 124.136  91.025  0.00  0.00    +0.000 NA
ATOM     29  N   UNL     1     147.607 122.381  91.695  0.00  0.00    +0.000 N 
ATOM     30  N   UNL     1     146.405 122.240  89.737  0.00  0.00    +0.000 N 
ATOM     31  C   UNL     1     147.500 126.412  94.395  0.00  0.00    +0.000 C 
ATOM     32  C   UNL     1     146.566 126.783  93.415  0.00  0.00    +0.000 C 
ATOM     33  C   UNL     1     147.524 124.383  93.079  0.00  0.00    +0.000 A 
ATOM     34  C   UNL     1     146.602 124.837  92.161  0.00  0.00    +0.000 A 
ATOM     35  C   UNL     1     148.094 123.026  92.791  0.00  0.00    +0.000 A 
ATOM     36  C   UNL     1     146.746 122.959  90.832  0.00  0.00    +0.000 A 
ATOM     37  H   UNL     1     145.778 126.512  91.427  0.00  0.00    +0.000 HD
ATOM     38  H   UNL     1     148.029 121.492  91.482  0.00  0.00    +0.000 HD
ATOM     39  H   UNL     1     145.607 122.638  89.249  0.00  0.00    +0.000 HD
ATOM     40  H   UNL     1     146.328 121.238  89.853  0.00  0.00    +0.000 HD
BRANCH  26  42
ATOM     41  O   UNL     1     149.583 124.122  95.882  0.00  0.00    +0.000 OA
ATOM     42  C   UNL     1     148.853 124.616  95.103  0.00  0.00    +0.000 C 
ENDBRANCH  26  42
ENDBRANCH  24  31
ENDBRANCH   1  24
TORSDOF 10
ENDMDL
MODEL 2
REMARK VINA RESULT:      -6.9     35.628     43.164
REMARK  Name = 135403648_CalciumFolinate.pdbqt.pdb
REMARK  10 active torsions:
REMARK  status: ('A' for Active; 'I' for Inactive)
REMARK    1  A    between atoms: N_1  and  C_3
REMARK    2  A    between atoms: N_1  and  C_24
REMARK    3  A    between atoms: C_6  and  C_11
REMARK    4  A    between atoms: CA_13  and  C_15
REMARK    5  A    between atoms: CA_13  and  CB_18
REMARK    6  A    between atoms: C_15  and  O_16
REMARK    7  A    between atoms: CG_19  and  CD_21
REMARK    8  A    between atoms: CD_21  and  OE1_22
REMARK    9  A    between atoms: C_24  and  C_32
REMARK   10  A    between atoms: N_27  and  C_37
REMARK                            x       y       z     vdW  Elec       q    Type
REMARK                         _______ _______ _______ _____ _____    ______ ____
ROOT
ATOM      1  N   UNL     1     135.120 121.276 138.681  0.00  0.00    +0.000 N 
ATOM      2  H   UNL     1     135.332 120.314 138.944  0.00  0.00    +0.000 HD
ENDROOT
BRANCH   1   3
ATOM      3  C   UNL     1     134.822 122.080 139.802  0.00  0.00    +0.000 A 
ATOM      4  C   UNL     1     135.732 123.066 140.194  0.00  0.00    +0.000 A 
ATOM      5  C   UNL     1     133.737 121.811 140.645  0.00  0.00    +0.000 A 
ATOM      6  C   UNL     1     134.418 123.565 142.159  0.00  0.00    +0.000 A 
ATOM      7  C   UNL     1     135.526 123.814 141.353  0.00  0.00    +0.000 A 
ATOM      8  C   UNL     1     133.524 122.554 141.803  0.00  0.00    +0.000 A 
BRANCH   6  11
ATOM      9  O   UNL     1     133.474 123.823 144.278  0.00  0.00    +0.000 OA
ATOM     10  N   UNL     1     134.712 125.601 143.458  0.00  0.00    +0.000 N 
ATOM     11  C   ACE A   0     134.156 124.337 143.399  0.00  0.00    +0.000 C 
ATOM     12  H   UNL     1     135.261 125.943 142.673  0.00  0.00    +0.000 HD
ATOM     13  CA  UNL     1     134.610 126.509 144.497  0.00  0.00    +0.000 C 
BRANCH  13  15
ATOM     14  OXT UNL     1     136.464 128.012 144.631  0.00  0.00    +0.000 OA
ATOM     15  C   UNL     1     135.308 127.802 144.294  0.00  0.00    +0.000 C 
BRANCH  15  16
ATOM     16  O   UNL     1     134.560 128.744 143.699  0.00  0.00    +0.000 OA
ATOM     17  H   UNL     1     135.119 129.086 142.971  0.00  0.00    +0.000 HD
ENDBRANCH  15  16
ENDBRANCH  13  15
BRANCH  13  18
ATOM     18  CB  UNL     1     133.886 126.225 145.685  0.00  0.00    +0.000 C 
ATOM     19  CG  UNL     1     133.093 125.919 146.961  0.00  0.00    +0.000 C 
BRANCH  19  21
ATOM     20  OE2 UNL     1     132.588 126.113 149.234  0.00  0.00    +0.000 OA
ATOM     21  CD  UNL     1     132.337 125.635 148.142  0.00  0.00    +0.000 C 
BRANCH  21  22
ATOM     22  OE1 UNL     1     131.325 124.770 147.951  0.00  0.00    +0.000 OA
ATOM     23  HE1 UNL     1     131.113 124.876 147.002  0.00  0.00    +0.000 HD
ENDBRANCH  21  22
ENDBRANCH  19  21
ENDBRANCH  13  18
ENDBRANCH   6  11
ENDBRANCH   1   3
BRANCH   1  24
ATOM     24  C   UNL     1     135.937 121.840 137.614  0.00  0.00    +0.000 C 
BRANCH  24  31
ATOM     25  O   UNL     1     135.730 123.052 132.499  0.00  0.00    +0.000 OA
ATOM     26  N   UNL     1     136.329 122.649 135.315  0.00  0.00    +0.000 N 
ATOM     27  N   UNL     1     139.082 123.382 135.943  0.00  0.00    +0.000 N 
ATOM     28  N   UNL     1     139.465 123.884 133.671  0.00  0.00    +0.000 NA
ATOM     29  N   UNL     1     137.780 123.844 132.087  0.00  0.00    +0.000 N 
ATOM     30  N   UNL     1     139.912 124.485 131.500  0.00  0.00    +0.000 N 
ATOM     31  C   UNL     1     136.775 122.388 136.606  0.00  0.00    +0.000 C 
ATOM     32  C   UNL     1     138.119 122.749 136.788  0.00  0.00    +0.000 C 
ATOM     33  C   UNL     1     137.257 123.155 134.362  0.00  0.00    +0.000 A 
ATOM     34  C   UNL     1     138.569 123.476 134.636  0.00  0.00    +0.000 A 
ATOM     35  C   UNL     1     136.841 123.340 132.933  0.00  0.00    +0.000 A 
ATOM     36  C   UNL     1     139.058 124.062 132.461  0.00  0.00    +0.000 A 
ATOM     37  H   UNL     1     140.061 123.111 135.926  0.00  0.00    +0.000 HD
ATOM     38  H   UNL     1     137.508 123.921 131.120  0.00  0.00    +0.000 HD
ATOM     39  H   UNL     1     140.787 124.826 131.887  0.00  0.00    +0.000 HD
ATOM     40  H   UNL     1     139.534 125.102 130.793  0.00  0.00    +0.000 HD
BRANCH  26  42
ATOM     41  O   UNL     1     133.927 122.083 134.781  0.00  0.00    +0.000 OA
ATOM     42  C   UNL     1     135.043 122.376 135.005  0.00  0.00    +0.000 C 
ENDBRANCH  26  42
ENDBRANCH  24  31
ENDBRANCH   1  24
TORSDOF 10
ENDMDL
MODEL 3
REMARK VINA RESULT:      -6.7     36.231     43.133
REMARK  Name = 135403648_CalciumFolinate.pdbqt.pdb
REMARK  10 active torsions:
REMARK  status: ('A' for Active; 'I' for Inactive)
REMARK    1  A    between atoms: N_1  and  C_3
REMARK    2  A    between atoms: N_1  and  C_24
REMARK    3  A    between atoms: C_6  and  C_11
REMARK    4  A    between atoms: CA_13  and  C_15
REMARK    5  A    between atoms: CA_13  and  CB_18
REMARK    6  A    between atoms: C_15  and  O_16
REMARK    7  A    between atoms: CG_19  and  CD_21
REMARK    8  A    between atoms: CD_21  and  OE1_22
REMARK    9  A    between atoms: C_24  and  C_32
REMARK   10  A    between atoms: N_27  and  C_37
REMARK                            x       y       z     vdW  Elec       q    Type
REMARK                         _______ _______ _______ _____ _____    ______ ____
ROOT
ATOM      1  N   UNL     1     133.768 121.511 138.639  0.00  0.00    +0.000 N 
ATOM      2  H   UNL     1     133.540 120.525 138.766  0.00  0.00    +0.000 HD
ENDROOT
BRANCH   1   3
ATOM      3  C   UNL     1     134.232 122.107 139.831  0.00  0.00    +0.000 A 
ATOM      4  C   UNL     1     135.049 123.239 139.752  0.00  0.00    +0.000 A 
ATOM      5  C   UNL     1     134.055 121.506 141.083  0.00  0.00    +0.000 A 
ATOM      6  C   UNL     1     135.391 123.216 142.143  0.00  0.00    +0.000 A 
ATOM      7  C   UNL     1     135.612 123.800 140.898  0.00  0.00    +0.000 A 
ATOM      8  C   UNL     1     134.613 122.062 142.232  0.00  0.00    +0.000 A 
BRANCH   6  11
ATOM      9  O   UNL     1     136.311 123.009 144.279  0.00  0.00    +0.000 OA
ATOM     10  N   UNL     1     136.063 125.157 143.448  0.00  0.00    +0.000 N 
ATOM     11  C   ACE A   0     135.965 123.780 143.390  0.00  0.00    +0.000 C 
ATOM     12  H   UNL     1     135.744 125.714 142.659  0.00  0.00    +0.000 HD
ATOM     13  CA  UNL     1     136.557 125.915 144.495  0.00  0.00    +0.000 C 
BRANCH  13  15
ATOM     14  OXT UNL     1     135.588 127.997 143.831  0.00  0.00    +0.000 OA
ATOM     15  C   UNL     1     136.541 127.384 144.291  0.00  0.00    +0.000 C 
BRANCH  15  16
ATOM     16  O   UNL     1     137.673 128.004 144.658  0.00  0.00    +0.000 OA
ATOM     17  H   UNL     1     138.082 127.408 145.320  0.00  0.00    +0.000 HD
ENDBRANCH  15  16
ENDBRANCH  13  15
BRANCH  13  18
ATOM     18  CB  UNL     1     137.050 125.328 145.690  0.00  0.00    +0.000 C 
ATOM     19  CG  UNL     1     137.576 124.701 146.986  0.00  0.00    +0.000 C 
BRANCH  19  21
ATOM     20  OE2 UNL     1     138.032 122.929 148.441  0.00  0.00    +0.000 OA
ATOM     21  CD  UNL     1     138.053 124.124 148.206  0.00  0.00    +0.000 C 
BRANCH  21  22
ATOM     22  OE1 UNL     1     138.514 125.024 149.094  0.00  0.00    +0.000 OA
ATOM     23  HE1 UNL     1     138.802 125.771 148.531  0.00  0.00    +0.000 HD
ENDBRANCH  21  22
ENDBRANCH  19  21
ENDBRANCH  13  18
ENDBRANCH   6  11
ENDBRANCH   1   3
BRANCH   1  24
ATOM     24  C   UNL     1     134.422 121.857 137.383  0.00  0.00    +0.000 C 
BRANCH  24  31
ATOM     25  O   UNL     1     139.339 122.672 135.699  0.00  0.00    +0.000 OA
ATOM     26  N   UNL     1     136.490 122.252 136.093  0.00  0.00    +0.000 N 
ATOM     27  N   UNL     1     134.977 122.791 133.658  0.00  0.00    +0.000 N 
ATOM     28  N   UNL     1     136.969 123.414 132.561  0.00  0.00    +0.000 NA
ATOM     29  N   UNL     1     139.051 123.200 133.546  0.00  0.00    +0.000 N 
ATOM     30  N   UNL     1     138.863 123.953 131.378  0.00  0.00    +0.000 N 
ATOM     31  C   UNL     1     135.103 122.204 136.186  0.00  0.00    +0.000 C 
ATOM     32  C   UNL     1     134.477 122.510 134.967  0.00  0.00    +0.000 C 
ATOM     33  C   UNL     1     137.078 122.655 134.862  0.00  0.00    +0.000 A 
ATOM     34  C   UNL     1     136.375 122.944 133.713  0.00  0.00    +0.000 A 
ATOM     35  C   UNL     1     138.564 122.829 134.761  0.00  0.00    +0.000 A 
ATOM     36  C   UNL     1     138.252 123.517 132.505  0.00  0.00    +0.000 A 
ATOM     37  H   UNL     1     134.563 123.491 133.050  0.00  0.00    +0.000 HD
ATOM     38  H   UNL     1     140.045 123.361 133.498  0.00  0.00    +0.000 HD
ATOM     39  H   UNL     1     138.231 123.970 130.582  0.00  0.00    +0.000 HD
ATOM     40  H   UNL     1     139.759 123.539 131.154  0.00  0.00    +0.000 HD
BRANCH  26  42
ATOM     41  O   UNL     1     137.804 121.656 138.166  0.00  0.00    +0.000 OA
ATOM     42  C   UNL     1     137.224 121.952 137.187  0.00  0.00    +0.000 C 
ENDBRANCH  26  42
ENDBRANCH  24  31
ENDBRANCH   1  24
TORSDOF 10
ENDMDL
MODEL 4
REMARK VINA RESULT:      -6.6      5.772     11.466
REMARK  Name = 135403648_CalciumFolinate.pdbqt.pdb
REMARK  10 active torsions:
REMARK  status: ('A' for Active; 'I' for Inactive)
REMARK    1  A    between atoms: N_1  and  C_3
REMARK    2  A    between atoms: N_1  and  C_24
REMARK    3  A    between atoms: C_6  and  C_11
REMARK    4  A    between atoms: CA_13  and  C_15
REMARK    5  A    between atoms: CA_13  and  CB_18
REMARK    6  A    between atoms: C_15  and  O_16
REMARK    7  A    between atoms: CG_19  and  CD_21
REMARK    8  A    between atoms: CD_21  and  OE1_22
REMARK    9  A    between atoms: C_24  and  C_32
REMARK   10  A    between atoms: N_27  and  C_37
REMARK                            x       y       z     vdW  Elec       q    Type
REMARK                         _______ _______ _______ _____ _____    ______ ____
ROOT
ATOM      1  N   UNL     1     141.255 124.960  97.066  0.00  0.00    +0.000 N 
ATOM      2  H   UNL     1     140.354 124.488  97.000  0.00  0.00    +0.000 HD
ENDROOT
BRANCH   1   3
ATOM      3  C   UNL     1     141.411 125.949  96.072  0.00  0.00    +0.000 A 
ATOM      4  C   UNL     1     141.629 125.555  94.748  0.00  0.00    +0.000 A 
ATOM      5  C   UNL     1     141.537 127.307  96.385  0.00  0.00    +0.000 A 
ATOM      6  C   UNL     1     141.968 127.848  94.070  0.00  0.00    +0.000 A 
ATOM      7  C   UNL     1     141.889 126.495  93.751  0.00  0.00    +0.000 A 
ATOM      8  C   UNL     1     141.795 128.253  95.394  0.00  0.00    +0.000 A 
BRANCH   6  11
ATOM      9  O   UNL     1     141.617 129.941  93.097  0.00  0.00    +0.000 OA
ATOM     10  N   UNL     1     143.186 128.566  92.090  0.00  0.00    +0.000 N 
ATOM     11  C   ACE A   0     142.238 128.885  93.043  0.00  0.00    +0.000 C 
ATOM     12  H   UNL     1     143.645 127.659  92.126  0.00  0.00    +0.000 HD
ATOM     13  CA  UNL     1     143.608 129.357  91.036  0.00  0.00    +0.000 C 
BRANCH  13  15
ATOM     14  OXT UNL     1     144.397 127.968  89.258  0.00  0.00    +0.000 OA
ATOM     15  C   UNL     1     144.642 128.760  90.156  0.00  0.00    +0.000 C 
BRANCH  15  16
ATOM     16  O   UNL     1     145.893 129.164  90.424  0.00  0.00    +0.000 OA
ATOM     17  H   UNL     1     146.379 128.344  90.651  0.00  0.00    +0.000 HD
ENDBRANCH  15  16
ENDBRANCH  13  15
BRANCH  13  18
ATOM     18  CB  UNL     1     143.089 130.658  90.809  0.00  0.00    +0.000 C 
ATOM     19  CG  UNL     1     142.516 132.059  90.562  0.00  0.00    +0.000 C 
BRANCH  19  21
ATOM     20  OE2 UNL     1     140.864 133.547  89.842  0.00  0.00    +0.000 OA
ATOM     21  CD  UNL     1     141.965 133.359  90.329  0.00  0.00    +0.000 C 
BRANCH  21  22
ATOM     22  OE1 UNL     1     142.781 134.371  90.676  0.00  0.00    +0.000 OA
ATOM     23  HE1 UNL     1     143.133 134.089  91.545  0.00  0.00    +0.000 HD
ENDBRANCH  21  22
ENDBRANCH  19  21
ENDBRANCH  13  18
ENDBRANCH   6  11
ENDBRANCH   1   3
BRANCH   1  24
ATOM     24  C   UNL     1     141.728 125.245  98.416  0.00  0.00    +0.000 C 
BRANCH  24  31
ATOM     25  O   UNL     1     146.019 124.816 101.429  0.00  0.00    +0.000 OA
ATOM     26  N   UNL     1     143.449 125.357 100.182  0.00  0.00    +0.000 N 
ATOM     27  N   UNL     1     141.571 126.553 102.066  0.00  0.00    +0.000 N 
ATOM     28  N   UNL     1     143.183 126.382 103.778  0.00  0.00    +0.000 NA
ATOM     29  N   UNL     1     145.349 125.673 103.382  0.00  0.00    +0.000 N 
ATOM     30  N   UNL     1     144.713 126.343 105.491  0.00  0.00    +0.000 N 
ATOM     31  C   UNL     1     142.146 125.552  99.738  0.00  0.00    +0.000 C 
ATOM     32  C   UNL     1     141.322 126.102 100.733  0.00  0.00    +0.000 C 
ATOM     33  C   UNL     1     143.759 125.652 101.538  0.00  0.00    +0.000 A 
ATOM     34  C   UNL     1     142.875 126.187 102.449  0.00  0.00    +0.000 A 
ATOM     35  C   UNL     1     145.124 125.346 102.080  0.00  0.00    +0.000 A 
ATOM     36  C   UNL     1     144.377 126.137 104.196  0.00  0.00    +0.000 A 
ATOM     37  H   UNL     1     140.917 126.403 102.828  0.00  0.00    +0.000 HD
ATOM     38  H   UNL     1     146.251 125.421 103.752  0.00  0.00    +0.000 HD
ATOM     39  H   UNL     1     144.009 126.882 105.989  0.00  0.00    +0.000 HD
ATOM     40  H   UNL     1     145.653 126.669 105.674  0.00  0.00    +0.000 HD
BRANCH  26  42
ATOM     41  O   UNL     1     145.204 124.462  98.602  0.00  0.00    +0.000 OA
ATOM     42  C   UNL     1     144.361 124.859  99.318  0.00  0.00    +0.000 C 
ENDBRANCH  26  42
ENDBRANCH  24  31
ENDBRANCH   1  24
TORSDOF 10
ENDMDL
MODEL 5
REMARK VINA RESULT:      -6.4      5.900     11.447
REMARK  Name = 135403648_CalciumFolinate.pdbqt.pdb
REMARK  10 active torsions:
REMARK  status: ('A' for Active; 'I' for Inactive)
REMARK    1  A    between atoms: N_1  and  C_3
REMARK    2  A    between atoms: N_1  and  C_24
REMARK    3  A    between atoms: C_6  and  C_11
REMARK    4  A    between atoms: CA_13  and  C_15
REMARK    5  A    between atoms: CA_13  and  CB_18
REMARK    6  A    between atoms: C_15  and  O_16
REMARK    7  A    between atoms: CG_19  and  CD_21
REMARK    8  A    between atoms: CD_21  and  OE1_22
REMARK    9  A    between atoms: C_24  and  C_32
REMARK   10  A    between atoms: N_27  and  C_37
REMARK                            x       y       z     vdW  Elec       q    Type
REMARK                         _______ _______ _______ _____ _____    ______ ____
ROOT
ATOM      1  N   UNL     1     141.335 125.015  97.215  0.00  0.00    +0.000 N 
ATOM      2  H   UNL     1     140.388 124.644  97.147  0.00  0.00    +0.000 HD
ENDROOT
BRANCH   1   3
ATOM      3  C   UNL     1     141.622 125.932  96.182  0.00  0.00    +0.000 A 
ATOM      4  C   UNL     1     141.763 127.288  96.494  0.00  0.00    +0.000 A 
ATOM      5  C   UNL     1     141.595 125.565  94.831  0.00  0.00    +0.000 A 
ATOM      6  C   UNL     1     141.961 127.855  94.155  0.00  0.00    +0.000 A 
ATOM      7  C   UNL     1     141.947 128.241  95.493  0.00  0.00    +0.000 A 
ATOM      8  C   UNL     1     141.779 126.512  93.825  0.00  0.00    +0.000 A 
BRANCH   6  11
ATOM      9  O   UNL     1     143.061 128.639  92.251  0.00  0.00    +0.000 OA
ATOM     10  N   UNL     1     141.286 129.906  93.031  0.00  0.00    +0.000 N 
ATOM     11  C   ACE A   0     142.157 128.833  93.055  0.00  0.00    +0.000 C 
ATOM     12  H   UNL     1     140.568 129.982  93.747  0.00  0.00    +0.000 HD
ATOM     13  CA  UNL     1     141.266 130.943  92.116  0.00  0.00    +0.000 C 
BRANCH  13  15
ATOM     14  OXT UNL     1     140.198 133.052  91.758  0.00  0.00    +0.000 OA
ATOM     15  C   UNL     1     140.219 131.972  92.330  0.00  0.00    +0.000 C 
BRANCH  15  16
ATOM     16  O   UNL     1     139.275 131.620  93.216  0.00  0.00    +0.000 OA
ATOM     17  H   UNL     1     139.746 131.555  94.073  0.00  0.00    +0.000 HD
ENDBRANCH  15  16
ENDBRANCH  13  15
BRANCH  13  18
ATOM     18  CB  UNL     1     142.187 131.022  91.038  0.00  0.00    +0.000 C 
ATOM     19  CG  UNL     1     143.190 131.111  89.883  0.00  0.00    +0.000 C 
BRANCH  19  21
ATOM     20  OE2 UNL     1     145.115 130.475  88.720  0.00  0.00    +0.000 OA
ATOM     21  CD  UNL     1     144.140 131.199  88.816  0.00  0.00    +0.000 C 
BRANCH  21  22
ATOM     22  OE1 UNL     1     143.877 132.173  87.926  0.00  0.00    +0.000 OA
ATOM     23  HE1 UNL     1     144.402 132.929  88.258  0.00  0.00    +0.000 HD
ENDBRANCH  21  22
ENDBRANCH  19  21
ENDBRANCH  13  18
ENDBRANCH   6  11
ENDBRANCH   1   3
BRANCH   1  24
ATOM     24  C   UNL     1     141.810 125.308  98.561  0.00  0.00    +0.000 C 
BRANCH  24  31
ATOM     25  O   UNL     1     146.127 124.968 101.548  0.00  0.00    +0.000 OA
ATOM     26  N   UNL     1     143.535 125.445 100.322  0.00  0.00    +0.000 N 
ATOM     27  N   UNL     1     141.625 126.539 102.237  0.00  0.00    +0.000 N 
ATOM     28  N   UNL     1     143.250 126.391 103.939  0.00  0.00    +0.000 NA
ATOM     29  N   UNL     1     145.437 125.764 103.521  0.00  0.00    +0.000 N 
ATOM     30  N   UNL     1     144.789 126.370 105.645  0.00  0.00    +0.000 N 
ATOM     31  C   UNL     1     142.223 125.603  99.888  0.00  0.00    +0.000 C 
ATOM     32  C   UNL     1     141.386 126.105 100.897  0.00  0.00    +0.000 C 
ATOM     33  C   UNL     1     143.841 125.724 101.683  0.00  0.00    +0.000 A 
ATOM     34  C   UNL     1     142.943 126.210 102.608  0.00  0.00    +0.000 A 
ATOM     35  C   UNL     1     145.218 125.455 102.213  0.00  0.00    +0.000 A 
ATOM     36  C   UNL     1     144.454 126.178 104.347  0.00  0.00    +0.000 A 
ATOM     37  H   UNL     1     140.981 126.351 102.999  0.00  0.00    +0.000 HD
ATOM     38  H   UNL     1     146.350 125.536 103.882  0.00  0.00    +0.000 HD
ATOM     39  H   UNL     1     144.070 126.875 106.156  0.00  0.00    +0.000 HD
ATOM     40  H   UNL     1     145.718 126.725 105.830  0.00  0.00    +0.000 HD
BRANCH  26  42
ATOM     41  O   UNL     1     145.313 124.624  98.728  0.00  0.00    +0.000 OA
ATOM     42  C   UNL     1     144.459 124.995  99.445  0.00  0.00    +0.000 C 
ENDBRANCH  26  42
ENDBRANCH  24  31
ENDBRANCH   1  24
TORSDOF 10
ENDMDL
MODEL 6
REMARK VINA RESULT:      -6.3      5.190     11.053
REMARK  Name = 135403648_CalciumFolinate.pdbqt.pdb
REMARK  10 active torsions:
REMARK  status: ('A' for Active; 'I' for Inactive)
REMARK    1  A    between atoms: N_1  and  C_3
REMARK    2  A    between atoms: N_1  and  C_24
REMARK    3  A    between atoms: C_6  and  C_11
REMARK    4  A    between atoms: CA_13  and  C_15
REMARK    5  A    between atoms: CA_13  and  CB_18
REMARK    6  A    between atoms: C_15  and  O_16
REMARK    7  A    between atoms: CG_19  and  CD_21
REMARK    8  A    between atoms: CD_21  and  OE1_22
REMARK    9  A    between atoms: C_24  and  C_32
REMARK   10  A    between atoms: N_27  and  C_37
REMARK                            x       y       z     vdW  Elec       q    Type
REMARK                         _______ _______ _______ _____ _____    ______ ____
ROOT
ATOM      1  N   UNL     1     144.413 125.234  95.513  0.00  0.00    +0.000 N 
ATOM      2  H   UNL     1     144.910 125.791  94.819  0.00  0.00    +0.000 HD
ENDROOT
BRANCH   1   3
ATOM      3  C   UNL     1     144.436 123.857  95.206  0.00  0.00    +0.000 A 
ATOM      4  C   UNL     1     145.510 123.340  94.476  0.00  0.00    +0.000 A 
ATOM      5  C   UNL     1     143.339 123.021  95.447  0.00  0.00    +0.000 A 
ATOM      6  C   UNL     1     144.445 121.176  94.349  0.00  0.00    +0.000 A 
ATOM      7  C   UNL     1     145.525 122.007  94.064  0.00  0.00    +0.000 A 
ATOM      8  C   UNL     1     143.346 121.689  95.040  0.00  0.00    +0.000 A 
BRANCH   6  11
ATOM      9  O   UNL     1     145.480 119.180  93.721  0.00  0.00    +0.000 OA
ATOM     10  N   UNL     1     143.166 119.174  93.821  0.00  0.00    +0.000 N 
ATOM     11  C   ACE A   0     144.417 119.751  93.935  0.00  0.00    +0.000 C 
ATOM     12  H   UNL     1     142.339 119.733  94.015  0.00  0.00    +0.000 HD
ATOM     13  CA  UNL     1     142.878 117.872  93.451  0.00  0.00    +0.000 C 
BRANCH  13  15
ATOM     14  OXT UNL     1     140.971 116.501  93.898  0.00  0.00    +0.000 OA
ATOM     15  C   UNL     1     141.438 117.518  93.406  0.00  0.00    +0.000 C 
BRANCH  15  16
ATOM     16  O   UNL     1     140.670 118.418  92.772  0.00  0.00    +0.000 OA
ATOM     17  H   UNL     1     139.863 118.492  93.323  0.00  0.00    +0.000 HD
ENDBRANCH  15  16
ENDBRANCH  13  15
BRANCH  13  18
ATOM     18  CB  UNL     1     143.893 116.932  93.136  0.00  0.00    +0.000 C 
ATOM     19  CG  UNL     1     144.988 115.910  92.807  0.00  0.00    +0.000 C 
BRANCH  19  21
ATOM     20  OE2 UNL     1     145.773 113.801  92.176  0.00  0.00    +0.000 OA
ATOM     21  CD  UNL     1     146.006 114.948  92.516  0.00  0.00    +0.000 C 
BRANCH  21  22
ATOM     22  OE1 UNL     1     147.259 115.412  92.669  0.00  0.00    +0.000 OA
ATOM     23  HE1 UNL     1     147.132 116.376  92.773  0.00  0.00    +0.000 HD
ENDBRANCH  21  22
ENDBRANCH  19  21
ENDBRANCH  13  18
ENDBRANCH   6  11
ENDBRANCH   1   3
BRANCH   1  24
ATOM     24  C   UNL     1     144.587 125.644  96.901  0.00  0.00    +0.000 C 
BRANCH  24  31
ATOM     25  O   UNL     1     144.159 123.546 101.707  0.00  0.00    +0.000 OA
ATOM     26  N   UNL     1     144.595 125.146  99.320  0.00  0.00    +0.000 N 
ATOM     27  N   UNL     1     145.204 127.921  99.982  0.00  0.00    +0.000 N 
ATOM     28  N   UNL     1     144.932 127.431 102.273  0.00  0.00    +0.000 NA
ATOM     29  N   UNL     1     144.571 125.283 103.052  0.00  0.00    +0.000 N 
ATOM     30  N   UNL     1     144.777 127.036 104.530  0.00  0.00    +0.000 N 
ATOM     31  C   UNL     1     144.705 126.040  98.260  0.00  0.00    +0.000 C 
ATOM     32  C   UNL     1     144.966 127.350  98.694  0.00  0.00    +0.000 C 
ATOM     33  C   UNL     1     144.682 125.648 100.647  0.00  0.00    +0.000 A 
ATOM     34  C   UNL     1     144.937 126.962 100.977  0.00  0.00    +0.000 A 
ATOM     35  C   UNL     1     144.454 124.732 101.813  0.00  0.00    +0.000 A 
ATOM     36  C   UNL     1     144.764 126.605 103.247  0.00  0.00    +0.000 A 
ATOM     37  H   UNL     1     144.843 128.830 100.255  0.00  0.00    +0.000 HD
ATOM     38  H   UNL     1     144.370 124.674 103.828  0.00  0.00    +0.000 HD
ATOM     39  H   UNL     1     145.131 127.986 104.612  0.00  0.00    +0.000 HD
ATOM     40  H   UNL     1     145.178 126.413 105.218  0.00  0.00    +0.000 HD
BRANCH  26  42
ATOM     41  O   UNL     1     144.133 122.728  98.755  0.00  0.00    +0.000 OA
ATOM     42  C   UNL     1     144.371 123.842  99.047  0.00  0.00    +0.000 C 
ENDBRANCH  26  42
ENDBRANCH  24  31
ENDBRANCH   1  24
TORSDOF 10
ENDMDL
MODEL 7
REMARK VINA RESULT:      -6.2      6.487     11.250
REMARK  Name = 135403648_CalciumFolinate.pdbqt.pdb
REMARK  10 active torsions:
REMARK  status: ('A' for Active; 'I' for Inactive)
REMARK    1  A    between atoms: N_1  and  C_3
REMARK    2  A    between atoms: N_1  and  C_24
REMARK    3  A    between atoms: C_6  and  C_11
REMARK    4  A    between atoms: CA_13  and  C_15
REMARK    5  A    between atoms: CA_13  and  CB_18
REMARK    6  A    between atoms: C_15  and  O_16
REMARK    7  A    between atoms: CG_19  and  CD_21
REMARK    8  A    between atoms: CD_21  and  OE1_22
REMARK    9  A    between atoms: C_24  and  C_32
REMARK   10  A    between atoms: N_27  and  C_37
REMARK                            x       y       z     vdW  Elec       q    Type
REMARK                         _______ _______ _______ _____ _____    ______ ____
ROOT
ATOM      1  N   UNL     1     142.996 124.731  97.104  0.00  0.00    +0.000 N 
ATOM      2  H   UNL     1     142.633 123.802  96.896  0.00  0.00    +0.000 HD
ENDROOT
BRANCH   1   3
ATOM      3  C   UNL     1     142.436 125.721  96.269  0.00  0.00    +0.000 A 
ATOM      4  C   UNL     1     142.193 126.995  96.791  0.00  0.00    +0.000 A 
ATOM      5  C   UNL     1     141.947 125.428  94.991  0.00  0.00    +0.000 A 
ATOM      6  C   UNL     1     141.107 127.679  94.746  0.00  0.00    +0.000 A 
ATOM      7  C   UNL     1     141.549 127.972  96.033  0.00  0.00    +0.000 A 
ATOM      8  C   UNL     1     141.304 126.399  94.226  0.00  0.00    +0.000 A 
BRANCH   6  11
ATOM      9  O   UNL     1     140.566 129.875  94.166  0.00  0.00    +0.000 OA
ATOM     10  N   UNL     1     139.657 128.192  92.859  0.00  0.00    +0.000 N 
ATOM     11  C   ACE A   0     140.421 128.687  93.899  0.00  0.00    +0.000 C 
ATOM     12  H   UNL     1     139.595 127.186  92.721  0.00  0.00    +0.000 HD
ATOM     13  CA  UNL     1     138.926 128.922  91.940  0.00  0.00    +0.000 C 
BRANCH  13  15
ATOM     14  OXT UNL     1     137.140 128.487  90.412  0.00  0.00    +0.000 OA
ATOM     15  C   UNL     1     138.190 128.129  90.925  0.00  0.00    +0.000 C 
BRANCH  15  16
ATOM     16  O   UNL     1     138.776 126.966  90.604  0.00  0.00    +0.000 OA
ATOM     17  H   UNL     1     139.452 126.824  91.300  0.00  0.00    +0.000 HD
ENDBRANCH  15  16
ENDBRANCH  13  15
BRANCH  13  18
ATOM     18  CB  UNL     1     138.880 130.341  91.962  0.00  0.00    +0.000 C 
ATOM     19  CG  UNL     1     138.840 131.873  91.995  0.00  0.00    +0.000 C 
BRANCH  19  21
ATOM     20  OE2 UNL     1     138.577 134.004  91.072  0.00  0.00    +0.000 OA
ATOM     21  CD  UNL     1     138.815 133.303  92.040  0.00  0.00    +0.000 C 
BRANCH  21  22
ATOM     22  OE1 UNL     1     139.100 133.819  93.248  0.00  0.00    +0.000 OA
ATOM     23  HE1 UNL     1     139.862 133.283  93.549  0.00  0.00    +0.000 HD
ENDBRANCH  21  22
ENDBRANCH  19  21
ENDBRANCH  13  18
ENDBRANCH   6  11
ENDBRANCH   1   3
BRANCH   1  24
ATOM     24  C   UNL     1     143.191 125.037  98.516  0.00  0.00    +0.000 C 
BRANCH  24  31
ATOM     25  O   UNL     1     147.042 125.623 102.053  0.00  0.00    +0.000 OA
ATOM     26  N   UNL     1     144.591 125.515 100.493  0.00  0.00    +0.000 N 
ATOM     27  N   UNL     1     142.245 126.052 102.140  0.00  0.00    +0.000 N 
ATOM     28  N   UNL     1     143.624 126.232 104.044  0.00  0.00    +0.000 NA
ATOM     29  N   UNL     1     145.933 126.158 103.919  0.00  0.00    +0.000 N 
ATOM     30  N   UNL     1     144.890 126.515 105.940  0.00  0.00    +0.000 N 
ATOM     31  C   UNL     1     143.347 125.373  99.888  0.00  0.00    +0.000 C 
ATOM     32  C   UNL     1     142.291 125.623 100.778  0.00  0.00    +0.000 C 
ATOM     33  C   UNL     1     144.644 125.808 101.884  0.00  0.00    +0.000 A 
ATOM     34  C   UNL     1     143.543 126.033 102.682  0.00  0.00    +0.000 A 
ATOM     35  C   UNL     1     145.965 125.855 102.593  0.00  0.00    +0.000 A 
ATOM     36  C   UNL     1     144.781 126.297 104.609  0.00  0.00    +0.000 A 
ATOM     37  H   UNL     1     141.571 125.689 102.808  0.00  0.00    +0.000 HD
ATOM     38  H   UNL     1     146.819 126.141 104.398  0.00  0.00    +0.000 HD
ATOM     39  H   UNL     1     144.011 126.815 106.352  0.00  0.00    +0.000 HD
ATOM     40  H   UNL     1     145.674 127.073 106.250  0.00  0.00    +0.000 HD
BRANCH  26  42
ATOM     41  O   UNL     1     146.625 125.166  99.036  0.00  0.00    +0.000 OA
ATOM     42  C   UNL     1     145.701 125.330  99.745  0.00  0.00    +0.000 C 
ENDBRANCH  26  42
ENDBRANCH  24  31
ENDBRANCH   1  24
TORSDOF 10
ENDMDL
MODEL 8
REMARK VINA RESULT:      -6.2      3.176     11.078
REMARK  Name = 135403648_CalciumFolinate.pdbqt.pdb
REMARK  10 active torsions:
REMARK  status: ('A' for Active; 'I' for Inactive)
REMARK    1  A    between atoms: N_1  and  C_3
REMARK    2  A    between atoms: N_1  and  C_24
REMARK    3  A    between atoms: C_6  and  C_11
REMARK    4  A    between atoms: CA_13  and  C_15
REMARK    5  A    between atoms: CA_13  and  CB_18
REMARK    6  A    between atoms: C_15  and  O_16
REMARK    7  A    between atoms: CG_19  and  CD_21
REMARK    8  A    between atoms: CD_21  and  OE1_22
REMARK    9  A    between atoms: C_24  and  C_32
REMARK   10  A    between atoms: N_27  and  C_37
REMARK                            x       y       z     vdW  Elec       q    Type
REMARK                         _______ _______ _______ _____ _____    ______ ____
ROOT
ATOM      1  N   UNL     1     147.357 127.173  95.992  0.00  0.00    +0.000 N 
ATOM      2  H   UNL     1     147.756 128.038  95.629  0.00  0.00    +0.000 HD
ENDROOT
BRANCH   1   3
ATOM      3  C   UNL     1     147.930 126.030  95.395  0.00  0.00    +0.000 A 
ATOM      4  C   UNL     1     147.360 125.512  94.228  0.00  0.00    +0.000 A 
ATOM      5  C   UNL     1     148.937 125.288  96.023  0.00  0.00    +0.000 A 
ATOM      6  C   UNL     1     148.864 123.623  94.275  0.00  0.00    +0.000 A 
ATOM      7  C   UNL     1     147.831 124.328  93.662  0.00  0.00    +0.000 A 
ATOM      8  C   UNL     1     149.414 124.104  95.463  0.00  0.00    +0.000 A 
BRANCH   6  11
ATOM      9  O   UNL     1     148.807 121.838  92.770  0.00  0.00    +0.000 OA
ATOM     10  N   UNL     1     150.550 121.868  94.296  0.00  0.00    +0.000 N 
ATOM     11  C   ACE A   0     149.401 122.361  93.707  0.00  0.00    +0.000 C 
ATOM     12  H   UNL     1     150.968 122.373  95.074  0.00  0.00    +0.000 HD
ATOM     13  CA  UNL     1     151.236 120.717  93.952  0.00  0.00    +0.000 C 
BRANCH  13  15
ATOM     14  OXT UNL     1     153.328 119.654  94.406  0.00  0.00    +0.000 OA
ATOM     15  C   UNL     1     152.445 120.422  94.760  0.00  0.00    +0.000 C 
BRANCH  15  16
ATOM     16  O   UNL     1     152.498 121.075  95.930  0.00  0.00    +0.000 OA
ATOM     17  H   UNL     1     151.570 121.106  96.243  0.00  0.00    +0.000 HD
ENDBRANCH  15  16
ENDBRANCH  13  15
BRANCH  13  18
ATOM     18  CB  UNL     1     150.815 119.871  92.893  0.00  0.00    +0.000 C 
ATOM     19  CG  UNL     1     150.353 118.951  91.757  0.00  0.00    +0.000 C 
BRANCH  19  21
ATOM     20  OE2 UNL     1     148.744 117.978  90.368  0.00  0.00    +0.000 OA
ATOM     21  CD  UNL     1     149.909 118.084  90.709  0.00  0.00    +0.000 C 
BRANCH  21  22
ATOM     22  OE1 UNL     1     150.894 117.368  90.136  0.00  0.00    +0.000 OA
ATOM     23  HE1 UNL     1     151.180 117.933  89.391  0.00  0.00    +0.000 HD
ENDBRANCH  21  22
ENDBRANCH  19  21
ENDBRANCH  13  18
ENDBRANCH   6  11
ENDBRANCH   1   3
BRANCH   1  24
ATOM     24  C   UNL     1     147.081 127.150  97.423  0.00  0.00    +0.000 C 
BRANCH  24  31
ATOM     25  O   UNL     1     144.855 124.124 101.106  0.00  0.00    +0.000 OA
ATOM     26  N   UNL     1     146.246 126.108  99.500  0.00  0.00    +0.000 N 
ATOM     27  N   UNL     1     146.979 128.448 101.079  0.00  0.00    +0.000 N 
ATOM     28  N   UNL     1     145.923 127.504 102.964  0.00  0.00    +0.000 NA
ATOM     29  N   UNL     1     145.045 125.364 102.957  0.00  0.00    +0.000 N 
ATOM     30  N   UNL     1     145.001 126.631 104.878  0.00  0.00    +0.000 N 
ATOM     31  C   UNL     1     146.810 127.180  98.817  0.00  0.00    +0.000 C 
ATOM     32  C   UNL     1     147.093 128.262  99.667  0.00  0.00    +0.000 C 
ATOM     33  C   UNL     1     145.969 126.251 100.887  0.00  0.00    +0.000 A 
ATOM     34  C   UNL     1     146.280 127.363 101.640  0.00  0.00    +0.000 A 
ATOM     35  C   UNL     1     145.257 125.159 101.628  0.00  0.00    +0.000 A 
ATOM     36  C   UNL     1     145.341 126.528 103.572  0.00  0.00    +0.000 A 
ATOM     37  H   UNL     1     146.677 129.323 101.495  0.00  0.00    +0.000 HD
ATOM     38  H   UNL     1     144.524 124.647 103.437  0.00  0.00    +0.000 HD
ATOM     39  H   UNL     1     145.434 127.434 105.325  0.00  0.00    +0.000 HD
ATOM     40  H   UNL     1     145.071 125.791 105.437  0.00  0.00    +0.000 HD
BRANCH  26  42
ATOM     41  O   UNL     1     145.632 123.997  98.255  0.00  0.00    +0.000 OA
ATOM     42  C   UNL     1     145.947 124.985  98.809  0.00  0.00    +0.000 C 
ENDBRANCH  26  42
ENDBRANCH  24  31
ENDBRANCH   1  24
TORSDOF 10
ENDMDL
MODEL 9
REMARK VINA RESULT:      -6.2      5.258     11.458
REMARK  Name = 135403648_CalciumFolinate.pdbqt.pdb
REMARK  10 active torsions:
REMARK  status: ('A' for Active; 'I' for Inactive)
REMARK    1  A    between atoms: N_1  and  C_3
REMARK    2  A    between atoms: N_1  and  C_24
REMARK    3  A    between atoms: C_6  and  C_11
REMARK    4  A    between atoms: CA_13  and  C_15
REMARK    5  A    between atoms: CA_13  and  CB_18
REMARK    6  A    between atoms: C_15  and  O_16
REMARK    7  A    between atoms: CG_19  and  CD_21
REMARK    8  A    between atoms: CD_21  and  OE1_22
REMARK    9  A    between atoms: C_24  and  C_32
REMARK   10  A    between atoms: N_27  and  C_37
REMARK                            x       y       z     vdW  Elec       q    Type
REMARK                         _______ _______ _______ _____ _____    ______ ____
ROOT
ATOM      1  N   UNL     1     145.598 124.905  96.521  0.00  0.00    +0.000 N 
ATOM      2  H   UNL     1     146.412 125.239  96.004  0.00  0.00    +0.000 HD
ENDROOT
BRANCH   1   3
ATOM      3  C   UNL     1     145.127 123.669  96.030  0.00  0.00    +0.000 A 
ATOM      4  C   UNL     1     145.634 123.178  94.823  0.00  0.00    +0.000 A 
ATOM      5  C   UNL     1     144.043 123.001  96.610  0.00  0.00    +0.000 A 
ATOM      6  C   UNL     1     144.074 121.335  94.862  0.00  0.00    +0.000 A 
ATOM      7  C   UNL     1     145.125 122.013  94.250  0.00  0.00    +0.000 A 
ATOM      8  C   UNL     1     143.529 121.836  96.044  0.00  0.00    +0.000 A 
BRANCH   6  11
ATOM      9  O   UNL     1     142.287 119.931  94.327  0.00  0.00    +0.000 OA
ATOM     10  N   UNL     1     144.408 119.190  93.762  0.00  0.00    +0.000 N 
ATOM     11  C   ACE A   0     143.502 120.089  94.292  0.00  0.00    +0.000 C 
ATOM     12  H   UNL     1     145.401 119.410  93.784  0.00  0.00    +0.000 HD
ATOM     13  CA  UNL     1     144.126 117.967  93.180  0.00  0.00    +0.000 C 
BRANCH  13  15
ATOM     14  OXT UNL     1     145.836 117.389  91.613  0.00  0.00    +0.000 OA
ATOM     15  C   UNL     1     145.297 117.199  92.693  0.00  0.00    +0.000 C 
BRANCH  15  16
ATOM     16  O   UNL     1     145.733 116.260  93.547  0.00  0.00    +0.000 OA
ATOM     17  H   UNL     1     146.061 116.759  94.324  0.00  0.00    +0.000 HD
ENDBRANCH  15  16
ENDBRANCH  13  15
BRANCH  13  18
ATOM     18  CB  UNL     1     142.800 117.476  93.053  0.00  0.00    +0.000 C 
ATOM     19  CG  UNL     1     141.368 116.947  92.904  0.00  0.00    +0.000 C 
BRANCH  19  21
ATOM     20  OE2 UNL     1     139.087 117.162  92.445  0.00  0.00    +0.000 OA
ATOM     21  CD  UNL     1     140.033 116.456  92.746  0.00  0.00    +0.000 C 
BRANCH  21  22
ATOM     22  OE1 UNL     1     139.903 115.138  92.980  0.00  0.00    +0.000 OA
ATOM     23  HE1 UNL     1     140.480 114.730  92.303  0.00  0.00    +0.000 HD
ENDBRANCH  21  22
ENDBRANCH  19  21
ENDBRANCH  13  18
ENDBRANCH   6  11
ENDBRANCH   1   3
BRANCH   1  24
ATOM     24  C   UNL     1     145.627 125.120  97.962  0.00  0.00    +0.000 C 
BRANCH  24  31
ATOM     25  O   UNL     1     142.281 125.930 101.940  0.00  0.00    +0.000 OA
ATOM     26  N   UNL     1     144.514 125.461 100.140  0.00  0.00    +0.000 N 
ATOM     27  N   UNL     1     147.075 125.735 101.510  0.00  0.00    +0.000 N 
ATOM     28  N   UNL     1     145.947 126.318 103.497  0.00  0.00    +0.000 NA
ATOM     29  N   UNL     1     143.642 126.256 103.683  0.00  0.00    +0.000 N 
ATOM     30  N   UNL     1     144.941 126.807 105.503  0.00  0.00    +0.000 N 
ATOM     31  C   UNL     1     145.662 125.379  99.358  0.00  0.00    +0.000 C 
ATOM     32  C   UNL     1     146.832 125.556 100.113  0.00  0.00    +0.000 C 
ATOM     33  C   UNL     1     144.650 125.771 101.521  0.00  0.00    +0.000 A 
ATOM     34  C   UNL     1     145.851 125.935 102.176  0.00  0.00    +0.000 A 
ATOM     35  C   UNL     1     143.429 125.980 102.368  0.00  0.00    +0.000 A 
ATOM     36  C   UNL     1     144.874 126.455 104.197  0.00  0.00    +0.000 A 
ATOM     37  H   UNL     1     147.786 126.365 101.868  0.00  0.00    +0.000 HD
ATOM     38  H   UNL     1     142.820 126.442 104.235  0.00  0.00    +0.000 HD
ATOM     39  H   UNL     1     145.885 126.734 105.872  0.00  0.00    +0.000 HD
ATOM     40  H   UNL     1     144.250 126.402 106.121  0.00  0.00    +0.000 HD
BRANCH  26  42
ATOM     41  O   UNL     1     142.294 125.066  99.002  0.00  0.00    +0.000 OA
ATOM     42  C   UNL     1     143.313 125.281  99.548  0.00  0.00    +0.000 C 
ENDBRANCH  26  42
ENDBRANCH  24  31
ENDBRANCH   1  24
TORSDOF 10
ENDMDL
