MODEL 1
REMARK VINA RESULT:      -9.4      0.000      0.000
REMARK  Name = 14132199_RiccardinD.pdbqt.pdb
REMARK  3 active torsions:
REMARK  status: ('A' for Active; 'I' for Inactive)
REMARK    1  A    between atoms: C_11  and  O_30
REMARK    2  A    between atoms: C_16  and  O_32
REMARK    3  A    between atoms: C_28  and  O_34
REMARK                            x       y       z     vdW  Elec       q    Type
REMARK                         _______ _______ _______ _____ _____    ______ ____
ROOT
ATOM      1  O   UNL     1     143.186 126.804 103.692  0.00  0.00    +0.000 OA
ATOM      2  C   UNL     1     142.466 127.662  96.828  0.00  0.00    +0.000 C 
ATOM      3  C   UNL     1     142.898 127.738  95.463  0.00  0.00    +0.000 A 
ATOM      4  C   UNL     1     144.267 127.616  95.108  0.00  0.00    +0.000 A 
ATOM      5  C   UNL     1     142.167 127.529  98.331  0.00  0.00    +0.000 C 
ATOM      6  C   UNL     1     147.399 127.068  99.751  0.00  0.00    +0.000 C 
ATOM      7  C   UNL     1     145.315 127.532  96.150  0.00  0.00    +0.000 A 
ATOM      8  C   UNL     1     146.978 127.316  98.413  0.00  0.00    +0.000 A 
ATOM      9  C   UNL     1     147.329 126.840 101.263  0.00  0.00    +0.000 C 
ATOM     10  C   UNL     1     142.106 127.367  99.747  0.00  0.00    +0.000 A 
ATOM     11  C   UNL     1     146.109 126.395  96.363  0.00  0.00    +0.000 A 
ATOM     12  C   UNL     1     146.708 126.701 102.534  0.00  0.00    +0.000 A 
ATOM     13  C   UNL     1     145.472 128.604  97.039  0.00  0.00    +0.000 A 
ATOM     14  C   UNL     1     146.919 126.273  97.495  0.00  0.00    +0.000 A 
ATOM     15  C   UNL     1     146.285 128.499  98.164  0.00  0.00    +0.000 A 
ATOM     16  C   UNL     1     144.570 127.598  93.734  0.00  0.00    +0.000 A 
ATOM     17  C   UNL     1     141.912 127.887  94.484  0.00  0.00    +0.000 A 
ATOM     18  C   UNL     1     143.584 127.765  92.762  0.00  0.00    +0.000 A 
ATOM     19  C   UNL     1     142.255 127.919  93.138  0.00  0.00    +0.000 A 
ATOM     20  C   UNL     1     145.321 126.802 102.530  0.00  0.00    +0.000 A 
ATOM     21  C   UNL     1     142.282 128.476 100.575  0.00  0.00    +0.000 A 
ATOM     22  C   UNL     1     142.088 126.081 100.289  0.00  0.00    +0.000 A 
ATOM     23  C   UNL     1     144.567 126.701 103.694  0.00  0.00    +0.000 A 
ATOM     24  C   UNL     1     147.380 126.491 103.729  0.00  0.00    +0.000 A 
ATOM     25  C   UNL     1     142.621 127.001 102.445  0.00  0.00    +0.000 A 
ATOM     26  C   UNL     1     142.529 128.297 101.934  0.00  0.00    +0.000 A 
ATOM     27  C   UNL     1     142.335 125.893 101.647  0.00  0.00    +0.000 A 
ATOM     28  C   UNL     1     145.242 126.491 104.891  0.00  0.00    +0.000 A 
ATOM     29  C   UNL     1     146.637 126.385 104.913  0.00  0.00    +0.000 A 
ENDROOT
BRANCH  11  30
ATOM     30  O   UNL     1     146.078 125.373  95.452  0.00  0.00    +0.000 OA
ATOM     31  H   UNL     1     145.760 125.734  94.602  0.00  0.00    +0.000 HD
ENDBRANCH  11  30
BRANCH  16  32
ATOM     32  O   UNL     1     145.842 127.395  93.269  0.00  0.00    +0.000 OA
ATOM     33  H   UNL     1     145.761 126.883  92.442  0.00  0.00    +0.000 HD
ENDBRANCH  16  32
BRANCH  28  34
ATOM     34  O   UNL     1     144.570 126.381 106.075  0.00  0.00    +0.000 OA
ATOM     35  H   UNL     1     144.893 127.092 106.659  0.00  0.00    +0.000 HD
ENDBRANCH  28  34
TORSDOF 3
ENDMDL
MODEL 2
REMARK VINA RESULT:      -9.3      3.435      5.201
REMARK  Name = 14132199_RiccardinD.pdbqt.pdb
REMARK  3 active torsions:
REMARK  status: ('A' for Active; 'I' for Inactive)
REMARK    1  A    between atoms: C_11  and  O_30
REMARK    2  A    between atoms: C_16  and  O_32
REMARK    3  A    between atoms: C_28  and  O_34
REMARK                            x       y       z     vdW  Elec       q    Type
REMARK                         _______ _______ _______ _____ _____    ______ ____
ROOT
ATOM      1  O   UNL     1     140.470 123.345  98.906  0.00  0.00    +0.000 OA
ATOM      2  C   UNL     1     145.718 124.781  94.575  0.00  0.00    +0.000 C 
ATOM      3  C   UNL     1     146.844 125.517  94.075  0.00  0.00    +0.000 A 
ATOM      4  C   UNL     1     147.279 126.719  94.691  0.00  0.00    +0.000 A 
ATOM      5  C   UNL     1     144.516 124.101  95.250  0.00  0.00    +0.000 C 
ATOM      6  C   UNL     1     143.848 128.029  98.956  0.00  0.00    +0.000 C 
ATOM      7  C   UNL     1     146.506 127.327  95.798  0.00  0.00    +0.000 A 
ATOM      8  C   UNL     1     144.813 128.105  97.910  0.00  0.00    +0.000 A 
ATOM      9  C   UNL     1     142.702 127.498  99.820  0.00  0.00    +0.000 C 
ATOM     10  C   UNL     1     143.414 123.632  96.025  0.00  0.00    +0.000 A 
ATOM     11  C   UNL     1     146.986 127.437  97.111  0.00  0.00    +0.000 A 
ATOM     12  C   UNL     1     141.680 126.596 100.221  0.00  0.00    +0.000 A 
ATOM     13  C   UNL     1     145.186 127.735  95.557  0.00  0.00    +0.000 A 
ATOM     14  C   UNL     1     146.147 127.801  98.167  0.00  0.00    +0.000 A 
ATOM     15  C   UNL     1     144.344 128.111  96.599  0.00  0.00    +0.000 A 
ATOM     16  C   UNL     1     148.456 127.303  94.188  0.00  0.00    +0.000 A 
ATOM     17  C   UNL     1     147.532 124.977  92.986  0.00  0.00    +0.000 A 
ATOM     18  C   UNL     1     149.128 126.770  93.088  0.00  0.00    +0.000 A 
ATOM     19  C   UNL     1     148.660 125.611  92.481  0.00  0.00    +0.000 A 
ATOM     20  C   UNL     1     141.557 125.455  99.436  0.00  0.00    +0.000 A 
ATOM     21  C   UNL     1     142.126 124.087  95.739  0.00  0.00    +0.000 A 
ATOM     22  C   UNL     1     143.657 122.900  97.188  0.00  0.00    +0.000 A 
ATOM     23  C   UNL     1     140.596 124.482  99.689  0.00  0.00    +0.000 A 
ATOM     24  C   UNL     1     140.827 126.786 101.298  0.00  0.00    +0.000 A 
ATOM     25  C   UNL     1     141.378 123.253  97.868  0.00  0.00    +0.000 A 
ATOM     26  C   UNL     1     141.097 123.889  96.657  0.00  0.00    +0.000 A 
ATOM     27  C   UNL     1     142.634 122.697  98.112  0.00  0.00    +0.000 A 
ATOM     28  C   UNL     1     139.742 124.674 100.769  0.00  0.00    +0.000 A 
ATOM     29  C   UNL     1     139.854 125.816 101.570  0.00  0.00    +0.000 A 
ENDROOT
BRANCH  11  30
ATOM     30  O   UNL     1     148.303 127.165  97.371  0.00  0.00    +0.000 OA
ATOM     31  H   UNL     1     148.439 126.203  97.276  0.00  0.00    +0.000 HD
ENDBRANCH  11  30
BRANCH  16  32
ATOM     32  O   UNL     1     149.022 128.413  94.757  0.00  0.00    +0.000 OA
ATOM     33  H   UNL     1     149.642 128.781  94.098  0.00  0.00    +0.000 HD
ENDBRANCH  16  32
BRANCH  28  34
ATOM     34  O   UNL     1     138.774 123.761 101.080  0.00  0.00    +0.000 OA
ATOM     35  H   UNL     1     139.178 122.877 101.017  0.00  0.00    +0.000 HD
ENDBRANCH  28  34
TORSDOF 3
ENDMDL
MODEL 3
REMARK VINA RESULT:      -8.5      1.808      7.877
REMARK  Name = 14132199_RiccardinD.pdbqt.pdb
REMARK  3 active torsions:
REMARK  status: ('A' for Active; 'I' for Inactive)
REMARK    1  A    between atoms: C_11  and  O_30
REMARK    2  A    between atoms: C_16  and  O_32
REMARK    3  A    between atoms: C_28  and  O_34
REMARK                            x       y       z     vdW  Elec       q    Type
REMARK                         _______ _______ _______ _____ _____    ______ ____
ROOT
ATOM      1  O   UNL     1     141.832 126.553  95.665  0.00  0.00    +0.000 OA
ATOM      2  C   UNL     1     143.544 125.915 102.375  0.00  0.00    +0.000 C 
ATOM      3  C   UNL     1     144.407 125.969 103.521  0.00  0.00    +0.000 A 
ATOM      4  C   UNL     1     145.777 126.318 103.404  0.00  0.00    +0.000 A 
ATOM      5  C   UNL     1     142.754 125.930 101.057  0.00  0.00    +0.000 C 
ATOM      6  C   UNL     1     147.086 127.127  97.991  0.00  0.00    +0.000 C 
ATOM      7  C   UNL     1     146.399 126.515 102.075  0.00  0.00    +0.000 A 
ATOM      8  C   UNL     1     147.172 126.879  99.392  0.00  0.00    +0.000 A 
ATOM      9  C   UNL     1     146.489 127.272  96.589  0.00  0.00    +0.000 C 
ATOM     10  C   UNL     1     142.207 126.014  99.742  0.00  0.00    +0.000 A 
ATOM     11  C   UNL     1     146.885 127.749 101.620  0.00  0.00    +0.000 A 
ATOM     12  C   UNL     1     145.473 127.254  95.595  0.00  0.00    +0.000 A 
ATOM     13  C   UNL     1     146.427 125.439 101.176  0.00  0.00    +0.000 A 
ATOM     14  C   UNL     1     147.249 127.943 100.285  0.00  0.00    +0.000 A 
ATOM     15  C   UNL     1     146.799 125.617  99.847  0.00  0.00    +0.000 A 
ATOM     16  C   UNL     1     146.506 126.447 104.600  0.00  0.00    +0.000 A 
ATOM     17  C   UNL     1     143.832 125.716 104.769  0.00  0.00    +0.000 A 
ATOM     18  C   UNL     1     145.933 126.174 105.842  0.00  0.00    +0.000 A 
ATOM     19  C   UNL     1     144.597 125.799 105.925  0.00  0.00    +0.000 A 
ATOM     20  C   UNL     1     144.199 126.940  96.057  0.00  0.00    +0.000 A 
ATOM     21  C   UNL     1     142.279 124.908  98.893  0.00  0.00    +0.000 A 
ATOM     22  C   UNL     1     141.806 127.255  99.246  0.00  0.00    +0.000 A 
ATOM     23  C   UNL     1     143.101 126.869  95.208  0.00  0.00    +0.000 A 
ATOM     24  C   UNL     1     145.674 127.509  94.247  0.00  0.00    +0.000 A 
ATOM     25  C   UNL     1     141.746 126.330  97.027  0.00  0.00    +0.000 A 
ATOM     26  C   UNL     1     142.036 125.060  97.530  0.00  0.00    +0.000 A 
ATOM     27  C   UNL     1     141.562 127.416  97.883  0.00  0.00    +0.000 A 
ATOM     28  C   UNL     1     143.304 127.125  93.857  0.00  0.00    +0.000 A 
ATOM     29  C   UNL     1     144.579 127.444  93.376  0.00  0.00    +0.000 A 
ENDROOT
BRANCH  11  30
ATOM     30  O   UNL     1     146.989 128.795 102.498  0.00  0.00    +0.000 OA
ATOM     31  H   UNL     1     147.704 128.591 103.131  0.00  0.00    +0.000 HD
ENDBRANCH  11  30
BRANCH  16  32
ATOM     32  O   UNL     1     147.810 126.865 104.621  0.00  0.00    +0.000 OA
ATOM     33  H   UNL     1     147.968 127.336 103.781  0.00  0.00    +0.000 HD
ENDBRANCH  16  32
BRANCH  28  34
ATOM     34  O   UNL     1     142.273 127.074  92.962  0.00  0.00    +0.000 OA
ATOM     35  H   UNL     1     141.797 127.923  93.019  0.00  0.00    +0.000 HD
ENDBRANCH  28  34
TORSDOF 3
ENDMDL
MODEL 4
REMARK VINA RESULT:      -7.6      2.581      8.060
REMARK  Name = 14132199_RiccardinD.pdbqt.pdb
REMARK  3 active torsions:
REMARK  status: ('A' for Active; 'I' for Inactive)
REMARK    1  A    between atoms: C_11  and  O_30
REMARK    2  A    between atoms: C_16  and  O_32
REMARK    3  A    between atoms: C_28  and  O_34
REMARK                            x       y       z     vdW  Elec       q    Type
REMARK                         _______ _______ _______ _____ _____    ______ ____
ROOT
ATOM      1  O   UNL     1     141.651 125.678  93.750  0.00  0.00    +0.000 OA
ATOM      2  C   UNL     1     143.285 126.222 100.488  0.00  0.00    +0.000 C 
ATOM      3  C   UNL     1     144.152 126.243 101.631  0.00  0.00    +0.000 A 
ATOM      4  C   UNL     1     145.545 126.001 101.512  0.00  0.00    +0.000 A 
ATOM      5  C   UNL     1     142.502 126.190  99.165  0.00  0.00    +0.000 C 
ATOM      6  C   UNL     1     146.823 124.799  96.165  0.00  0.00    +0.000 C 
ATOM      7  C   UNL     1     146.136 125.590 100.218  0.00  0.00    +0.000 A 
ATOM      8  C   UNL     1     146.870 124.915  97.585  0.00  0.00    +0.000 A 
ATOM      9  C   UNL     1     146.266 124.787  94.739  0.00  0.00    +0.000 C 
ATOM     10  C   UNL     1     141.973 126.127  97.842  0.00  0.00    +0.000 A 
ATOM     11  C   UNL     1     147.036 126.380  99.489  0.00  0.00    +0.000 A 
ATOM     12  C   UNL     1     145.277 124.896  93.724  0.00  0.00    +0.000 A 
ATOM     13  C   UNL     1     145.711 124.390  99.632  0.00  0.00    +0.000 A 
ATOM     14  C   UNL     1     147.387 126.064  98.175  0.00  0.00    +0.000 A 
ATOM     15  C   UNL     1     146.063 124.057  98.327  0.00  0.00    +0.000 A 
ATOM     16  C   UNL     1     146.320 126.152 102.676  0.00  0.00    +0.000 A 
ATOM     17  C   UNL     1     143.581 126.565 102.864  0.00  0.00    +0.000 A 
ATOM     18  C   UNL     1     145.742 126.454 103.909  0.00  0.00    +0.000 A 
ATOM     19  C   UNL     1     144.370 126.652 104.005  0.00  0.00    +0.000 A 
ATOM     20  C   UNL     1     144.002 125.224  94.172  0.00  0.00    +0.000 A 
ATOM     21  C   UNL     1     141.578 124.897  97.315  0.00  0.00    +0.000 A 
ATOM     22  C   UNL     1     142.055 127.250  97.018  0.00  0.00    +0.000 A 
ATOM     23  C   UNL     1     142.923 125.355  93.305  0.00  0.00    +0.000 A 
ATOM     24  C   UNL     1     145.500 124.693  92.370  0.00  0.00    +0.000 A 
ATOM     25  C   UNL     1     141.547 125.870  95.116  0.00  0.00    +0.000 A 
ATOM     26  C   UNL     1     141.352 124.766  95.947  0.00  0.00    +0.000 A 
ATOM     27  C   UNL     1     141.831 127.128  95.648  0.00  0.00    +0.000 A 
ATOM     28  C   UNL     1     143.148 125.150  91.949  0.00  0.00    +0.000 A 
ATOM     29  C   UNL     1     144.426 124.822  91.481  0.00  0.00    +0.000 A 
ENDROOT
BRANCH  11  30
ATOM     30  O   UNL     1     147.571 127.499 100.070  0.00  0.00    +0.000 OA
ATOM     31  H   UNL     1     147.105 128.280  99.714  0.00  0.00    +0.000 HD
ENDBRANCH  11  30
BRANCH  16  32
ATOM     32  O   UNL     1     147.685 126.033 102.668  0.00  0.00    +0.000 OA
ATOM     33  H   UNL     1     147.901 125.243 103.198  0.00  0.00    +0.000 HD
ENDBRANCH  16  32
BRANCH  28  34
ATOM     34  O   UNL     1     142.138 125.262  91.036  0.00  0.00    +0.000 OA
ATOM     35  H   UNL     1     141.499 125.908  91.389  0.00  0.00    +0.000 HD
ENDBRANCH  28  34
TORSDOF 3
ENDMDL
MODEL 5
REMARK VINA RESULT:      -7.1     13.910     16.621
REMARK  Name = 14132199_RiccardinD.pdbqt.pdb
REMARK  3 active torsions:
REMARK  status: ('A' for Active; 'I' for Inactive)
REMARK    1  A    between atoms: C_11  and  O_30
REMARK    2  A    between atoms: C_16  and  O_32
REMARK    3  A    between atoms: C_28  and  O_34
REMARK                            x       y       z     vdW  Elec       q    Type
REMARK                         _______ _______ _______ _____ _____    ______ ____
ROOT
ATOM      1  O   UNL     1     147.175 113.376 113.354  0.00  0.00    +0.000 OA
ATOM      2  C   UNL     1     144.849 114.103 106.841  0.00  0.00    +0.000 C 
ATOM      3  C   UNL     1     144.954 114.220 105.415  0.00  0.00    +0.000 A 
ATOM      4  C   UNL     1     146.214 114.254 104.763  0.00  0.00    +0.000 A 
ATOM      5  C   UNL     1     144.910 113.946 108.369  0.00  0.00    +0.000 C 
ATOM      6  C   UNL     1     150.345 114.099 108.582  0.00  0.00    +0.000 C 
ATOM      7  C   UNL     1     147.471 114.297 105.543  0.00  0.00    +0.000 A 
ATOM      8  C   UNL     1     149.610 114.288 107.375  0.00  0.00    +0.000 A 
ATOM      9  C   UNL     1     150.640 113.872 110.066  0.00  0.00    +0.000 C 
ATOM     10  C   UNL     1     145.185 113.787 109.760  0.00  0.00    +0.000 A 
ATOM     11  C   UNL     1     148.416 113.261 105.553  0.00  0.00    +0.000 A 
ATOM     12  C   UNL     1     150.338 113.671 111.441  0.00  0.00    +0.000 A 
ATOM     13  C   UNL     1     147.700 115.386 106.396  0.00  0.00    +0.000 A 
ATOM     14  C   UNL     1     149.466 113.239 106.473  0.00  0.00    +0.000 A 
ATOM     15  C   UNL     1     148.750 115.382 107.310  0.00  0.00    +0.000 A 
ATOM     16  C   UNL     1     146.203 114.262 103.356  0.00  0.00    +0.000 A 
ATOM     17  C   UNL     1     143.764 114.248 104.684  0.00  0.00    +0.000 A 
ATOM     18  C   UNL     1     145.012 114.309 102.631  0.00  0.00    +0.000 A 
ATOM     19  C   UNL     1     143.792 114.312 103.296  0.00  0.00    +0.000 A 
ATOM     20  C   UNL     1     148.983 113.612 111.747  0.00  0.00    +0.000 A 
ATOM     21  C   UNL     1     145.415 114.914 110.550  0.00  0.00    +0.000 A 
ATOM     22  C   UNL     1     145.435 112.511 110.267  0.00  0.00    +0.000 A 
ATOM     23  C   UNL     1     148.525 113.433 113.047  0.00  0.00    +0.000 A 
ATOM     24  C   UNL     1     151.279 113.547 112.452  0.00  0.00    +0.000 A 
ATOM     25  C   UNL     1     146.328 113.499 112.268  0.00  0.00    +0.000 A 
ATOM     26  C   UNL     1     145.978 114.773 111.817  0.00  0.00    +0.000 A 
ATOM     27  C   UNL     1     145.998 112.361 111.532  0.00  0.00    +0.000 A 
ATOM     28  C   UNL     1     149.469 113.309 114.060  0.00  0.00    +0.000 A 
ATOM     29  C   UNL     1     150.836 113.364 113.768  0.00  0.00    +0.000 A 
ENDROOT
BRANCH  11  30
ATOM     30  O   UNL     1     148.298 112.236 104.651  0.00  0.00    +0.000 OA
ATOM     31  H   UNL     1     148.491 111.399 105.116  0.00  0.00    +0.000 HD
ENDBRANCH  11  30
BRANCH  16  32
ATOM     32  O   UNL     1     147.354 114.204 102.615  0.00  0.00    +0.000 OA
ATOM     33  H   UNL     1     148.080 114.016 103.239  0.00  0.00    +0.000 HD
ENDBRANCH  16  32
BRANCH  28  34
ATOM     34  O   UNL     1     149.095 113.130 115.362  0.00  0.00    +0.000 OA
ATOM     35  H   UNL     1     148.271 112.610 115.358  0.00  0.00    +0.000 HD
ENDBRANCH  28  34
TORSDOF 3
ENDMDL
MODEL 6
REMARK VINA RESULT:      -7.0     14.991     18.335
REMARK  Name = 14132199_RiccardinD.pdbqt.pdb
REMARK  3 active torsions:
REMARK  status: ('A' for Active; 'I' for Inactive)
REMARK    1  A    between atoms: C_11  and  O_30
REMARK    2  A    between atoms: C_16  and  O_32
REMARK    3  A    between atoms: C_28  and  O_34
REMARK                            x       y       z     vdW  Elec       q    Type
REMARK                         _______ _______ _______ _____ _____    ______ ____
ROOT
ATOM      1  O   UNL     1     149.240 113.927 109.734  0.00  0.00    +0.000 OA
ATOM      2  C   UNL     1     143.422 114.621 113.480  0.00  0.00    +0.000 C 
ATOM      3  C   UNL     1     142.027 114.873 113.704  0.00  0.00    +0.000 A 
ATOM      4  C   UNL     1     141.159 115.245 112.645  0.00  0.00    +0.000 A 
ATOM      5  C   UNL     1     144.879 114.361 113.067  0.00  0.00    +0.000 C 
ATOM      6  C   UNL     1     144.084 115.732 107.862  0.00  0.00    +0.000 C 
ATOM      7  C   UNL     1     141.688 115.512 111.289  0.00  0.00    +0.000 A 
ATOM      8  C   UNL     1     143.070 115.845 108.858  0.00  0.00    +0.000 A 
ATOM      9  C   UNL     1     145.447 115.461 107.220  0.00  0.00    +0.000 C 
ATOM     10  C   UNL     1     146.163 114.158 112.478  0.00  0.00    +0.000 A 
ATOM     11  C   UNL     1     141.391 114.721 110.169  0.00  0.00    +0.000 A 
ATOM     12  C   UNL     1     146.817 115.088 107.177  0.00  0.00    +0.000 A 
ATOM     13  C   UNL     1     142.612 116.552 111.116  0.00  0.00    +0.000 A 
ATOM     14  C   UNL     1     142.088 114.866 108.967  0.00  0.00    +0.000 A 
ATOM     15  C   UNL     1     143.304 116.715 109.919  0.00  0.00    +0.000 A 
ATOM     16  C   UNL     1     139.791 115.363 112.954  0.00  0.00    +0.000 A 
ATOM     17  C   UNL     1     141.542 114.687 115.001  0.00  0.00    +0.000 A 
ATOM     18  C   UNL     1     139.315 115.195 114.253  0.00  0.00    +0.000 A 
ATOM     19  C   UNL     1     140.192 114.866 115.280  0.00  0.00    +0.000 A 
ATOM     20  C   UNL     1     147.363 114.696 108.395  0.00  0.00    +0.000 A 
ATOM     21  C   UNL     1     147.030 115.241 112.326  0.00  0.00    +0.000 A 
ATOM     22  C   UNL     1     146.451 112.936 111.868  0.00  0.00    +0.000 A 
ATOM     23  C   UNL     1     148.693 114.314 108.521  0.00  0.00    +0.000 A 
ATOM     24  C   UNL     1     147.610 115.101 106.039  0.00  0.00    +0.000 A 
ATOM     25  C   UNL     1     148.356 113.939 110.798  0.00  0.00    +0.000 A 
ATOM     26  C   UNL     1     148.140 115.132 111.491  0.00  0.00    +0.000 A 
ATOM     27  C   UNL     1     147.559 112.819 111.032  0.00  0.00    +0.000 A 
ATOM     28  C   UNL     1     149.487 114.328 107.380  0.00  0.00    +0.000 A 
ATOM     29  C   UNL     1     148.953 114.718 106.147  0.00  0.00    +0.000 A 
ENDROOT
BRANCH  11  30
ATOM     30  O   UNL     1     140.407 113.772 110.259  0.00  0.00    +0.000 OA
ATOM     31  H   UNL     1     139.748 114.079 110.910  0.00  0.00    +0.000 HD
ENDBRANCH  11  30
BRANCH  16  32
ATOM     32  O   UNL     1     138.846 115.628 111.998  0.00  0.00    +0.000 OA
ATOM     33  H   UNL     1     138.651 116.583 112.053  0.00  0.00    +0.000 HD
ENDBRANCH  16  32
BRANCH  28  34
ATOM     34  O   UNL     1     150.804 113.965 107.426  0.00  0.00    +0.000 OA
ATOM     35  H   UNL     1     150.896 113.296 108.128  0.00  0.00    +0.000 HD
ENDBRANCH  28  34
TORSDOF 3
ENDMDL
MODEL 7
REMARK VINA RESULT:      -7.0     26.255     28.617
REMARK  Name = 14132199_RiccardinD.pdbqt.pdb
REMARK  3 active torsions:
REMARK  status: ('A' for Active; 'I' for Inactive)
REMARK    1  A    between atoms: C_11  and  O_30
REMARK    2  A    between atoms: C_16  and  O_32
REMARK    3  A    between atoms: C_28  and  O_34
REMARK                            x       y       z     vdW  Elec       q    Type
REMARK                         _______ _______ _______ _____ _____    ______ ____
ROOT
ATOM      1  O   UNL     1     149.461 118.759 129.060  0.00  0.00    +0.000 OA
ATOM      2  C   UNL     1     149.050 113.757 124.246  0.00  0.00    +0.000 C 
ATOM      3  C   UNL     1     149.295 113.132 122.978  0.00  0.00    +0.000 A 
ATOM      4  C   UNL     1     150.016 113.794 121.950  0.00  0.00    +0.000 A 
ATOM      5  C   UNL     1     148.898 114.553 125.552  0.00  0.00    +0.000 C 
ATOM      6  C   UNL     1     151.378 118.993 123.617  0.00  0.00    +0.000 C 
ATOM      7  C   UNL     1     150.432 115.206 122.104  0.00  0.00    +0.000 A 
ATOM      8  C   UNL     1     151.107 117.845 122.817  0.00  0.00    +0.000 A 
ATOM      9  C   UNL     1     151.409 119.929 124.828  0.00  0.00    +0.000 C 
ATOM     10  C   UNL     1     148.881 115.446 126.665  0.00  0.00    +0.000 A 
ATOM     11  C   UNL     1     151.770 115.617 122.188  0.00  0.00    +0.000 A 
ATOM     12  C   UNL     1     151.149 120.345 126.162  0.00  0.00    +0.000 A 
ATOM     13  C   UNL     1     149.445 116.188 122.269  0.00  0.00    +0.000 A 
ATOM     14  C   UNL     1     152.112 116.918 122.563  0.00  0.00    +0.000 A 
ATOM     15  C   UNL     1     149.773 117.491 122.631  0.00  0.00    +0.000 A 
ATOM     16  C   UNL     1     150.293 113.052 120.788  0.00  0.00    +0.000 A 
ATOM     17  C   UNL     1     148.841 111.822 122.810  0.00  0.00    +0.000 A 
ATOM     18  C   UNL     1     149.821 111.750 120.617  0.00  0.00    +0.000 A 
ATOM     19  C   UNL     1     149.086 111.139 121.625  0.00  0.00    +0.000 A 
ATOM     20  C   UNL     1     150.475 119.419 126.951  0.00  0.00    +0.000 A 
ATOM     21  C   UNL     1     147.875 116.408 126.762  0.00  0.00    +0.000 A 
ATOM     22  C   UNL     1     149.981 115.492 127.523  0.00  0.00    +0.000 A 
ATOM     23  C   UNL     1     150.136 119.680 128.273  0.00  0.00    +0.000 A 
ATOM     24  C   UNL     1     151.506 121.574 126.696  0.00  0.00    +0.000 A 
ATOM     25  C   UNL     1     149.167 117.564 128.429  0.00  0.00    +0.000 A 
ATOM     26  C   UNL     1     148.009 117.468 127.656  0.00  0.00    +0.000 A 
ATOM     27  C   UNL     1     150.123 116.549 128.419  0.00  0.00    +0.000 A 
ATOM     28  C   UNL     1     150.494 120.912 128.807  0.00  0.00    +0.000 A 
ATOM     29  C   UNL     1     151.174 121.855 128.028  0.00  0.00    +0.000 A 
ENDROOT
BRANCH  11  30
ATOM     30  O   UNL     1     152.768 114.718 121.915  0.00  0.00    +0.000 OA
ATOM     31  H   UNL     1     152.378 113.975 121.415  0.00  0.00    +0.000 HD
ENDBRANCH  11  30
BRANCH  16  32
ATOM     32  O   UNL     1     151.057 113.551 119.766  0.00  0.00    +0.000 OA
ATOM     33  H   UNL     1     150.651 113.241 118.934  0.00  0.00    +0.000 HD
ENDBRANCH  16  32
BRANCH  28  34
ATOM     34  O   UNL     1     150.195 121.241 130.099  0.00  0.00    +0.000 OA
ATOM     35  H   UNL     1     150.501 122.155 130.244  0.00  0.00    +0.000 HD
ENDBRANCH  28  34
TORSDOF 3
ENDMDL
MODEL 8
REMARK VINA RESULT:      -7.0     14.777     17.667
REMARK  Name = 14132199_RiccardinD.pdbqt.pdb
REMARK  3 active torsions:
REMARK  status: ('A' for Active; 'I' for Inactive)
REMARK    1  A    between atoms: C_11  and  O_30
REMARK    2  A    between atoms: C_16  and  O_32
REMARK    3  A    between atoms: C_28  and  O_34
REMARK                            x       y       z     vdW  Elec       q    Type
REMARK                         _______ _______ _______ _____ _____    ______ ____
ROOT
ATOM      1  O   UNL     1     144.151 113.266 104.691  0.00  0.00    +0.000 OA
ATOM      2  C   UNL     1     139.134 114.235 109.408  0.00  0.00    +0.000 C 
ATOM      3  C   UNL     1     138.575 114.642 110.665  0.00  0.00    +0.000 A 
ATOM      4  C   UNL     1     139.387 115.159 111.707  0.00  0.00    +0.000 A 
ATOM      5  C   UNL     1     139.884 113.870 108.117  0.00  0.00    +0.000 C 
ATOM      6  C   UNL     1     144.792 115.059 110.143  0.00  0.00    +0.000 C 
ATOM      7  C   UNL     1     140.861 115.177 111.582  0.00  0.00    +0.000 A 
ATOM      8  C   UNL     1     143.598 115.111 110.921  0.00  0.00    +0.000 A 
ATOM      9  C   UNL     1     145.724 114.833 108.950  0.00  0.00    +0.000 C 
ATOM     10  C   UNL     1     140.760 113.610 107.021  0.00  0.00    +0.000 A 
ATOM     11  C   UNL     1     141.621 116.354 111.509  0.00  0.00    +0.000 A 
ATOM     12  C   UNL     1     146.079 114.468 107.623  0.00  0.00    +0.000 A 
ATOM     13  C   UNL     1     141.543 113.961 111.432  0.00  0.00    +0.000 A 
ATOM     14  C   UNL     1     142.973 116.330 111.160  0.00  0.00    +0.000 A 
ATOM     15  C   UNL     1     142.893 113.923 111.096  0.00  0.00    +0.000 A 
ATOM     16  C   UNL     1     138.726 115.630 112.857  0.00  0.00    +0.000 A 
ATOM     17  C   UNL     1     137.188 114.561 110.807  0.00  0.00    +0.000 A 
ATOM     18  C   UNL     1     137.342 115.528 113.002  0.00  0.00    +0.000 A 
ATOM     19  C   UNL     1     136.574 114.984 111.979  0.00  0.00    +0.000 A 
ATOM     20  C   UNL     1     145.020 114.068 106.816  0.00  0.00    +0.000 A 
ATOM     21  C   UNL     1     141.415 112.381 106.939  0.00  0.00    +0.000 A 
ATOM     22  C   UNL     1     141.118 114.655 106.168  0.00  0.00    +0.000 A 
ATOM     23  C   UNL     1     145.205 113.668 105.497  0.00  0.00    +0.000 A 
ATOM     24  C   UNL     1     147.369 114.477 107.114  0.00  0.00    +0.000 A 
ATOM     25  C   UNL     1     142.909 113.308 105.298  0.00  0.00    +0.000 A 
ATOM     26  C   UNL     1     142.489 112.221 106.066  0.00  0.00    +0.000 A 
ATOM     27  C   UNL     1     142.191 114.503 105.292  0.00  0.00    +0.000 A 
ATOM     28  C   UNL     1     146.498 113.677 104.988  0.00  0.00    +0.000 A 
ATOM     29  C   UNL     1     147.575 114.078 105.787  0.00  0.00    +0.000 A 
ENDROOT
BRANCH  11  30
ATOM     30  O   UNL     1     141.021 117.558 111.769  0.00  0.00    +0.000 OA
ATOM     31  H   UNL     1     140.151 117.382 112.176  0.00  0.00    +0.000 HD
ENDBRANCH  11  30
BRANCH  16  32
ATOM     32  O   UNL     1     139.394 116.231 113.890  0.00  0.00    +0.000 OA
ATOM     33  H   UNL     1     140.168 116.680 113.501  0.00  0.00    +0.000 HD
ENDBRANCH  16  32
BRANCH  28  34
ATOM     34  O   UNL     1     146.758 113.298 103.701  0.00  0.00    +0.000 OA
ATOM     35  H   UNL     1     146.536 112.352 103.627  0.00  0.00    +0.000 HD
ENDBRANCH  28  34
TORSDOF 3
ENDMDL
MODEL 9
REMARK VINA RESULT:      -7.0     14.332     18.095
REMARK  Name = 14132199_RiccardinD.pdbqt.pdb
REMARK  3 active torsions:
REMARK  status: ('A' for Active; 'I' for Inactive)
REMARK    1  A    between atoms: C_11  and  O_30
REMARK    2  A    between atoms: C_16  and  O_32
REMARK    3  A    between atoms: C_28  and  O_34
REMARK                            x       y       z     vdW  Elec       q    Type
REMARK                         _______ _______ _______ _____ _____    ______ ____
ROOT
ATOM      1  O   UNL     1     146.327 114.583 105.769  0.00  0.00    +0.000 OA
ATOM      2  C   UNL     1     141.241 114.858 110.504  0.00  0.00    +0.000 C 
ATOM      3  C   UNL     1     140.676 114.932 111.820  0.00  0.00    +0.000 A 
ATOM      4  C   UNL     1     141.493 114.931 112.981  0.00  0.00    +0.000 A 
ATOM      5  C   UNL     1     142.004 114.802 109.170  0.00  0.00    +0.000 C 
ATOM      6  C   UNL     1     146.897 114.379 111.512  0.00  0.00    +0.000 C 
ATOM      7  C   UNL     1     142.955 114.725 112.879  0.00  0.00    +0.000 A 
ATOM      8  C   UNL     1     145.680 114.389 112.254  0.00  0.00    +0.000 A 
ATOM      9  C   UNL     1     147.855 114.387 110.318  0.00  0.00    +0.000 C 
ATOM     10  C   UNL     1     142.894 114.757 108.056  0.00  0.00    +0.000 A 
ATOM     11  C   UNL     1     143.902 115.707 113.204  0.00  0.00    +0.000 A 
ATOM     12  C   UNL     1     148.231 114.412 108.947  0.00  0.00    +0.000 A 
ATOM     13  C   UNL     1     143.433 113.521 112.343  0.00  0.00    +0.000 A 
ATOM     14  C   UNL     1     145.252 115.557 112.877  0.00  0.00    +0.000 A 
ATOM     15  C   UNL     1     144.777 113.354 112.024  0.00  0.00    +0.000 A 
ATOM     16  C   UNL     1     140.845 115.116 114.216  0.00  0.00    +0.000 A 
ATOM     17  C   UNL     1     139.288 115.057 111.917  0.00  0.00    +0.000 A 
ATOM     18  C   UNL     1     139.457 115.221 114.309  0.00  0.00    +0.000 A 
ATOM     19  C   UNL     1     138.678 115.182 113.159  0.00  0.00    +0.000 A 
ATOM     20  C   UNL     1     147.175 114.489 108.045  0.00  0.00    +0.000 A 
ATOM     21  C   UNL     1     143.340 113.523 107.579  0.00  0.00    +0.000 A 
ATOM     22  C   UNL     1     143.476 115.939 107.597  0.00  0.00    +0.000 A 
ATOM     23  C   UNL     1     147.377 114.509 106.670  0.00  0.00    +0.000 A 
ATOM     24  C   UNL     1     149.535 114.354 108.479  0.00  0.00    +0.000 A 
ATOM     25  C   UNL     1     145.072 114.648 106.346  0.00  0.00    +0.000 A 
ATOM     26  C   UNL     1     144.427 113.465 106.711  0.00  0.00    +0.000 A 
ATOM     27  C   UNL     1     144.564 115.890 106.728  0.00  0.00    +0.000 A 
ATOM     28  C   UNL     1     148.685 114.451 106.202  0.00  0.00    +0.000 A 
ATOM     29  C   UNL     1     149.758 114.375 107.096  0.00  0.00    +0.000 A 
ENDROOT
BRANCH  11  30
ATOM     30  O   UNL     1     143.495 116.850 113.840  0.00  0.00    +0.000 OA
ATOM     31  H   UNL     1     142.949 116.592 114.608  0.00  0.00    +0.000 HD
ENDBRANCH  11  30
BRANCH  16  32
ATOM     32  O   UNL     1     141.534 115.223 115.395  0.00  0.00    +0.000 OA
ATOM     33  H   UNL     1     141.826 116.152 115.467  0.00  0.00    +0.000 HD
ENDBRANCH  16  32
BRANCH  28  34
ATOM     34  O   UNL     1     148.962 114.467 104.864  0.00  0.00    +0.000 OA
ATOM     35  H   UNL     1     148.669 115.329 104.517  0.00  0.00    +0.000 HD
ENDBRANCH  28  34
TORSDOF 3
ENDMDL
