MODEL 1
REMARK VINA RESULT:      -4.7      0.000      0.000
REMARK  Name = 146026348_FluorouracilMononitrate.pdbqt.pdb
REMARK  2 active torsions:
REMARK  status: ('A' for Active; 'I' for Inactive)
REMARK    1  A    between atoms: N_4  and  O_10
REMARK    2  A    between atoms: O_10  and  N_13
REMARK                            x       y       z     vdW  Elec       q    Type
REMARK                         _______ _______ _______ _____ _____    ______ ____
ROOT
ATOM      1  F   UNL     1     147.028 128.576 101.549  0.00  0.00    +0.000 F 
ATOM      2  O   UNL     1     145.018 127.133 100.250  0.00  0.00    +0.000 OA
ATOM      3  O   UNL     1     143.520 125.819 104.482  0.00  0.00    +0.000 OA
ATOM      4  N   UNL     1     144.331 126.321 102.336  0.00  0.00    +0.000 N 
ATOM      5  N   UNL     1     146.195 127.746 102.196  0.00  0.00    +0.000 N 
ATOM      6  C   UNL     1     145.175 127.067 101.466  0.00  0.00    +0.000 A 
ATOM      7  C   UNL     1     144.335 126.329 103.731  0.00  0.00    +0.000 A 
ATOM      8  C   UNL     1     145.453 127.098 104.228  0.00  0.00    +0.000 A 
ATOM      9  C   UNL     1     146.227 127.692 103.541  0.00  0.00    +0.000 A 
ENDROOT
BRANCH   4  10
ATOM     10  O   UNL     1     143.235 125.688 101.722  0.00  0.00    +0.000 OA
BRANCH  10  13
ATOM     11  O   UNL     1     144.248 123.681 101.803  0.00  0.00    +0.000 OA
ATOM     12  O   UNL     1     143.039 124.282 100.020  0.00  0.00    +0.000 OA
ATOM     13  N   UNL     1     143.541 124.436 101.131  0.00  0.00    +0.000 N 
ENDBRANCH  10  13
ENDBRANCH   4  10
TORSDOF 2
ENDMDL
MODEL 2
REMARK VINA RESULT:      -4.6      4.101      5.364
REMARK  Name = 146026348_FluorouracilMononitrate.pdbqt.pdb
REMARK  2 active torsions:
REMARK  status: ('A' for Active; 'I' for Inactive)
REMARK    1  A    between atoms: N_4  and  O_10
REMARK    2  A    between atoms: O_10  and  N_13
REMARK                            x       y       z     vdW  Elec       q    Type
REMARK                         _______ _______ _______ _____ _____    ______ ____
ROOT
ATOM      1  F   UNL     1     138.383 125.418 101.192  0.00  0.00    +0.000 F 
ATOM      2  O   UNL     1     140.422 127.027 102.223  0.00  0.00    +0.000 OA
ATOM      3  O   UNL     1     143.419 124.499  99.673  0.00  0.00    +0.000 OA
ATOM      4  N   UNL     1     141.973 125.690 101.091  0.00  0.00    +0.000 N 
ATOM      5  N   UNL     1     139.684 125.170 100.976  0.00  0.00    +0.000 N 
ATOM      6  C   UNL     1     140.664 126.055 101.513  0.00  0.00    +0.000 A 
ATOM      7  C   UNL     1     142.319 124.713 100.156  0.00  0.00    +0.000 A 
ATOM      8  C   UNL     1     141.150 123.965  99.754  0.00  0.00    +0.000 A 
ATOM      9  C   UNL     1     140.039 124.189 100.125  0.00  0.00    +0.000 A 
ENDROOT
BRANCH   4  10
ATOM     10  O   UNL     1     143.005 126.557 101.492  0.00  0.00    +0.000 OA
BRANCH  10  13
ATOM     11  O   UNL     1     143.224 126.684 103.727  0.00  0.00    +0.000 OA
ATOM     12  O   UNL     1     144.568 125.368 102.519  0.00  0.00    +0.000 OA
ATOM     13  N   UNL     1     143.657 126.174 102.691  0.00  0.00    +0.000 N 
ENDBRANCH  10  13
ENDBRANCH   4  10
TORSDOF 2
ENDMDL
MODEL 3
REMARK VINA RESULT:      -4.5      1.902      2.126
REMARK  Name = 146026348_FluorouracilMononitrate.pdbqt.pdb
REMARK  2 active torsions:
REMARK  status: ('A' for Active; 'I' for Inactive)
REMARK    1  A    between atoms: N_4  and  O_10
REMARK    2  A    between atoms: O_10  and  N_13
REMARK                            x       y       z     vdW  Elec       q    Type
REMARK                         _______ _______ _______ _____ _____    ______ ____
ROOT
ATOM      1  F   UNL     1     148.748 125.529 102.974  0.00  0.00    +0.000 F 
ATOM      2  O   UNL     1     147.031 124.438 101.059  0.00  0.00    +0.000 OA
ATOM      3  O   UNL     1     144.006 127.837 102.141  0.00  0.00    +0.000 OA
ATOM      4  N   UNL     1     145.423 126.022 101.680  0.00  0.00    +0.000 N 
ATOM      5  N   UNL     1     147.488 125.957 102.800  0.00  0.00    +0.000 N 
ATOM      6  C   UNL     1     146.683 125.369 101.781  0.00  0.00    +0.000 A 
ATOM      7  C   UNL     1     145.017 127.184 102.338  0.00  0.00    +0.000 A 
ATOM      8  C   UNL     1     146.011 127.589 103.305  0.00  0.00    +0.000 A 
ATOM      9  C   UNL     1     147.057 127.040 103.474  0.00  0.00    +0.000 A 
ENDROOT
BRANCH   4  10
ATOM     10  O   UNL     1     144.589 125.575 100.639  0.00  0.00    +0.000 OA
BRANCH  10  13
ATOM     11  O   UNL     1     143.970 123.629 101.579  0.00  0.00    +0.000 OA
ATOM     12  O   UNL     1     142.439 125.071 100.819  0.00  0.00    +0.000 OA
ATOM     13  N   UNL     1     143.578 124.671 101.049  0.00  0.00    +0.000 N 
ENDBRANCH  10  13
ENDBRANCH   4  10
TORSDOF 2
ENDMDL
MODEL 4
REMARK VINA RESULT:      -4.4      2.210      3.436
REMARK  Name = 146026348_FluorouracilMononitrate.pdbqt.pdb
REMARK  2 active torsions:
REMARK  status: ('A' for Active; 'I' for Inactive)
REMARK    1  A    between atoms: N_4  and  O_10
REMARK    2  A    between atoms: O_10  and  N_13
REMARK                            x       y       z     vdW  Elec       q    Type
REMARK                         _______ _______ _______ _____ _____    ______ ____
ROOT
ATOM      1  F   UNL     1     147.091 128.755 102.302  0.00  0.00    +0.000 F 
ATOM      2  O   UNL     1     146.160 126.159 102.750  0.00  0.00    +0.000 OA
ATOM      3  O   UNL     1     146.865 125.347  98.198  0.00  0.00    +0.000 OA
ATOM      4  N   UNL     1     146.344 125.756 100.451  0.00  0.00    +0.000 N 
ATOM      5  N   UNL     1     146.868 127.881 101.308  0.00  0.00    +0.000 N 
ATOM      6  C   UNL     1     146.420 126.564 101.620  0.00  0.00    +0.000 A 
ATOM      7  C   UNL     1     146.781 126.084  99.167  0.00  0.00    +0.000 A 
ATOM      8  C   UNL     1     147.201 127.465  99.113  0.00  0.00    +0.000 A 
ATOM      9  C   UNL     1     147.225 128.204 100.050  0.00  0.00    +0.000 A 
ENDROOT
BRANCH   4  10
ATOM     10  O   UNL     1     146.000 124.409 100.665  0.00  0.00    +0.000 OA
BRANCH  10  13
ATOM     11  O   UNL     1     144.210 123.593 101.755  0.00  0.00    +0.000 OA
ATOM     12  O   UNL     1     143.984 124.582  99.761  0.00  0.00    +0.000 OA
ATOM     13  N   UNL     1     144.606 124.168 100.737  0.00  0.00    +0.000 N 
ENDBRANCH  10  13
ENDBRANCH   4  10
TORSDOF 2
ENDMDL
MODEL 5
REMARK VINA RESULT:      -4.4      3.416      4.555
REMARK  Name = 146026348_FluorouracilMononitrate.pdbqt.pdb
REMARK  2 active torsions:
REMARK  status: ('A' for Active; 'I' for Inactive)
REMARK    1  A    between atoms: N_4  and  O_10
REMARK    2  A    between atoms: O_10  and  N_13
REMARK                            x       y       z     vdW  Elec       q    Type
REMARK                         _______ _______ _______ _____ _____    ______ ____
ROOT
ATOM      1  F   UNL     1     141.170 124.172  98.474  0.00  0.00    +0.000 F 
ATOM      2  O   UNL     1     141.252 126.344 100.230  0.00  0.00    +0.000 OA
ATOM      3  O   UNL     1     145.398 124.740 101.686  0.00  0.00    +0.000 OA
ATOM      4  N   UNL     1     143.250 125.492 101.102  0.00  0.00    +0.000 N 
ATOM      5  N   UNL     1     142.121 124.314  99.410  0.00  0.00    +0.000 N 
ATOM      6  C   UNL     1     142.111 125.466 100.250  0.00  0.00    +0.000 A 
ATOM      7  C   UNL     1     144.350 124.633 101.070  0.00  0.00    +0.000 A 
ATOM      8  C   UNL     1     144.124 123.560 100.130  0.00  0.00    +0.000 A 
ATOM      9  C   UNL     1     143.158 123.457  99.436  0.00  0.00    +0.000 A 
ENDROOT
BRANCH   4  10
ATOM     10  O   UNL     1     143.382 126.639 101.907  0.00  0.00    +0.000 OA
BRANCH  10  13
ATOM     11  O   UNL     1     143.341 125.873 104.021  0.00  0.00    +0.000 OA
ATOM     12  O   UNL     1     141.685 127.154 103.235  0.00  0.00    +0.000 OA
ATOM     13  N   UNL     1     142.747 126.540 103.170  0.00  0.00    +0.000 N 
ENDBRANCH  10  13
ENDBRANCH   4  10
TORSDOF 2
ENDMDL
MODEL 6
REMARK VINA RESULT:      -4.3      2.866      4.146
REMARK  Name = 146026348_FluorouracilMononitrate.pdbqt.pdb
REMARK  2 active torsions:
REMARK  status: ('A' for Active; 'I' for Inactive)
REMARK    1  A    between atoms: N_4  and  O_10
REMARK    2  A    between atoms: O_10  and  N_13
REMARK                            x       y       z     vdW  Elec       q    Type
REMARK                         _______ _______ _______ _____ _____    ______ ____
ROOT
ATOM      1  F   UNL     1     141.286 127.027 101.357  0.00  0.00    +0.000 F 
ATOM      2  O   UNL     1     143.290 128.296 102.835  0.00  0.00    +0.000 OA
ATOM      3  O   UNL     1     146.143 124.816 101.560  0.00  0.00    +0.000 OA
ATOM      4  N   UNL     1     144.706 126.495 102.356  0.00  0.00    +0.000 N 
ATOM      5  N   UNL     1     142.488 126.473 101.578  0.00  0.00    +0.000 N 
ATOM      6  C   UNL     1     143.469 127.196 102.318  0.00  0.00    +0.000 A 
ATOM      7  C   UNL     1     145.042 125.334 101.657  0.00  0.00    +0.000 A 
ATOM      8  C   UNL     1     143.885 124.804 100.975  0.00  0.00    +0.000 A 
ATOM      9  C   UNL     1     142.809 125.318 100.963  0.00  0.00    +0.000 A 
ENDROOT
BRANCH   4  10
ATOM     10  O   UNL     1     145.768 127.170 102.985  0.00  0.00    +0.000 OA
BRANCH  10  13
ATOM     11  O   UNL     1     145.163 126.435 105.023  0.00  0.00    +0.000 OA
ATOM     12  O   UNL     1     147.316 126.504 104.424  0.00  0.00    +0.000 OA
ATOM     13  N   UNL     1     146.108 126.660 104.262  0.00  0.00    +0.000 N 
ENDBRANCH  10  13
ENDBRANCH   4  10
TORSDOF 2
ENDMDL
MODEL 7
REMARK VINA RESULT:      -4.3      2.264      3.250
REMARK  Name = 146026348_FluorouracilMononitrate.pdbqt.pdb
REMARK  2 active torsions:
REMARK  status: ('A' for Active; 'I' for Inactive)
REMARK    1  A    between atoms: N_4  and  O_10
REMARK    2  A    between atoms: O_10  and  N_13
REMARK                            x       y       z     vdW  Elec       q    Type
REMARK                         _______ _______ _______ _____ _____    ______ ____
ROOT
ATOM      1  F   UNL     1     148.455 126.858  99.922  0.00  0.00    +0.000 F 
ATOM      2  O   UNL     1     147.418 125.318 102.010  0.00  0.00    +0.000 OA
ATOM      3  O   UNL     1     143.235 127.154 101.004  0.00  0.00    +0.000 OA
ATOM      4  N   UNL     1     145.338 126.330 101.648  0.00  0.00    +0.000 N 
ATOM      5  N   UNL     1     147.190 126.976 100.352  0.00  0.00    +0.000 N 
ATOM      6  C   UNL     1     146.726 126.133 101.405  0.00  0.00    +0.000 A 
ATOM      7  C   UNL     1     144.450 127.103 100.899  0.00  0.00    +0.000 A 
ATOM      8  C   UNL     1     145.160 127.848  99.886  0.00  0.00    +0.000 A 
ATOM      9  C   UNL     1     146.333 127.767  99.681  0.00  0.00    +0.000 A 
ENDROOT
BRANCH   4  10
ATOM     10  O   UNL     1     144.763 125.477 102.607  0.00  0.00    +0.000 OA
BRANCH  10  13
ATOM     11  O   UNL     1     145.380 126.595 104.459  0.00  0.00    +0.000 OA
ATOM     12  O   UNL     1     143.232 126.098 104.085  0.00  0.00    +0.000 OA
ATOM     13  N   UNL     1     144.434 126.113 103.830  0.00  0.00    +0.000 N 
ENDBRANCH  10  13
ENDBRANCH   4  10
TORSDOF 2
ENDMDL
MODEL 8
REMARK VINA RESULT:      -4.3      2.350      3.009
REMARK  Name = 146026348_FluorouracilMononitrate.pdbqt.pdb
REMARK  2 active torsions:
REMARK  status: ('A' for Active; 'I' for Inactive)
REMARK    1  A    between atoms: N_4  and  O_10
REMARK    2  A    between atoms: O_10  and  N_13
REMARK                            x       y       z     vdW  Elec       q    Type
REMARK                         _______ _______ _______ _____ _____    ______ ____
ROOT
ATOM      1  F   UNL     1     146.125 125.135  99.198  0.00  0.00    +0.000 F 
ATOM      2  O   UNL     1     144.078 126.641 100.361  0.00  0.00    +0.000 OA
ATOM      3  O   UNL     1     146.794 127.018 104.150  0.00  0.00    +0.000 OA
ATOM      4  N   UNL     1     145.333 126.720 102.335  0.00  0.00    +0.000 N 
ATOM      5  N   UNL     1     146.149 125.526 100.482  0.00  0.00    +0.000 N 
ATOM      6  C   UNL     1     145.079 126.317 100.994  0.00  0.00    +0.000 A 
ATOM      7  C   UNL     1     146.511 126.542 103.063  0.00  0.00    +0.000 A 
ATOM      8  C   UNL     1     147.442 125.722 102.323  0.00  0.00    +0.000 A 
ATOM      9  C   UNL     1     147.253 125.306 101.221  0.00  0.00    +0.000 A 
ENDROOT
BRANCH   4  10
ATOM     10  O   UNL     1     144.378 127.584 102.901  0.00  0.00    +0.000 OA
BRANCH  10  13
ATOM     11  O   UNL     1     143.494 126.011 104.243  0.00  0.00    +0.000 OA
ATOM     12  O   UNL     1     142.177 127.378 103.060  0.00  0.00    +0.000 OA
ATOM     13  N   UNL     1     143.251 126.926 103.452  0.00  0.00    +0.000 N 
ENDBRANCH  10  13
ENDBRANCH   4  10
TORSDOF 2
ENDMDL
MODEL 9
REMARK VINA RESULT:      -4.2      2.929      4.040
REMARK  Name = 146026348_FluorouracilMononitrate.pdbqt.pdb
REMARK  2 active torsions:
REMARK  status: ('A' for Active; 'I' for Inactive)
REMARK    1  A    between atoms: N_4  and  O_10
REMARK    2  A    between atoms: O_10  and  N_13
REMARK                            x       y       z     vdW  Elec       q    Type
REMARK                         _______ _______ _______ _____ _____    ______ ____
ROOT
ATOM      1  F   UNL     1     146.742 124.976  98.336  0.00  0.00    +0.000 F 
ATOM      2  O   UNL     1     146.652 124.218 101.024  0.00  0.00    +0.000 OA
ATOM      3  O   UNL     1     146.897 128.764 102.096  0.00  0.00    +0.000 OA
ATOM      4  N   UNL     1     146.935 126.466 101.610  0.00  0.00    +0.000 N 
ATOM      5  N   UNL     1     146.917 125.846  99.343  0.00  0.00    +0.000 N 
ATOM      6  C   UNL     1     146.827 125.386 100.690  0.00  0.00    +0.000 A 
ATOM      7  C   UNL     1     146.963 127.830 101.314  0.00  0.00    +0.000 A 
ATOM      8  C   UNL     1     147.034 128.035  99.886  0.00  0.00    +0.000 A 
ATOM      9  C   UNL     1     147.011 127.161  99.073  0.00  0.00    +0.000 A 
ENDROOT
BRANCH   4  10
ATOM     10  O   UNL     1     146.765 126.129 102.965  0.00  0.00    +0.000 OA
BRANCH  10  13
ATOM     11  O   UNL     1     144.529 125.918 102.850  0.00  0.00    +0.000 OA
ATOM     12  O   UNL     1     145.485 127.093 104.495  0.00  0.00    +0.000 OA
ATOM     13  N   UNL     1     145.473 126.405 103.477  0.00  0.00    +0.000 N 
ENDBRANCH  10  13
ENDBRANCH   4  10
TORSDOF 2
ENDMDL
