MODEL 1
REMARK VINA RESULT:      -8.6      0.000      0.000
REMARK  Name = 179268_Nortopsentin.pdbqt.pdb
REMARK  2 active torsions:
REMARK  status: ('A' for Active; 'I' for Inactive)
REMARK    1  A    between atoms: C_3  and  C_9
REMARK    2  A    between atoms: C_4  and  C_20
REMARK                            x       y       z     vdW  Elec       q    Type
REMARK                         _______ _______ _______ _____ _____    ______ ____
ROOT
ATOM      1  N   UNL     1     138.322 122.666 134.047  0.00  0.00    +0.000 N 
ATOM      2  N   UNL     1     137.552 124.074 132.524  0.00  0.00    +0.000 NA
ATOM      3  C   UNL     1     139.266 123.650 133.939  0.00  0.00    +0.000 A 
ATOM      4  C   UNL     1     137.303 122.958 133.177  0.00  0.00    +0.000 A 
ATOM      5  C   UNL     1     138.768 124.513 132.988  0.00  0.00    +0.000 A 
ATOM      6  H   UNL     1     138.357 121.862 134.655  0.00  0.00    +0.000 HD
ENDROOT
BRANCH   3   9
ATOM      7 BR   UNL     1     145.715 120.689 135.451  0.00  0.00    +0.000 Br
ATOM      8  N   UNL     1     142.088 124.573 136.043  0.00  0.00    +0.000 N 
ATOM      9  C   UNL     1     140.537 123.753 134.683  0.00  0.00    +0.000 A 
ATOM     10  C   UNL     1     141.642 122.854 134.687  0.00  0.00    +0.000 A 
ATOM     11  C   UNL     1     142.600 123.395 135.550  0.00  0.00    +0.000 A 
ATOM     12  C   UNL     1     140.844 124.796 135.525  0.00  0.00    +0.000 A 
ATOM     13  C   UNL     1     141.930 121.632 134.047  0.00  0.00    +0.000 A 
ATOM     14  C   UNL     1     143.830 122.778 135.806  0.00  0.00    +0.000 A 
ATOM     15  C   UNL     1     143.150 121.001 134.287  0.00  0.00    +0.000 A 
ATOM     16  C   UNL     1     144.076 121.571 135.151  0.00  0.00    +0.000 A 
ATOM     17  H   UNL     1     142.562 125.185 136.693  0.00  0.00    +0.000 HD
ENDBRANCH   3   9
BRANCH   4  20
ATOM     18 BR   UNL     1     131.260 120.357 136.216  0.00  0.00    +0.000 Br
ATOM     19  N   UNL     1     134.577 120.808 132.046  0.00  0.00    +0.000 N 
ATOM     20  C   UNL     1     136.086 122.125 133.000  0.00  0.00    +0.000 A 
ATOM     21  C   UNL     1     135.066 121.859 133.955  0.00  0.00    +0.000 A 
ATOM     22  C   UNL     1     134.132 121.029 133.329  0.00  0.00    +0.000 A 
ATOM     23  C   UNL     1     135.759 121.466 131.837  0.00  0.00    +0.000 A 
ATOM     24  C   UNL     1     134.840 122.240 135.292  0.00  0.00    +0.000 A 
ATOM     25  C   UNL     1     132.982 120.559 133.970  0.00  0.00    +0.000 A 
ATOM     26  C   UNL     1     133.698 121.781 135.951  0.00  0.00    +0.000 A 
ATOM     27  C   UNL     1     132.793 120.958 135.294  0.00  0.00    +0.000 A 
ATOM     28  H   UNL     1     134.099 120.240 131.359  0.00  0.00    +0.000 HD
ENDBRANCH   4  20
TORSDOF 2
ENDMDL
MODEL 2
REMARK VINA RESULT:      -8.5      0.495      8.510
REMARK  Name = 179268_Nortopsentin.pdbqt.pdb
REMARK  2 active torsions:
REMARK  status: ('A' for Active; 'I' for Inactive)
REMARK    1  A    between atoms: C_3  and  C_9
REMARK    2  A    between atoms: C_4  and  C_20
REMARK                            x       y       z     vdW  Elec       q    Type
REMARK                         _______ _______ _______ _____ _____    ______ ____
ROOT
ATOM      1  N   UNL     1     138.356 122.834 134.280  0.00  0.00    +0.000 N 
ATOM      2  N   UNL     1     138.682 124.869 133.478  0.00  0.00    +0.000 NA
ATOM      3  C   UNL     1     137.255 123.114 133.518  0.00  0.00    +0.000 A 
ATOM      4  C   UNL     1     139.194 123.919 134.231  0.00  0.00    +0.000 A 
ATOM      5  C   UNL     1     137.478 124.382 133.030  0.00  0.00    +0.000 A 
ATOM      6  H   UNL     1     138.534 121.984 134.793  0.00  0.00    +0.000 HD
ENDROOT
BRANCH   3   9
ATOM      7 BR   UNL     1     131.130 120.248 136.147  0.00  0.00    +0.000 Br
ATOM      8  N   UNL     1     134.710 120.859 132.222  0.00  0.00    +0.000 N 
ATOM      9  C   UNL     1     136.090 122.239 133.279  0.00  0.00    +0.000 A 
ATOM     10  C   UNL     1     135.017 121.925 134.162  0.00  0.00    +0.000 A 
ATOM     11  C   UNL     1     134.166 121.057 133.471  0.00  0.00    +0.000 A 
ATOM     12  C   UNL     1     135.871 121.570 132.099  0.00  0.00    +0.000 A 
ATOM     13  C   UNL     1     134.677 122.288 135.480  0.00  0.00    +0.000 A 
ATOM     14  C   UNL     1     132.995 120.533 134.029  0.00  0.00    +0.000 A 
ATOM     15  C   UNL     1     133.514 121.778 136.056  0.00  0.00    +0.000 A 
ATOM     16  C   UNL     1     132.695 120.917 135.336  0.00  0.00    +0.000 A 
ATOM     17  H   UNL     1     134.310 120.275 131.500  0.00  0.00    +0.000 HD
ENDBRANCH   3   9
BRANCH   4  20
ATOM     18 BR   UNL     1     145.584 120.752 135.518  0.00  0.00    +0.000 Br
ATOM     19  N   UNL     1     142.138 124.782 136.211  0.00  0.00    +0.000 N 
ATOM     20  C   UNL     1     140.500 124.003 134.932  0.00  0.00    +0.000 A 
ATOM     21  C   UNL     1     141.568 123.064 134.902  0.00  0.00    +0.000 A 
ATOM     22  C   UNL     1     142.582 123.578 135.714  0.00  0.00    +0.000 A 
ATOM     23  C   UNL     1     140.879 125.048 135.744  0.00  0.00    +0.000 A 
ATOM     24  C   UNL     1     141.777 121.825 134.265  0.00  0.00    +0.000 A 
ATOM     25  C   UNL     1     143.797 122.918 135.923  0.00  0.00    +0.000 A 
ATOM     26  C   UNL     1     142.983 121.148 134.462  0.00  0.00    +0.000 A 
ATOM     27  C   UNL     1     143.966 121.693 135.276  0.00  0.00    +0.000 A 
ATOM     28  H   UNL     1     142.666 125.380 136.831  0.00  0.00    +0.000 HD
ENDBRANCH   4  20
TORSDOF 2
ENDMDL
MODEL 3
REMARK VINA RESULT:      -7.6     35.592     37.054
REMARK  Name = 179268_Nortopsentin.pdbqt.pdb
REMARK  2 active torsions:
REMARK  status: ('A' for Active; 'I' for Inactive)
REMARK    1  A    between atoms: C_3  and  C_9
REMARK    2  A    between atoms: C_4  and  C_20
REMARK                            x       y       z     vdW  Elec       q    Type
REMARK                         _______ _______ _______ _____ _____    ______ ____
ROOT
ATOM      1  N   UNL     1     145.070 126.346  98.391  0.00  0.00    +0.000 N 
ATOM      2  N   UNL     1     145.663 125.397 100.299  0.00  0.00    +0.000 NA
ATOM      3  C   UNL     1     146.231 126.963  98.768  0.00  0.00    +0.000 A 
ATOM      4  C   UNL     1     144.760 125.407  99.341  0.00  0.00    +0.000 A 
ATOM      5  C   UNL     1     146.582 126.359  99.954  0.00  0.00    +0.000 A 
ATOM      6  H   UNL     1     144.527 126.537  97.563  0.00  0.00    +0.000 HD
ENDROOT
BRANCH   3   9
ATOM      7 BR   UNL     1     149.889 128.966  92.830  0.00  0.00    +0.000 Br
ATOM      8  N   UNL     1     147.801 130.043  97.633  0.00  0.00    +0.000 N 
ATOM      9  C   UNL     1     146.943 128.040  98.050  0.00  0.00    +0.000 A 
ATOM     10  C   UNL     1     147.574 127.993  96.775  0.00  0.00    +0.000 A 
ATOM     11  C   UNL     1     148.104 129.266  96.540  0.00  0.00    +0.000 A 
ATOM     12  C   UNL     1     147.100 129.311  98.550  0.00  0.00    +0.000 A 
ATOM     13  C   UNL     1     147.753 127.001  95.791  0.00  0.00    +0.000 A 
ATOM     14  C   UNL     1     148.803 129.597  95.373  0.00  0.00    +0.000 A 
ATOM     15  C   UNL     1     148.446 127.309  94.620  0.00  0.00    +0.000 A 
ATOM     16  C   UNL     1     148.957 128.586  94.425  0.00  0.00    +0.000 A 
ATOM     17  H   UNL     1     148.058 131.015  97.745  0.00  0.00    +0.000 HD
ENDBRANCH   3   9
BRANCH   4  20
ATOM     18 BR   UNL     1     137.813 124.514 101.199  0.00  0.00    +0.000 Br
ATOM     19  N   UNL     1     142.282 122.774  98.833  0.00  0.00    +0.000 N 
ATOM     20  C   UNL     1     143.567 124.524  99.291  0.00  0.00    +0.000 A 
ATOM     21  C   UNL     1     142.279 124.766  99.843  0.00  0.00    +0.000 A 
ATOM     22  C   UNL     1     141.492 123.652  99.540  0.00  0.00    +0.000 A 
ATOM     23  C   UNL     1     143.539 123.292  98.677  0.00  0.00    +0.000 A 
ATOM     24  C   UNL     1     141.698 125.824 100.570  0.00  0.00    +0.000 A 
ATOM     25  C   UNL     1     140.154 123.538  99.927  0.00  0.00    +0.000 A 
ATOM     26  C   UNL     1     140.363 125.730 100.967  0.00  0.00    +0.000 A 
ATOM     27  C   UNL     1     139.615 124.605 100.646  0.00  0.00    +0.000 A 
ATOM     28  H   UNL     1     141.975 121.878  98.481  0.00  0.00    +0.000 HD
ENDBRANCH   4  20
TORSDOF 2
ENDMDL
MODEL 4
REMARK VINA RESULT:      -7.3     35.197     36.807
REMARK  Name = 179268_Nortopsentin.pdbqt.pdb
REMARK  2 active torsions:
REMARK  status: ('A' for Active; 'I' for Inactive)
REMARK    1  A    between atoms: C_3  and  C_9
REMARK    2  A    between atoms: C_4  and  C_20
REMARK                            x       y       z     vdW  Elec       q    Type
REMARK                         _______ _______ _______ _____ _____    ______ ____
ROOT
ATOM      1  N   UNL     1     146.228 127.144  98.711  0.00  0.00    +0.000 N 
ATOM      2  N   UNL     1     147.003 128.466 100.307  0.00  0.00    +0.000 NA
ATOM      3  C   UNL     1     147.223 127.882  98.132  0.00  0.00    +0.000 A 
ATOM      4  C   UNL     1     146.125 127.526 100.025  0.00  0.00    +0.000 A 
ATOM      5  C   UNL     1     147.690 128.695  99.140  0.00  0.00    +0.000 A 
ATOM      6  H   UNL     1     145.661 126.440  98.264  0.00  0.00    +0.000 HD
ENDROOT
BRANCH   3   9
ATOM      7 BR   UNL     1     148.773 123.693  92.414  0.00  0.00    +0.000 Br
ATOM      8  N   UNL     1     148.410 128.491  94.747  0.00  0.00    +0.000 N 
ATOM      9  C   UNL     1     147.686 127.812  96.732  0.00  0.00    +0.000 A 
ATOM     10  C   UNL     1     147.862 126.663  95.909  0.00  0.00    +0.000 A 
ATOM     11  C   UNL     1     148.317 127.121  94.668  0.00  0.00    +0.000 A 
ATOM     12  C   UNL     1     148.031 128.916  95.989  0.00  0.00    +0.000 A 
ATOM     13  C   UNL     1     147.682 125.277  96.087  0.00  0.00    +0.000 A 
ATOM     14  C   UNL     1     148.601 126.265  93.598  0.00  0.00    +0.000 A 
ATOM     15  C   UNL     1     147.958 124.406  95.033  0.00  0.00    +0.000 A 
ATOM     16  C   UNL     1     148.409 124.901  93.816  0.00  0.00    +0.000 A 
ATOM     17  H   UNL     1     148.714 129.097  93.996  0.00  0.00    +0.000 HD
ENDBRANCH   3   9
BRANCH   4  20
ATOM     18 BR   UNL     1     144.798 125.742 106.922  0.00  0.00    +0.000 Br
ATOM     19  N   UNL     1     143.297 126.047 101.798  0.00  0.00    +0.000 N 
ATOM     20  C   UNL     1     145.155 126.954 100.992  0.00  0.00    +0.000 A 
ATOM     21  C   UNL     1     145.325 126.771 102.393  0.00  0.00    +0.000 A 
ATOM     22  C   UNL     1     144.143 126.200 102.873  0.00  0.00    +0.000 A 
ATOM     23  C   UNL     1     143.900 126.499 100.656  0.00  0.00    +0.000 A 
ATOM     24  C   UNL     1     146.365 127.036 103.305  0.00  0.00    +0.000 A 
ATOM     25  C   UNL     1     143.946 125.878 104.219  0.00  0.00    +0.000 A 
ATOM     26  C   UNL     1     146.190 126.720 104.654  0.00  0.00    +0.000 A 
ATOM     27  C   UNL     1     145.000 126.154 105.091  0.00  0.00    +0.000 A 
ATOM     28  H   UNL     1     142.366 125.656 101.849  0.00  0.00    +0.000 HD
ENDBRANCH   4  20
TORSDOF 2
ENDMDL
MODEL 5
REMARK VINA RESULT:      -7.3      4.619      6.664
REMARK  Name = 179268_Nortopsentin.pdbqt.pdb
REMARK  2 active torsions:
REMARK  status: ('A' for Active; 'I' for Inactive)
REMARK    1  A    between atoms: C_3  and  C_9
REMARK    2  A    between atoms: C_4  and  C_20
REMARK                            x       y       z     vdW  Elec       q    Type
REMARK                         _______ _______ _______ _____ _____    ______ ____
ROOT
ATOM      1  N   UNL     1     135.073 122.117 136.897  0.00  0.00    +0.000 N 
ATOM      2  N   UNL     1     135.023 119.986 137.489  0.00  0.00    +0.000 NA
ATOM      3  C   UNL     1     135.555 121.421 135.823  0.00  0.00    +0.000 A 
ATOM      4  C   UNL     1     134.762 121.215 137.883  0.00  0.00    +0.000 A 
ATOM      5  C   UNL     1     135.516 120.101 136.212  0.00  0.00    +0.000 A 
ATOM      6  H   UNL     1     134.960 123.117 136.966  0.00  0.00    +0.000 HD
ENDROOT
BRANCH   3   9
ATOM      7 BR   UNL     1     140.847 124.764 132.153  0.00  0.00    +0.000 Br
ATOM      8  N   UNL     1     135.987 122.547 132.390  0.00  0.00    +0.000 N 
ATOM      9  C   UNL     1     136.015 121.975 134.534  0.00  0.00    +0.000 A 
ATOM     10  C   UNL     1     137.255 122.607 134.229  0.00  0.00    +0.000 A 
ATOM     11  C   UNL     1     137.208 122.955 132.875  0.00  0.00    +0.000 A 
ATOM     12  C   UNL     1     135.261 121.954 133.385  0.00  0.00    +0.000 A 
ATOM     13  C   UNL     1     138.416 122.922 134.962  0.00  0.00    +0.000 A 
ATOM     14  C   UNL     1     138.261 123.601 132.217  0.00  0.00    +0.000 A 
ATOM     15  C   UNL     1     139.478 123.566 134.326  0.00  0.00    +0.000 A 
ATOM     16  C   UNL     1     139.392 123.894 132.978  0.00  0.00    +0.000 A 
ATOM     17  H   UNL     1     135.671 122.666 131.437  0.00  0.00    +0.000 HD
ENDBRANCH   3   9
BRANCH   4  20
ATOM     18 BR   UNL     1     135.406 125.401 143.763  0.00  0.00    +0.000 Br
ATOM     19  N   UNL     1     132.881 121.590 140.989  0.00  0.00    +0.000 N 
ATOM     20  C   UNL     1     134.208 121.581 139.211  0.00  0.00    +0.000 A 
ATOM     21  C   UNL     1     134.700 122.555 140.124  0.00  0.00    +0.000 A 
ATOM     22  C   UNL     1     133.848 122.539 141.231  0.00  0.00    +0.000 A 
ATOM     23  C   UNL     1     133.090 121.005 139.770  0.00  0.00    +0.000 A 
ATOM     24  C   UNL     1     135.786 123.452 140.121  0.00  0.00    +0.000 A 
ATOM     25  C   UNL     1     134.024 123.374 142.338  0.00  0.00    +0.000 A 
ATOM     26  C   UNL     1     135.982 124.294 141.217  0.00  0.00    +0.000 A 
ATOM     27  C   UNL     1     135.112 124.248 142.299  0.00  0.00    +0.000 A 
ATOM     28  H   UNL     1     132.127 121.361 141.623  0.00  0.00    +0.000 HD
ENDBRANCH   4  20
TORSDOF 2
ENDMDL
MODEL 6
REMARK VINA RESULT:      -7.3      3.270      4.409
REMARK  Name = 179268_Nortopsentin.pdbqt.pdb
REMARK  2 active torsions:
REMARK  status: ('A' for Active; 'I' for Inactive)
REMARK    1  A    between atoms: C_3  and  C_9
REMARK    2  A    between atoms: C_4  and  C_20
REMARK                            x       y       z     vdW  Elec       q    Type
REMARK                         _______ _______ _______ _____ _____    ______ ____
ROOT
ATOM      1  N   UNL     1     136.480 121.527 134.554  0.00  0.00    +0.000 N 
ATOM      2  N   UNL     1     135.641 121.475 132.508  0.00  0.00    +0.000 NA
ATOM      3  C   UNL     1     137.270 122.357 133.807  0.00  0.00    +0.000 A 
ATOM      4  C   UNL     1     135.508 121.013 133.734  0.00  0.00    +0.000 A 
ATOM      5  C   UNL     1     136.732 122.310 132.541  0.00  0.00    +0.000 A 
ATOM      6  H   UNL     1     136.583 121.319 135.536  0.00  0.00    +0.000 HD
ENDROOT
BRANCH   3   9
ATOM      7 BR   UNL     1     141.161 128.458 133.275  0.00  0.00    +0.000 Br
ATOM      8  N   UNL     1     140.278 123.635 135.408  0.00  0.00    +0.000 N 
ATOM      9  C   UNL     1     138.441 123.129 134.270  0.00  0.00    +0.000 A 
ATOM     10  C   UNL     1     138.876 124.420 133.855  0.00  0.00    +0.000 A 
ATOM     11  C   UNL     1     140.032 124.711 134.586  0.00  0.00    +0.000 A 
ATOM     12  C   UNL     1     139.322 122.676 135.223  0.00  0.00    +0.000 A 
ATOM     13  C   UNL     1     138.409 125.375 132.931  0.00  0.00    +0.000 A 
ATOM     14  C   UNL     1     140.744 125.907 134.442  0.00  0.00    +0.000 A 
ATOM     15  C   UNL     1     139.104 126.575 132.772  0.00  0.00    +0.000 A 
ATOM     16  C   UNL     1     140.248 126.826 133.518  0.00  0.00    +0.000 A 
ATOM     17  H   UNL     1     141.052 123.562 136.055  0.00  0.00    +0.000 HD
ENDBRANCH   3   9
BRANCH   4  20
ATOM     18 BR   UNL     1     134.008 114.640 136.839  0.00  0.00    +0.000 Br
ATOM     19  N   UNL     1     132.440 119.210 134.548  0.00  0.00    +0.000 N 
ATOM     20  C   UNL     1     134.452 120.067 134.174  0.00  0.00    +0.000 A 
ATOM     21  C   UNL     1     134.621 118.802 134.802  0.00  0.00    +0.000 A 
ATOM     22  C   UNL     1     133.342 118.286 135.024  0.00  0.00    +0.000 A 
ATOM     23  C   UNL     1     133.101 120.291 134.030  0.00  0.00    +0.000 A 
ATOM     24  C   UNL     1     135.735 118.040 135.205  0.00  0.00    +0.000 A 
ATOM     25  C   UNL     1     133.116 117.047 135.630  0.00  0.00    +0.000 A 
ATOM     26  C   UNL     1     135.532 116.798 135.811  0.00  0.00    +0.000 A 
ATOM     27  C   UNL     1     134.244 116.321 136.016  0.00  0.00    +0.000 A 
ATOM     28  H   UNL     1     131.435 119.103 134.576  0.00  0.00    +0.000 HD
ENDBRANCH   4  20
TORSDOF 2
ENDMDL
MODEL 7
REMARK VINA RESULT:      -7.2      6.149      8.360
REMARK  Name = 179268_Nortopsentin.pdbqt.pdb
REMARK  2 active torsions:
REMARK  status: ('A' for Active; 'I' for Inactive)
REMARK    1  A    between atoms: C_3  and  C_9
REMARK    2  A    between atoms: C_4  and  C_20
REMARK                            x       y       z     vdW  Elec       q    Type
REMARK                         _______ _______ _______ _____ _____    ______ ____
ROOT
ATOM      1  N   UNL     1     135.544 122.924 139.095  0.00  0.00    +0.000 N 
ATOM      2  N   UNL     1     134.337 121.242 138.317  0.00  0.00    +0.000 NA
ATOM      3  C   UNL     1     135.134 122.222 140.194  0.00  0.00    +0.000 A 
ATOM      4  C   UNL     1     135.042 122.301 137.980  0.00  0.00    +0.000 A 
ATOM      5  C   UNL     1     134.387 121.182 139.689  0.00  0.00    +0.000 A 
ATOM      6  H   UNL     1     136.115 123.756 139.089  0.00  0.00    +0.000 HD
ENDROOT
BRANCH   3   9
ATOM      7 BR   UNL     1     136.832 127.253 145.139  0.00  0.00    +0.000 Br
ATOM      8  N   UNL     1     135.765 122.193 143.778  0.00  0.00    +0.000 N 
ATOM      9  C   UNL     1     135.434 122.524 141.608  0.00  0.00    +0.000 A 
ATOM     10  C   UNL     1     135.745 123.779 142.204  0.00  0.00    +0.000 A 
ATOM     11  C   UNL     1     135.947 123.540 143.567  0.00  0.00    +0.000 A 
ATOM     12  C   UNL     1     135.455 121.572 142.601  0.00  0.00    +0.000 A 
ATOM     13  C   UNL     1     135.876 125.099 141.728  0.00  0.00    +0.000 A 
ATOM     14  C   UNL     1     136.274 124.552 144.478  0.00  0.00    +0.000 A 
ATOM     15  C   UNL     1     136.200 126.122 142.618  0.00  0.00    +0.000 A 
ATOM     16  C   UNL     1     136.394 125.844 143.966  0.00  0.00    +0.000 A 
ATOM     17  H   UNL     1     135.847 121.728 144.672  0.00  0.00    +0.000 HD
ENDBRANCH   3   9
BRANCH   4  20
ATOM     18 BR   UNL     1     139.902 123.805 132.820  0.00  0.00    +0.000 Br
ATOM     19  N   UNL     1     134.846 123.478 134.530  0.00  0.00    +0.000 N 
ATOM     20  C   UNL     1     135.268 122.762 136.587  0.00  0.00    +0.000 A 
ATOM     21  C   UNL     1     136.511 122.928 135.914  0.00  0.00    +0.000 A 
ATOM     22  C   UNL     1     136.216 123.378 134.625  0.00  0.00    +0.000 A 
ATOM     23  C   UNL     1     134.264 123.108 135.712  0.00  0.00    +0.000 A 
ATOM     24  C   UNL     1     137.861 122.739 136.271  0.00  0.00    +0.000 A 
ATOM     25  C   UNL     1     137.200 123.651 133.671  0.00  0.00    +0.000 A 
ATOM     26  C   UNL     1     138.860 123.007 135.333  0.00  0.00    +0.000 A 
ATOM     27  C   UNL     1     138.525 123.454 134.061  0.00  0.00    +0.000 A 
ATOM     28  H   UNL     1     134.346 123.781 133.705  0.00  0.00    +0.000 HD
ENDBRANCH   4  20
TORSDOF 2
ENDMDL
MODEL 8
REMARK VINA RESULT:      -6.9     35.279     37.207
REMARK  Name = 179268_Nortopsentin.pdbqt.pdb
REMARK  2 active torsions:
REMARK  status: ('A' for Active; 'I' for Inactive)
REMARK    1  A    between atoms: C_3  and  C_9
REMARK    2  A    between atoms: C_4  and  C_20
REMARK                            x       y       z     vdW  Elec       q    Type
REMARK                         _______ _______ _______ _____ _____    ______ ____
ROOT
ATOM      1  N   UNL     1     142.646 124.675  98.022  0.00  0.00    +0.000 N 
ATOM      2  N   UNL     1     142.012 125.440  96.046  0.00  0.00    +0.000 NA
ATOM      3  C   UNL     1     142.340 125.993  98.215  0.00  0.00    +0.000 A 
ATOM      4  C   UNL     1     142.436 124.378  96.699  0.00  0.00    +0.000 A 
ATOM      5  C   UNL     1     141.949 126.449  96.976  0.00  0.00    +0.000 A 
ATOM      6  H   UNL     1     142.971 124.023  98.720  0.00  0.00    +0.000 HD
ENDROOT
BRANCH   3   9
ATOM      7 BR   UNL     1     144.852 126.288 105.015  0.00  0.00    +0.000 Br
ATOM      8  N   UNL     1     142.087 128.384 100.947  0.00  0.00    +0.000 N 
ATOM      9  C   UNL     1     142.416 126.751  99.480  0.00  0.00    +0.000 A 
ATOM     10  C   UNL     1     143.086 126.402 100.687  0.00  0.00    +0.000 A 
ATOM     11  C   UNL     1     142.861 127.446 101.590  0.00  0.00    +0.000 A 
ATOM     12  C   UNL     1     141.814 127.972  99.672  0.00  0.00    +0.000 A 
ATOM     13  C   UNL     1     143.861 125.305 101.111  0.00  0.00    +0.000 A 
ATOM     14  C   UNL     1     143.371 127.450 102.894  0.00  0.00    +0.000 A 
ATOM     15  C   UNL     1     144.380 125.289 102.406  0.00  0.00    +0.000 A 
ATOM     16  C   UNL     1     144.134 126.346 103.273  0.00  0.00    +0.000 A 
ATOM     17  H   UNL     1     141.765 129.251 101.355  0.00  0.00    +0.000 HD
ENDBRANCH   3   9
BRANCH   4  20
ATOM     18 BR   UNL     1     146.823 120.174  92.752  0.00  0.00    +0.000 Br
ATOM     19  N   UNL     1     142.310 120.925  95.519  0.00  0.00    +0.000 N 
ATOM     20  C   UNL     1     142.655 123.041  96.093  0.00  0.00    +0.000 A 
ATOM     21  C   UNL     1     143.768 122.606  95.320  0.00  0.00    +0.000 A 
ATOM     22  C   UNL     1     143.524 121.275  94.973  0.00  0.00    +0.000 A 
ATOM     23  C   UNL     1     141.776 121.987  96.198  0.00  0.00    +0.000 A 
ATOM     24  C   UNL     1     144.962 123.210  94.880  0.00  0.00    +0.000 A 
ATOM     25  C   UNL     1     144.412 120.513  94.207  0.00  0.00    +0.000 A 
ATOM     26  C   UNL     1     145.862 122.468  94.112  0.00  0.00    +0.000 A 
ATOM     27  C   UNL     1     145.583 121.147  93.789  0.00  0.00    +0.000 A 
ATOM     28  H   UNL     1     141.877 120.016  95.429  0.00  0.00    +0.000 HD
ENDBRANCH   4  20
TORSDOF 2
ENDMDL
MODEL 9
REMARK VINA RESULT:      -6.9     35.456     37.513
REMARK  Name = 179268_Nortopsentin.pdbqt.pdb
REMARK  2 active torsions:
REMARK  status: ('A' for Active; 'I' for Inactive)
REMARK    1  A    between atoms: C_3  and  C_9
REMARK    2  A    between atoms: C_4  and  C_20
REMARK                            x       y       z     vdW  Elec       q    Type
REMARK                         _______ _______ _______ _____ _____    ______ ____
ROOT
ATOM      1  N   UNL     1     145.308 127.378  98.852  0.00  0.00    +0.000 N 
ATOM      2  N   UNL     1     147.400 127.092  99.512  0.00  0.00    +0.000 NA
ATOM      3  C   UNL     1     145.250 127.210 100.207  0.00  0.00    +0.000 A 
ATOM      4  C   UNL     1     146.624 127.300  98.470  0.00  0.00    +0.000 A 
ATOM      5  C   UNL     1     146.559 127.033 100.597  0.00  0.00    +0.000 A 
ATOM      6  H   UNL     1     144.530 127.533  98.229  0.00  0.00    +0.000 HD
ENDROOT
BRANCH   3   9
ATOM      7 BR   UNL     1     138.532 124.692 101.290  0.00  0.00    +0.000 Br
ATOM      8  N   UNL     1     142.685 127.735 102.734  0.00  0.00    +0.000 N 
ATOM      9  C   UNL     1     144.042 127.217 101.056  0.00  0.00    +0.000 A 
ATOM     10  C   UNL     1     142.825 126.498 100.879  0.00  0.00    +0.000 A 
ATOM     11  C   UNL     1     141.992 126.844 101.948  0.00  0.00    +0.000 A 
ATOM     12  C   UNL     1     143.923 127.966 102.203  0.00  0.00    +0.000 A 
ATOM     13  C   UNL     1     142.341 125.587  99.919  0.00  0.00    +0.000 A 
ATOM     14  C   UNL     1     140.701 126.326 102.107  0.00  0.00    +0.000 A 
ATOM     15  C   UNL     1     141.058 125.058 100.058  0.00  0.00    +0.000 A 
ATOM     16  C   UNL     1     140.261 125.427 101.135  0.00  0.00    +0.000 A 
ATOM     17  H   UNL     1     142.332 128.159 103.582  0.00  0.00    +0.000 HD
ENDBRANCH   3   9
BRANCH   4  20
ATOM     18 BR   UNL     1     148.732 123.874  92.442  0.00  0.00    +0.000 Br
ATOM     19  N   UNL     1     147.741 128.370  95.163  0.00  0.00    +0.000 N 
ATOM     20  C   UNL     1     147.101 127.435  97.070  0.00  0.00    +0.000 A 
ATOM     21  C   UNL     1     147.428 126.394  96.156  0.00  0.00    +0.000 A 
ATOM     22  C   UNL     1     147.827 127.010  94.968  0.00  0.00    +0.000 A 
ATOM     23  C   UNL     1     147.304 128.637  96.432  0.00  0.00    +0.000 A 
ATOM     24  C   UNL     1     147.425 124.987  96.219  0.00  0.00    +0.000 A 
ATOM     25  C   UNL     1     148.223 126.293  93.835  0.00  0.00    +0.000 A 
ATOM     26  C   UNL     1     147.818 124.251  95.100  0.00  0.00    +0.000 A 
ATOM     27  C   UNL     1     148.208 124.901  93.936  0.00  0.00    +0.000 A 
ATOM     28  H   UNL     1     147.969 129.068  94.468  0.00  0.00    +0.000 HD
ENDBRANCH   4  20
TORSDOF 2
ENDMDL
