MODEL 1
REMARK VINA RESULT:      -5.0      0.000      0.000
REMARK  Name = 21574552_Mertensene.pdbqt.pdb
REMARK  1 active torsions:
REMARK  status: ('A' for Active; 'I' for Inactive)
REMARK    1  A    between atoms: C_4  and  C_13
REMARK                            x       y       z     vdW  Elec       q    Type
REMARK                         _______ _______ _______ _____ _____    ______ ____
ROOT
ATOM      1 BR   UNL     1     144.299 123.173  99.312  0.00  0.00    +0.000 Br
ATOM      2 CL   UNL     1     141.905 128.313 101.104  0.00  0.00    +0.000 Cl
ATOM      3 CL   UNL     1     143.957 126.803 103.365  0.00  0.00    +0.000 Cl
ATOM      4  C   UNL     1     141.796 124.786  99.568  0.00  0.00    +0.000 C 
ATOM      5  C   UNL     1     141.344 125.852 100.468  0.00  0.00    +0.000 C 
ATOM      6  C   UNL     1     141.684 126.634 101.654  0.00  0.00    +0.000 C 
ATOM      7  C   UNL     1     143.139 124.316 100.181  0.00  0.00    +0.000 C 
ATOM      8  C   UNL     1     143.005 126.043 102.164  0.00  0.00    +0.000 C 
ATOM      9  C   UNL     1     143.550 124.994 101.367  0.00  0.00    +0.000 C 
ATOM     10  C   UNL     1     140.789 123.614  99.585  0.00  0.00    +0.000 C 
ATOM     11  C   UNL     1     140.587 126.604 102.723  0.00  0.00    +0.000 C 
ENDROOT
BRANCH   4  13
ATOM     12 CL   UNL     1     142.432 126.359  95.483  0.00  0.00    +0.000 Cl
ATOM     13  C   UNL     1     142.013 125.312  98.211  0.00  0.00    +0.000 C 
ATOM     14  C   UNL     1     142.188 125.741  97.103  0.00  0.00    +0.000 C 
ENDBRANCH   4  13
TORSDOF 1
ENDMDL
MODEL 2
REMARK VINA RESULT:      -5.0      2.802      3.898
REMARK  Name = 21574552_Mertensene.pdbqt.pdb
REMARK  1 active torsions:
REMARK  status: ('A' for Active; 'I' for Inactive)
REMARK    1  A    between atoms: C_4  and  C_13
REMARK                            x       y       z     vdW  Elec       q    Type
REMARK                         _______ _______ _______ _____ _____    ______ ____
ROOT
ATOM      1 BR   UNL     1     141.989 124.883  99.953  0.00  0.00    +0.000 Br
ATOM      2 CL   UNL     1     146.504 128.285 101.797  0.00  0.00    +0.000 Cl
ATOM      3 CL   UNL     1     147.201 124.960 101.550  0.00  0.00    +0.000 Cl
ATOM      4  C   UNL     1     142.866 127.030 101.839  0.00  0.00    +0.000 C 
ATOM      5  C   UNL     1     144.145 127.403 102.453  0.00  0.00    +0.000 C 
ATOM      6  C   UNL     1     145.546 127.024 102.611  0.00  0.00    +0.000 C 
ATOM      7  C   UNL     1     143.166 125.687 101.127  0.00  0.00    +0.000 C 
ATOM      8  C   UNL     1     145.686 125.676 101.890  0.00  0.00    +0.000 C 
ATOM      9  C   UNL     1     144.503 125.206 101.247  0.00  0.00    +0.000 C 
ATOM     10  C   UNL     1     141.798 126.802 102.932  0.00  0.00    +0.000 C 
ATOM     11  C   UNL     1     145.981 126.941 104.078  0.00  0.00    +0.000 C 
ENDROOT
BRANCH   4  13
ATOM     12 CL   UNL     1     141.599 130.063  98.879  0.00  0.00    +0.000 Cl
ATOM     13  C   UNL     1     142.450 128.044 100.856  0.00  0.00    +0.000 C 
ATOM     14  C   UNL     1     142.108 128.868 100.054  0.00  0.00    +0.000 C 
ENDBRANCH   4  13
TORSDOF 1
ENDMDL
MODEL 3
REMARK VINA RESULT:      -4.8      2.962      4.006
REMARK  Name = 21574552_Mertensene.pdbqt.pdb
REMARK  1 active torsions:
REMARK  status: ('A' for Active; 'I' for Inactive)
REMARK    1  A    between atoms: C_4  and  C_13
REMARK                            x       y       z     vdW  Elec       q    Type
REMARK                         _______ _______ _______ _____ _____    ______ ____
ROOT
ATOM      1 BR   UNL     1     140.782 126.682 102.540  0.00  0.00    +0.000 Br
ATOM      2 CL   UNL     1     146.486 125.277 101.622  0.00  0.00    +0.000 Cl
ATOM      3 CL   UNL     1     145.806 126.670 104.655  0.00  0.00    +0.000 Cl
ATOM      4  C   UNL     1     143.109 126.861 100.674  0.00  0.00    +0.000 C 
ATOM      5  C   UNL     1     144.567 126.851 100.840  0.00  0.00    +0.000 C 
ATOM      6  C   UNL     1     145.655 126.840 101.814  0.00  0.00    +0.000 C 
ATOM      7  C   UNL     1     142.563 126.923 102.123  0.00  0.00    +0.000 C 
ATOM      8  C   UNL     1     144.972 126.936 103.186  0.00  0.00    +0.000 C 
ATOM      9  C   UNL     1     143.547 126.950 103.155  0.00  0.00    +0.000 C 
ATOM     10  C   UNL     1     142.671 128.130  99.908  0.00  0.00    +0.000 C 
ATOM     11  C   UNL     1     146.666 127.969 101.592  0.00  0.00    +0.000 C 
ENDROOT
BRANCH   4  13
ATOM     12 CL   UNL     1     141.727 123.160  98.686  0.00  0.00    +0.000 Cl
ATOM     13  C   UNL     1     142.656 125.627 100.013  0.00  0.00    +0.000 C 
ATOM     14  C   UNL     1     142.283 124.622  99.473  0.00  0.00    +0.000 C 
ENDBRANCH   4  13
TORSDOF 1
ENDMDL
MODEL 4
REMARK VINA RESULT:      -4.8      2.535      3.232
REMARK  Name = 21574552_Mertensene.pdbqt.pdb
REMARK  1 active torsions:
REMARK  status: ('A' for Active; 'I' for Inactive)
REMARK    1  A    between atoms: C_4  and  C_13
REMARK                            x       y       z     vdW  Elec       q    Type
REMARK                         _______ _______ _______ _____ _____    ______ ____
ROOT
ATOM      1 BR   UNL     1     142.187 122.057  96.407  0.00  0.00    +0.000 Br
ATOM      2 CL   UNL     1     145.115 126.089  99.652  0.00  0.00    +0.000 Cl
ATOM      3 CL   UNL     1     146.482 122.970  99.639  0.00  0.00    +0.000 Cl
ATOM      4  C   UNL     1     141.974 124.197  98.483  0.00  0.00    +0.000 C 
ATOM      5  C   UNL     1     142.888 124.753  99.487  0.00  0.00    +0.000 C 
ATOM      6  C   UNL     1     144.207 124.624 100.099  0.00  0.00    +0.000 C 
ATOM      7  C   UNL     1     142.741 122.980  97.906  0.00  0.00    +0.000 C 
ATOM      8  C   UNL     1     144.830 123.375  99.460  0.00  0.00    +0.000 C 
ATOM      9  C   UNL     1     144.034 122.743  98.461  0.00  0.00    +0.000 C 
ATOM     10  C   UNL     1     140.675 123.707  99.161  0.00  0.00    +0.000 C 
ATOM     11  C   UNL     1     144.150 124.524 101.627  0.00  0.00    +0.000 C 
ENDROOT
BRANCH   4  13
ATOM     12 CL   UNL     1     141.164 127.155  95.297  0.00  0.00    +0.000 Cl
ATOM     13  C   UNL     1     141.712 125.181  97.422  0.00  0.00    +0.000 C 
ATOM     14  C   UNL     1     141.494 125.984  96.557  0.00  0.00    +0.000 C 
ENDBRANCH   4  13
TORSDOF 1
ENDMDL
MODEL 5
REMARK VINA RESULT:      -4.7      3.411      4.125
REMARK  Name = 21574552_Mertensene.pdbqt.pdb
REMARK  1 active torsions:
REMARK  status: ('A' for Active; 'I' for Inactive)
REMARK    1  A    between atoms: C_4  and  C_13
REMARK                            x       y       z     vdW  Elec       q    Type
REMARK                         _______ _______ _______ _____ _____    ______ ____
ROOT
ATOM      1 BR   UNL     1     142.770 127.160  95.660  0.00  0.00    +0.000 Br
ATOM      2 CL   UNL     1     143.500 126.418 101.514  0.00  0.00    +0.000 Cl
ATOM      3 CL   UNL     1     141.806 123.919  99.936  0.00  0.00    +0.000 Cl
ATOM      4  C   UNL     1     142.536 128.409  98.365  0.00  0.00    +0.000 C 
ATOM      5  C   UNL     1     142.325 127.895  99.723  0.00  0.00    +0.000 C 
ATOM      6  C   UNL     1     142.053 126.699 100.515  0.00  0.00    +0.000 C 
ATOM      7  C   UNL     1     142.349 127.167  97.457  0.00  0.00    +0.000 C 
ATOM      8  C   UNL     1     141.862 125.570  99.493  0.00  0.00    +0.000 C 
ATOM      9  C   UNL     1     142.046 125.947  98.130  0.00  0.00    +0.000 C 
ATOM     10  C   UNL     1     141.457 129.461  98.022  0.00  0.00    +0.000 C 
ATOM     11  C   UNL     1     140.838 126.855 101.436  0.00  0.00    +0.000 C 
ENDROOT
BRANCH   4  13
ATOM     12 CL   UNL     1     146.642 129.999  97.949  0.00  0.00    +0.000 Cl
ATOM     13  C   UNL     1     143.900 128.943  98.221  0.00  0.00    +0.000 C 
ATOM     14  C   UNL     1     145.013 129.376  98.107  0.00  0.00    +0.000 C 
ENDBRANCH   4  13
TORSDOF 1
ENDMDL
MODEL 6
REMARK VINA RESULT:      -4.6      2.428      4.159
REMARK  Name = 21574552_Mertensene.pdbqt.pdb
REMARK  1 active torsions:
REMARK  status: ('A' for Active; 'I' for Inactive)
REMARK    1  A    between atoms: C_4  and  C_13
REMARK                            x       y       z     vdW  Elec       q    Type
REMARK                         _______ _______ _______ _____ _____    ______ ____
ROOT
ATOM      1 BR   UNL     1     144.487 123.143  99.587  0.00  0.00    +0.000 Br
ATOM      2 CL   UNL     1     142.770 128.027 102.513  0.00  0.00    +0.000 Cl
ATOM      3 CL   UNL     1     140.238 126.042 101.395  0.00  0.00    +0.000 Cl
ATOM      4  C   UNL     1     144.803 126.101  99.873  0.00  0.00    +0.000 C 
ATOM      5  C   UNL     1     143.940 127.190 100.345  0.00  0.00    +0.000 C 
ATOM      6  C   UNL     1     142.599 127.529 100.812  0.00  0.00    +0.000 C 
ATOM      7  C   UNL     1     143.870 124.864  99.842  0.00  0.00    +0.000 C 
ATOM      8  C   UNL     1     141.789 126.230 100.698  0.00  0.00    +0.000 C 
ATOM      9  C   UNL     1     142.523 125.093 100.250  0.00  0.00    +0.000 C 
ATOM     10  C   UNL     1     145.302 126.401  98.442  0.00  0.00    +0.000 C 
ATOM     11  C   UNL     1     141.963 128.677 100.022  0.00  0.00    +0.000 C 
ENDROOT
BRANCH   4  13
ATOM     12 CL   UNL     1     148.125 125.438 102.717  0.00  0.00    +0.000 Cl
ATOM     13  C   UNL     1     145.912 125.878 100.814  0.00  0.00    +0.000 C 
ATOM     14  C   UNL     1     146.815 125.697 101.584  0.00  0.00    +0.000 C 
ENDBRANCH   4  13
TORSDOF 1
ENDMDL
MODEL 7
REMARK VINA RESULT:      -4.4      3.178      4.963
REMARK  Name = 21574552_Mertensene.pdbqt.pdb
REMARK  1 active torsions:
REMARK  status: ('A' for Active; 'I' for Inactive)
REMARK    1  A    between atoms: C_4  and  C_13
REMARK                            x       y       z     vdW  Elec       q    Type
REMARK                         _______ _______ _______ _____ _____    ______ ____
ROOT
ATOM      1 BR   UNL     1     143.655 125.248 101.457  0.00  0.00    +0.000 Br
ATOM      2 CL   UNL     1     142.387 124.470  95.700  0.00  0.00    +0.000 Cl
ATOM      3 CL   UNL     1     139.952 123.483  97.867  0.00  0.00    +0.000 Cl
ATOM      4  C   UNL     1     144.613 124.198  98.828  0.00  0.00    +0.000 C 
ATOM      5  C   UNL     1     143.955 123.682  97.623  0.00  0.00    +0.000 C 
ATOM      6  C   UNL     1     142.671 123.319  97.029  0.00  0.00    +0.000 C 
ATOM      7  C   UNL     1     143.457 124.369  99.847  0.00  0.00    +0.000 C 
ATOM      8  C   UNL     1     141.638 123.507  98.150  0.00  0.00    +0.000 C 
ATOM      9  C   UNL     1     142.159 124.009  99.378  0.00  0.00    +0.000 C 
ATOM     10  C   UNL     1     145.620 123.158  99.369  0.00  0.00    +0.000 C 
ATOM     11  C   UNL     1     142.655 121.895  96.463  0.00  0.00    +0.000 C 
ENDROOT
BRANCH   4  13
ATOM     12 CL   UNL     1     146.503 128.107  97.990  0.00  0.00    +0.000 Cl
ATOM     13  C   UNL     1     145.246 125.497  98.555  0.00  0.00    +0.000 C 
ATOM     14  C   UNL     1     145.760 126.558  98.330  0.00  0.00    +0.000 C 
ENDBRANCH   4  13
TORSDOF 1
ENDMDL
MODEL 8
REMARK VINA RESULT:      -4.4     34.782     36.826
REMARK  Name = 21574552_Mertensene.pdbqt.pdb
REMARK  1 active torsions:
REMARK  status: ('A' for Active; 'I' for Inactive)
REMARK    1  A    between atoms: C_4  and  C_13
REMARK                            x       y       z     vdW  Elec       q    Type
REMARK                         _______ _______ _______ _____ _____    ______ ____
ROOT
ATOM      1 BR   UNL     1     135.907 135.935 136.659  0.00  0.00    +0.000 Br
ATOM      2 CL   UNL     1     140.184 133.729 133.167  0.00  0.00    +0.000 Cl
ATOM      3 CL   UNL     1     137.000 133.110 132.127  0.00  0.00    +0.000 Cl
ATOM      4  C   UNL     1     138.447 134.365 136.542  0.00  0.00    +0.000 C 
ATOM      5  C   UNL     1     139.099 133.533 135.524  0.00  0.00    +0.000 C 
ATOM      6  C   UNL     1     138.956 132.948 134.193  0.00  0.00    +0.000 C 
ATOM      7  C   UNL     1     137.059 134.688 135.934  0.00  0.00    +0.000 C 
ATOM      8  C   UNL     1     137.539 133.321 133.736  0.00  0.00    +0.000 C 
ATOM      9  C   UNL     1     136.802 134.135 134.645  0.00  0.00    +0.000 C 
ATOM     10  C   UNL     1     138.259 133.558 137.846  0.00  0.00    +0.000 C 
ATOM     11  C   UNL     1     139.189 131.434 134.178  0.00  0.00    +0.000 C 
ENDROOT
BRANCH   4  13
ATOM     12 CL   UNL     1     140.718 138.105 137.185  0.00  0.00    +0.000 Cl
ATOM     13  C   UNL     1     139.208 135.605 136.759  0.00  0.00    +0.000 C 
ATOM     14  C   UNL     1     139.825 136.619 136.935  0.00  0.00    +0.000 C 
ENDBRANCH   4  13
TORSDOF 1
ENDMDL
MODEL 9
REMARK VINA RESULT:      -4.4     14.886     16.599
REMARK  Name = 21574552_Mertensene.pdbqt.pdb
REMARK  1 active torsions:
REMARK  status: ('A' for Active; 'I' for Inactive)
REMARK    1  A    between atoms: C_4  and  C_13
REMARK                            x       y       z     vdW  Elec       q    Type
REMARK                         _______ _______ _______ _____ _____    ______ ____
ROOT
ATOM      1 BR   UNL     1     137.669 117.016 112.644  0.00  0.00    +0.000 Br
ATOM      2 CL   UNL     1     143.559 116.544 113.311  0.00  0.00    +0.000 Cl
ATOM      3 CL   UNL     1     142.539 118.873 111.045  0.00  0.00    +0.000 Cl
ATOM      4  C   UNL     1     140.009 115.160 112.770  0.00  0.00    +0.000 C 
ATOM      5  C   UNL     1     141.441 115.285 112.475  0.00  0.00    +0.000 C 
ATOM      6  C   UNL     1     142.476 116.171 111.948  0.00  0.00    +0.000 C 
ATOM      7  C   UNL     1     139.403 116.499 112.277  0.00  0.00    +0.000 C 
ATOM      8  C   UNL     1     141.732 117.428 111.476  0.00  0.00    +0.000 C 
ATOM      9  C   UNL     1     140.326 117.427 111.712  0.00  0.00    +0.000 C 
ATOM     10  C   UNL     1     139.400 113.994 111.959  0.00  0.00    +0.000 C 
ATOM     11  C   UNL     1     143.297 115.529 110.825  0.00  0.00    +0.000 C 
ENDROOT
BRANCH   4  13
ATOM     12 CL   UNL     1     139.355 114.720 117.122  0.00  0.00    +0.000 Cl
ATOM     13  C   UNL     1     139.792 115.006 114.217  0.00  0.00    +0.000 C 
ATOM     14  C   UNL     1     139.614 114.884 115.398  0.00  0.00    +0.000 C 
ENDBRANCH   4  13
TORSDOF 1
ENDMDL
