MODEL 1
REMARK VINA RESULT:      -8.7      0.000      0.000
REMARK  Name = 222284_BetaSitosterol.pdbqt.pdb
REMARK  5 active torsions:
REMARK  status: ('A' for Active; 'I' for Inactive)
REMARK    1  A    between atoms: C_5  and  C_22
REMARK    2  A    between atoms: C_19  and  O_20
REMARK    3  A    between atoms: C_22  and  C_24
REMARK    4  A    between atoms: C_25  and  C_26
REMARK    5  A    between atoms: C_26  and  C_30
REMARK                            x       y       z     vdW  Elec       q    Type
REMARK                         _______ _______ _______ _____ _____    ______ ____
ROOT
ATOM      1  C   UNL     1     135.471 122.962 135.153  0.00  0.00    +0.000 C 
ATOM      2  C   UNL     1     136.262 123.272 133.782  0.00  0.00    +0.000 C 
ATOM      3  C   UNL     1     137.714 123.547 133.760  0.00  0.00    +0.000 C 
ATOM      4  C   UNL     1     138.678 123.302 134.893  0.00  0.00    +0.000 C 
ATOM      5  C   UNL     1     134.553 121.807 134.785  0.00  0.00    +0.000 C 
ATOM      6  C   UNL     1     136.511 122.605 136.120  0.00  0.00    +0.000 C 
ATOM      7  C   UNL     1     140.183 123.684 134.842  0.00  0.00    +0.000 C 
ATOM      8  C   UNL     1     135.677 122.454 132.765  0.00  0.00    +0.000 C 
ATOM      9  C   UNL     1     138.008 122.775 136.031  0.00  0.00    +0.000 C 
ATOM     10  C   UNL     1     134.664 121.533 133.391  0.00  0.00    +0.000 C 
ATOM     11  C   UNL     1     138.361 123.961 132.570  0.00  0.00    +0.000 C 
ATOM     12  C   UNL     1     134.664 124.227 135.542  0.00  0.00    +0.000 C 
ATOM     13  C   UNL     1     140.752 123.966 133.317  0.00  0.00    +0.000 C 
ATOM     14  C   UNL     1     141.020 122.550 135.334  0.00  0.00    +0.000 C 
ATOM     15  C   UNL     1     139.840 124.147 132.411  0.00  0.00    +0.000 C 
ATOM     16  C   UNL     1     140.405 124.987 135.663  0.00  0.00    +0.000 C 
ATOM     17  C   UNL     1     141.926 123.209 132.945  0.00  0.00    +0.000 C 
ATOM     18  C   UNL     1     142.233 121.788 134.772  0.00  0.00    +0.000 C 
ATOM     19  C   UNL     1     142.736 122.164 133.492  0.00  0.00    +0.000 C 
ENDROOT
BRANCH  19  20
ATOM     20  O   UNL     1     144.058 122.036 133.183  0.00  0.00    +0.000 OA
ATOM     21  H   UNL     1     144.408 122.843 132.770  0.00  0.00    +0.000 HD
ENDBRANCH  19  20
BRANCH   5  22
ATOM     22  C   UNL     1     133.751 121.073 135.714  0.00  0.00    +0.000 C 
ATOM     23  C   UNL     1     132.929 119.877 135.303  0.00  0.00    +0.000 C 
BRANCH  22  24
ATOM     24  C   UNL     1     133.690 121.410 137.093  0.00  0.00    +0.000 C 
ATOM     25  C   UNL     1     133.616 121.802 138.576  0.00  0.00    +0.000 C 
BRANCH  25  26
ATOM     26  C   UNL     1     133.558 122.182 139.952  0.00  0.00    +0.000 C 
ATOM     27  C   UNL     1     134.672 122.862 140.575  0.00  0.00    +0.000 C 
ATOM     28  C   UNL     1     135.935 123.220 139.815  0.00  0.00    +0.000 C 
ATOM     29  C   UNL     1     134.702 123.253 142.036  0.00  0.00    +0.000 C 
BRANCH  26  30
ATOM     30  C   UNL     1     132.395 121.900 140.716  0.00  0.00    +0.000 C 
ATOM     31  C   UNL     1     131.110 121.622 141.504  0.00  0.00    +0.000 C 
ENDBRANCH  26  30
ENDBRANCH  25  26
ENDBRANCH  22  24
ENDBRANCH   5  22
TORSDOF 5
ENDMDL
MODEL 2
REMARK VINA RESULT:      -8.4      2.985      5.803
REMARK  Name = 222284_BetaSitosterol.pdbqt.pdb
REMARK  5 active torsions:
REMARK  status: ('A' for Active; 'I' for Inactive)
REMARK    1  A    between atoms: C_5  and  C_22
REMARK    2  A    between atoms: C_19  and  O_20
REMARK    3  A    between atoms: C_22  and  C_24
REMARK    4  A    between atoms: C_25  and  C_26
REMARK    5  A    between atoms: C_26  and  C_30
REMARK                            x       y       z     vdW  Elec       q    Type
REMARK                         _______ _______ _______ _____ _____    ______ ____
ROOT
ATOM      1  C   UNL     1     136.482 122.192 134.546  0.00  0.00    +0.000 C 
ATOM      2  C   UNL     1     137.764 122.703 135.380  0.00  0.00    +0.000 C 
ATOM      3  C   UNL     1     138.723 123.679 134.824  0.00  0.00    +0.000 C 
ATOM      4  C   UNL     1     138.509 124.527 133.594  0.00  0.00    +0.000 C 
ATOM      5  C   UNL     1     135.360 122.197 135.574  0.00  0.00    +0.000 C 
ATOM      6  C   UNL     1     136.306 123.177 133.477  0.00  0.00    +0.000 C 
ATOM      7  C   UNL     1     139.585 125.482 133.009  0.00  0.00    +0.000 C 
ATOM      8  C   UNL     1     137.364 122.799 136.750  0.00  0.00    +0.000 C 
ATOM      9  C   UNL     1     137.246 124.258 133.001  0.00  0.00    +0.000 C 
ATOM     10  C   UNL     1     135.887 122.530 136.855  0.00  0.00    +0.000 C 
ATOM     11  C   UNL     1     139.919 124.003 135.510  0.00  0.00    +0.000 C 
ATOM     12  C   UNL     1     136.777 120.759 134.035  0.00  0.00    +0.000 C 
ATOM     13  C   UNL     1     140.806 125.844 134.061  0.00  0.00    +0.000 C 
ATOM     14  C   UNL     1     138.979 126.809 132.692  0.00  0.00    +0.000 C 
ATOM     15  C   UNL     1     140.894 125.064 135.095  0.00  0.00    +0.000 C 
ATOM     16  C   UNL     1     140.234 124.813 131.763  0.00  0.00    +0.000 C 
ATOM     17  C   UNL     1     141.054 127.253 134.261  0.00  0.00    +0.000 C 
ATOM     18  C   UNL     1     139.334 128.263 133.047  0.00  0.00    +0.000 C 
ATOM     19  C   UNL     1     140.471 128.501 133.874  0.00  0.00    +0.000 C 
ENDROOT
BRANCH  19  20
ATOM     20  O   UNL     1     141.212 129.640 133.751  0.00  0.00    +0.000 OA
ATOM     21  H   UNL     1     140.973 130.137 132.951  0.00  0.00    +0.000 HD
ENDBRANCH  19  20
BRANCH   5  22
ATOM     22  C   UNL     1     133.981 121.962 135.279  0.00  0.00    +0.000 C 
ATOM     23  C   UNL     1     132.876 122.820 135.843  0.00  0.00    +0.000 C 
BRANCH  22  24
ATOM     24  C   UNL     1     133.559 120.915 134.416  0.00  0.00    +0.000 C 
ATOM     25  C   UNL     1     133.130 119.772 133.484  0.00  0.00    +0.000 C 
BRANCH  25  26
ATOM     26  C   UNL     1     132.747 118.712 132.606  0.00  0.00    +0.000 C 
ATOM     27  C   UNL     1     133.042 117.337 132.941  0.00  0.00    +0.000 C 
ATOM     28  C   UNL     1     133.746 116.946 134.228  0.00  0.00    +0.000 C 
ATOM     29  C   UNL     1     132.710 116.167 132.042  0.00  0.00    +0.000 C 
BRANCH  26  30
ATOM     30  C   UNL     1     132.062 119.006 131.397  0.00  0.00    +0.000 C 
ATOM     31  C   UNL     1     131.285 119.347 130.121  0.00  0.00    +0.000 C 
ENDBRANCH  26  30
ENDBRANCH  25  26
ENDBRANCH  22  24
ENDBRANCH   5  22
TORSDOF 5
ENDMDL
MODEL 3
REMARK VINA RESULT:      -7.6      3.614      8.548
REMARK  Name = 222284_BetaSitosterol.pdbqt.pdb
REMARK  5 active torsions:
REMARK  status: ('A' for Active; 'I' for Inactive)
REMARK    1  A    between atoms: C_5  and  C_22
REMARK    2  A    between atoms: C_19  and  O_20
REMARK    3  A    between atoms: C_22  and  C_24
REMARK    4  A    between atoms: C_25  and  C_26
REMARK    5  A    between atoms: C_26  and  C_30
REMARK                            x       y       z     vdW  Elec       q    Type
REMARK                         _______ _______ _______ _____ _____    ______ ____
ROOT
ATOM      1  C   UNL     1     137.069 122.476 135.013  0.00  0.00    +0.000 C 
ATOM      2  C   UNL     1     136.124 122.064 136.253  0.00  0.00    +0.000 C 
ATOM      3  C   UNL     1     135.323 120.823 136.249  0.00  0.00    +0.000 C 
ATOM      4  C   UNL     1     135.479 119.671 135.287  0.00  0.00    +0.000 C 
ATOM      5  C   UNL     1     138.341 122.976 135.680  0.00  0.00    +0.000 C 
ATOM      6  C   UNL     1     137.252 121.242 134.246  0.00  0.00    +0.000 C 
ATOM      7  C   UNL     1     134.556 118.423 135.280  0.00  0.00    +0.000 C 
ATOM      8  C   UNL     1     136.796 122.475 137.447  0.00  0.00    +0.000 C 
ATOM      9  C   UNL     1     136.508 119.932 134.340  0.00  0.00    +0.000 C 
ATOM     10  C   UNL     1     138.164 122.992 137.094  0.00  0.00    +0.000 C 
ATOM     11  C   UNL     1     134.389 120.552 137.279  0.00  0.00    +0.000 C 
ATOM     12  C   UNL     1     136.362 123.606 134.220  0.00  0.00    +0.000 C 
ATOM     13  C   UNL     1     133.679 118.229 136.666  0.00  0.00    +0.000 C 
ATOM     14  C   UNL     1     135.374 117.177 135.196  0.00  0.00    +0.000 C 
ATOM     15  C   UNL     1     133.620 119.275 137.434  0.00  0.00    +0.000 C 
ATOM     16  C   UNL     1     133.541 118.548 134.108  0.00  0.00    +0.000 C 
ATOM     17  C   UNL     1     133.801 116.937 137.301  0.00  0.00    +0.000 C 
ATOM     18  C   UNL     1     135.435 115.875 136.014  0.00  0.00    +0.000 C 
ATOM     19  C   UNL     1     134.566 115.739 137.136  0.00  0.00    +0.000 C 
ENDROOT
BRANCH  19  20
ATOM     20  O   UNL     1     134.093 114.519 137.524  0.00  0.00    +0.000 OA
ATOM     21  H   UNL     1     133.460 114.161 136.879  0.00  0.00    +0.000 HD
ENDBRANCH  19  20
BRANCH   5  22
ATOM     22  C   UNL     1     139.546 123.318 134.991  0.00  0.00    +0.000 C 
ATOM     23  C   UNL     1     140.696 122.354 134.847  0.00  0.00    +0.000 C 
BRANCH  22  24
ATOM     24  C   UNL     1     139.733 124.586 134.376  0.00  0.00    +0.000 C 
ATOM     25  C   UNL     1     139.945 125.942 133.688  0.00  0.00    +0.000 C 
BRANCH  25  26
ATOM     26  C   UNL     1     140.161 127.198 133.043  0.00  0.00    +0.000 C 
ATOM     27  C   UNL     1     140.894 128.252 133.710  0.00  0.00    +0.000 C 
ATOM     28  C   UNL     1     141.481 128.082 135.099  0.00  0.00    +0.000 C 
ATOM     29  C   UNL     1     141.121 129.622 133.110  0.00  0.00    +0.000 C 
BRANCH  26  30
ATOM     30  C   UNL     1     139.660 127.417 131.732  0.00  0.00    +0.000 C 
ATOM     31  C   UNL     1     139.170 127.646 130.298  0.00  0.00    +0.000 C 
ENDBRANCH  26  30
ENDBRANCH  25  26
ENDBRANCH  22  24
ENDBRANCH   5  22
TORSDOF 5
ENDMDL
MODEL 4
REMARK VINA RESULT:      -7.6     33.990     37.853
REMARK  Name = 222284_BetaSitosterol.pdbqt.pdb
REMARK  5 active torsions:
REMARK  status: ('A' for Active; 'I' for Inactive)
REMARK    1  A    between atoms: C_5  and  C_22
REMARK    2  A    between atoms: C_19  and  O_20
REMARK    3  A    between atoms: C_22  and  C_24
REMARK    4  A    between atoms: C_25  and  C_26
REMARK    5  A    between atoms: C_26  and  C_30
REMARK                            x       y       z     vdW  Elec       q    Type
REMARK                         _______ _______ _______ _____ _____    ______ ____
ROOT
ATOM      1  C   UNL     1     142.390 126.990  99.057  0.00  0.00    +0.000 C 
ATOM      2  C   UNL     1     142.359 126.147  97.683  0.00  0.00    +0.000 C 
ATOM      3  C   UNL     1     143.524 126.084  96.776  0.00  0.00    +0.000 C 
ATOM      4  C   UNL     1     144.930 126.515  97.110  0.00  0.00    +0.000 C 
ATOM      5  C   UNL     1     141.710 126.069 100.058  0.00  0.00    +0.000 C 
ATOM      6  C   UNL     1     143.810 127.215  99.334  0.00  0.00    +0.000 C 
ATOM      7  C   UNL     1     146.101 126.499  96.090  0.00  0.00    +0.000 C 
ATOM      8  C   UNL     1     141.582 124.971  97.928  0.00  0.00    +0.000 C 
ATOM      9  C   UNL     1     145.008 127.024  98.435  0.00  0.00    +0.000 C 
ATOM     10  C   UNL     1     141.225 124.909  99.388  0.00  0.00    +0.000 C 
ATOM     11  C   UNL     1     143.429 125.463  95.506  0.00  0.00    +0.000 C 
ATOM     12  C   UNL     1     141.580 128.294  98.844  0.00  0.00    +0.000 C 
ATOM     13  C   UNL     1     145.816 125.569  94.755  0.00  0.00    +0.000 C 
ATOM     14  C   UNL     1     147.313 125.881  96.706  0.00  0.00    +0.000 C 
ATOM     15  C   UNL     1     144.575 125.238  94.566  0.00  0.00    +0.000 C 
ATOM     16  C   UNL     1     146.361 127.950  95.593  0.00  0.00    +0.000 C 
ATOM     17  C   UNL     1     146.826 124.578  94.463  0.00  0.00    +0.000 C 
ATOM     18  C   UNL     1     148.270 124.751  96.291  0.00  0.00    +0.000 C 
ATOM     19  C   UNL     1     148.019 124.066  95.065  0.00  0.00    +0.000 C 
ENDROOT
BRANCH  19  20
ATOM     20  O   UNL     1     149.037 123.541  94.324  0.00  0.00    +0.000 OA
ATOM     21  H   UNL     1     148.718 122.850  93.719  0.00  0.00    +0.000 HD
ENDBRANCH  19  20
BRANCH   5  22
ATOM     22  C   UNL     1     141.627 126.310 101.465  0.00  0.00    +0.000 C 
ATOM     23  C   UNL     1     140.313 126.520 102.174  0.00  0.00    +0.000 C 
BRANCH  22  24
ATOM     24  C   UNL     1     142.780 126.349 102.296  0.00  0.00    +0.000 C 
ATOM     25  C   UNL     1     144.021 126.419 103.198  0.00  0.00    +0.000 C 
BRANCH  25  26
ATOM     26  C   UNL     1     145.180 126.501 104.028  0.00  0.00    +0.000 C 
ATOM     27  C   UNL     1     146.457 126.892 103.473  0.00  0.00    +0.000 C 
ATOM     28  C   UNL     1     146.632 127.250 102.009  0.00  0.00    +0.000 C 
ATOM     29  C   UNL     1     147.736 126.956 104.279  0.00  0.00    +0.000 C 
BRANCH  26  30
ATOM     30  C   UNL     1     145.082 126.204 105.413  0.00  0.00    +0.000 C 
ATOM     31  C   UNL     1     145.023 125.856 106.905  0.00  0.00    +0.000 C 
ENDBRANCH  26  30
ENDBRANCH  25  26
ENDBRANCH  22  24
ENDBRANCH   5  22
TORSDOF 5
ENDMDL
MODEL 5
REMARK VINA RESULT:      -7.5     33.939     38.370
REMARK  Name = 222284_BetaSitosterol.pdbqt.pdb
REMARK  5 active torsions:
REMARK  status: ('A' for Active; 'I' for Inactive)
REMARK    1  A    between atoms: C_5  and  C_22
REMARK    2  A    between atoms: C_19  and  O_20
REMARK    3  A    between atoms: C_22  and  C_24
REMARK    4  A    between atoms: C_25  and  C_26
REMARK    5  A    between atoms: C_26  and  C_30
REMARK                            x       y       z     vdW  Elec       q    Type
REMARK                         _______ _______ _______ _____ _____    ______ ____
ROOT
ATOM      1  C   UNL     1     146.313 127.277  97.793  0.00  0.00    +0.000 C 
ATOM      2  C   UNL     1     147.007 127.739  99.173  0.00  0.00    +0.000 C 
ATOM      3  C   UNL     1     146.261 127.793 100.447  0.00  0.00    +0.000 C 
ATOM      4  C   UNL     1     144.908 127.179 100.706  0.00  0.00    +0.000 C 
ATOM      5  C   UNL     1     147.354 126.372  97.153  0.00  0.00    +0.000 C 
ATOM      6  C   UNL     1     145.092 126.577  98.197  0.00  0.00    +0.000 C 
ATOM      7  C   UNL     1     144.133 127.333 102.043  0.00  0.00    +0.000 C 
ATOM      8  C   UNL     1     148.350 127.244  99.155  0.00  0.00    +0.000 C 
ATOM      9  C   UNL     1     144.406 126.536  99.541  0.00  0.00    +0.000 C 
ATOM     10  C   UNL     1     148.542 126.377  97.940  0.00  0.00    +0.000 C 
ATOM     11  C   UNL     1     146.845 128.340 101.615  0.00  0.00    +0.000 C 
ATOM     12  C   UNL     1     146.055 128.542  96.935  0.00  0.00    +0.000 C 
ATOM     13  C   UNL     1     145.070 127.833 103.308  0.00  0.00    +0.000 C 
ATOM     14  C   UNL     1     143.604 126.010 102.489  0.00  0.00    +0.000 C 
ATOM     15  C   UNL     1     146.223 128.331 102.979  0.00  0.00    +0.000 C 
ATOM     16  C   UNL     1     143.007 128.392 101.859  0.00  0.00    +0.000 C 
ATOM     17  C   UNL     1     145.011 127.002 104.489  0.00  0.00    +0.000 C 
ATOM     18  C   UNL     1     143.687 125.207 103.798  0.00  0.00    +0.000 C 
ATOM     19  C   UNL     1     144.426 125.758 104.886  0.00  0.00    +0.000 C 
ENDROOT
BRANCH  19  20
ATOM     20  O   UNL     1     144.084 125.499 106.181  0.00  0.00    +0.000 OA
ATOM     21  H   UNL     1     144.363 126.217 106.774  0.00  0.00    +0.000 HD
ENDBRANCH  19  20
BRANCH   5  22
ATOM     22  C   UNL     1     147.144 125.592  95.973  0.00  0.00    +0.000 C 
ATOM     23  C   UNL     1     147.999 125.745  94.740  0.00  0.00    +0.000 C 
BRANCH  22  24
ATOM     24  C   UNL     1     146.125 124.605  95.890  0.00  0.00    +0.000 C 
ATOM     25  C   UNL     1     145.019 123.546  95.773  0.00  0.00    +0.000 C 
BRANCH  25  26
ATOM     26  C   UNL     1     143.978 122.575  95.657  0.00  0.00    +0.000 C 
ATOM     27  C   UNL     1     142.686 122.804  96.267  0.00  0.00    +0.000 C 
ATOM     28  C   UNL     1     142.362 124.072  97.034  0.00  0.00    +0.000 C 
ATOM     29  C   UNL     1     141.553 121.802  96.226  0.00  0.00    +0.000 C 
BRANCH  26  30
ATOM     30  C   UNL     1     144.206 121.376  94.931  0.00  0.00    +0.000 C 
ATOM     31  C   UNL     1     144.440 120.053  94.192  0.00  0.00    +0.000 C 
ENDBRANCH  26  30
ENDBRANCH  25  26
ENDBRANCH  22  24
ENDBRANCH   5  22
TORSDOF 5
ENDMDL
MODEL 6
REMARK VINA RESULT:      -7.5     35.282     39.068
REMARK  Name = 222284_BetaSitosterol.pdbqt.pdb
REMARK  5 active torsions:
REMARK  status: ('A' for Active; 'I' for Inactive)
REMARK    1  A    between atoms: C_5  and  C_22
REMARK    2  A    between atoms: C_19  and  O_20
REMARK    3  A    between atoms: C_22  and  C_24
REMARK    4  A    between atoms: C_25  and  C_26
REMARK    5  A    between atoms: C_26  and  C_30
REMARK                            x       y       z     vdW  Elec       q    Type
REMARK                         _______ _______ _______ _____ _____    ______ ____
ROOT
ATOM      1  C   UNL     1     142.312 124.627  97.192  0.00  0.00    +0.000 C 
ATOM      2  C   UNL     1     143.361 123.893  96.212  0.00  0.00    +0.000 C 
ATOM      3  C   UNL     1     144.284 124.651  95.342  0.00  0.00    +0.000 C 
ATOM      4  C   UNL     1     144.585 126.125  95.445  0.00  0.00    +0.000 C 
ATOM      5  C   UNL     1     142.405 123.826  98.482  0.00  0.00    +0.000 C 
ATOM      6  C   UNL     1     142.802 126.001  97.314  0.00  0.00    +0.000 C 
ATOM      7  C   UNL     1     145.506 126.888  94.454  0.00  0.00    +0.000 C 
ATOM      8  C   UNL     1     143.823 122.722  96.891  0.00  0.00    +0.000 C 
ATOM      9  C   UNL     1     143.842 126.727  96.497  0.00  0.00    +0.000 C 
ATOM     10  C   UNL     1     143.269 122.710  98.290  0.00  0.00    +0.000 C 
ATOM     11  C   UNL     1     145.092 123.993  94.383  0.00  0.00    +0.000 C 
ATOM     12  C   UNL     1     140.901 124.519  96.559  0.00  0.00    +0.000 C 
ATOM     13  C   UNL     1     146.480 125.905  93.551  0.00  0.00    +0.000 C 
ATOM     14  C   UNL     1     146.465 127.754  95.201  0.00  0.00    +0.000 C 
ATOM     15  C   UNL     1     146.144 124.651  93.542  0.00  0.00    +0.000 C 
ATOM     16  C   UNL     1     144.623 127.697  93.460  0.00  0.00    +0.000 C 
ATOM     17  C   UNL     1     147.889 126.221  93.593  0.00  0.00    +0.000 C 
ATOM     18  C   UNL     1     147.993 127.931  95.180  0.00  0.00    +0.000 C 
ATOM     19  C   UNL     1     148.757 127.120  94.291  0.00  0.00    +0.000 C 
ENDROOT
BRANCH  19  20
ATOM     20  O   UNL     1     149.925 127.568  93.747  0.00  0.00    +0.000 OA
ATOM     21  H   UNL     1     149.769 128.055  92.921  0.00  0.00    +0.000 HD
ENDBRANCH  19  20
BRANCH   5  22
ATOM     22  C   UNL     1     141.769 124.182  99.712  0.00  0.00    +0.000 C 
ATOM     23  C   UNL     1     140.296 123.965  99.952  0.00  0.00    +0.000 C 
BRANCH  22  24
ATOM     24  C   UNL     1     142.487 124.746 100.801  0.00  0.00    +0.000 C 
ATOM     25  C   UNL     1     143.280 125.369 101.959  0.00  0.00    +0.000 C 
BRANCH  25  26
ATOM     26  C   UNL     1     144.035 125.943 103.027  0.00  0.00    +0.000 C 
ATOM     27  C   UNL     1     144.987 127.001 102.769  0.00  0.00    +0.000 C 
ATOM     28  C   UNL     1     145.222 127.564 101.380  0.00  0.00    +0.000 C 
ATOM     29  C   UNL     1     145.855 127.625 103.840  0.00  0.00    +0.000 C 
BRANCH  26  30
ATOM     30  C   UNL     1     143.847 125.481 104.356  0.00  0.00    +0.000 C 
ATOM     31  C   UNL     1     143.643 124.931 105.773  0.00  0.00    +0.000 C 
ENDBRANCH  26  30
ENDBRANCH  25  26
ENDBRANCH  22  24
ENDBRANCH   5  22
TORSDOF 5
ENDMDL
MODEL 7
REMARK VINA RESULT:      -7.4     24.094     27.203
REMARK  Name = 222284_BetaSitosterol.pdbqt.pdb
REMARK  5 active torsions:
REMARK  status: ('A' for Active; 'I' for Inactive)
REMARK    1  A    between atoms: C_5  and  C_22
REMARK    2  A    between atoms: C_19  and  O_20
REMARK    3  A    between atoms: C_22  and  C_24
REMARK    4  A    between atoms: C_25  and  C_26
REMARK    5  A    between atoms: C_26  and  C_30
REMARK                            x       y       z     vdW  Elec       q    Type
REMARK                         _______ _______ _______ _____ _____    ______ ____
ROOT
ATOM      1  C   UNL     1     146.136 113.875 112.413  0.00  0.00    +0.000 C 
ATOM      2  C   UNL     1     146.497 112.725 113.485  0.00  0.00    +0.000 C 
ATOM      3  C   UNL     1     147.736 112.764 114.289  0.00  0.00    +0.000 C 
ATOM      4  C   UNL     1     148.650 113.952 114.448  0.00  0.00    +0.000 C 
ATOM      5  C   UNL     1     144.653 114.127 112.643  0.00  0.00    +0.000 C 
ATOM      6  C   UNL     1     146.989 115.010 112.771  0.00  0.00    +0.000 C 
ATOM      7  C   UNL     1     149.983 113.913 115.244  0.00  0.00    +0.000 C 
ATOM      8  C   UNL     1     145.267 112.313 114.090  0.00  0.00    +0.000 C 
ATOM      9  C   UNL     1     148.180 115.064 113.697  0.00  0.00    +0.000 C 
ATOM     10  C   UNL     1     144.154 113.201 113.603  0.00  0.00    +0.000 C 
ATOM     11  C   UNL     1     148.106 111.674 115.114  0.00  0.00    +0.000 C 
ATOM     12  C   UNL     1     146.403 113.314 110.993  0.00  0.00    +0.000 C 
ATOM     13  C   UNL     1     150.116 112.624 116.268  0.00  0.00    +0.000 C 
ATOM     14  C   UNL     1     150.081 115.099 116.145  0.00  0.00    +0.000 C 
ATOM     15  C   UNL     1     149.271 111.661 116.057  0.00  0.00    +0.000 C 
ATOM     16  C   UNL     1     151.171 113.828 114.242  0.00  0.00    +0.000 C 
ATOM     17  C   UNL     1     150.429 112.953 117.640  0.00  0.00    +0.000 C 
ATOM     18  C   UNL     1     150.363 115.287 117.645  0.00  0.00    +0.000 C 
ATOM     19  C   UNL     1     150.577 114.127 118.446  0.00  0.00    +0.000 C 
ENDROOT
BRANCH  19  20
ATOM     20  O   UNL     1     151.393 114.157 119.538  0.00  0.00    +0.000 OA
ATOM     21  H   UNL     1     152.308 113.929 119.306  0.00  0.00    +0.000 HD
ENDBRANCH  19  20
BRANCH   5  22
ATOM     22  C   UNL     1     143.899 115.175 112.030  0.00  0.00    +0.000 C 
ATOM     23  C   UNL     1     143.515 116.433 112.768  0.00  0.00    +0.000 C 
BRANCH  22  24
ATOM     24  C   UNL     1     143.476 115.111 110.674  0.00  0.00    +0.000 C 
ATOM     25  C   UNL     1     143.041 115.023 109.204  0.00  0.00    +0.000 C 
BRANCH  25  26
ATOM     26  C   UNL     1     142.654 114.943 107.832  0.00  0.00    +0.000 C 
ATOM     27  C   UNL     1     143.546 115.398 106.788  0.00  0.00    +0.000 C 
ATOM     28  C   UNL     1     144.925 115.959 107.083  0.00  0.00    +0.000 C 
ATOM     29  C   UNL     1     143.188 115.388 105.318  0.00  0.00    +0.000 C 
BRANCH  26  30
ATOM     30  C   UNL     1     141.387 114.405 107.483  0.00  0.00    +0.000 C 
ATOM     31  C   UNL     1     140.043 113.796 107.065  0.00  0.00    +0.000 C 
ENDBRANCH  26  30
ENDBRANCH  25  26
ENDBRANCH  22  24
ENDBRANCH   5  22
TORSDOF 5
ENDMDL
MODEL 8
REMARK VINA RESULT:      -7.3     23.613     27.278
REMARK  Name = 222284_BetaSitosterol.pdbqt.pdb
REMARK  5 active torsions:
REMARK  status: ('A' for Active; 'I' for Inactive)
REMARK    1  A    between atoms: C_5  and  C_22
REMARK    2  A    between atoms: C_19  and  O_20
REMARK    3  A    between atoms: C_22  and  C_24
REMARK    4  A    between atoms: C_25  and  C_26
REMARK    5  A    between atoms: C_26  and  C_30
REMARK                            x       y       z     vdW  Elec       q    Type
REMARK                         _______ _______ _______ _____ _____    ______ ____
ROOT
ATOM      1  C   UNL     1     146.829 113.681 112.785  0.00  0.00    +0.000 C 
ATOM      2  C   UNL     1     147.139 112.515 113.855  0.00  0.00    +0.000 C 
ATOM      3  C   UNL     1     148.288 112.586 114.780  0.00  0.00    +0.000 C 
ATOM      4  C   UNL     1     149.122 113.810 115.064  0.00  0.00    +0.000 C 
ATOM      5  C   UNL     1     145.321 113.856 112.871  0.00  0.00    +0.000 C 
ATOM      6  C   UNL     1     147.585 114.842 113.258  0.00  0.00    +0.000 C 
ATOM      7  C   UNL     1     150.369 113.808 115.989  0.00  0.00    +0.000 C 
ATOM      8  C   UNL     1     145.878 112.026 114.321  0.00  0.00    +0.000 C 
ATOM      9  C   UNL     1     148.673 114.922 114.301  0.00  0.00    +0.000 C 
ATOM     10  C   UNL     1     144.775 112.876 113.749  0.00  0.00    +0.000 C 
ATOM     11  C   UNL     1     148.630 111.488 115.608  0.00  0.00    +0.000 C 
ATOM     12  C   UNL     1     147.264 113.180 111.384  0.00  0.00    +0.000 C 
ATOM     13  C   UNL     1     150.464 112.494 116.986  0.00  0.00    +0.000 C 
ATOM     14  C   UNL     1     150.318 114.967 116.928  0.00  0.00    +0.000 C 
ATOM     15  C   UNL     1     149.694 111.499 116.664  0.00  0.00    +0.000 C 
ATOM     16  C   UNL     1     151.653 113.812 115.110  0.00  0.00    +0.000 C 
ATOM     17  C   UNL     1     150.622 112.792 118.391  0.00  0.00    +0.000 C 
ATOM     18  C   UNL     1     150.440 115.119 118.454  0.00  0.00    +0.000 C 
ATOM     19  C   UNL     1     150.630 113.944 119.239  0.00  0.00    +0.000 C 
ENDROOT
BRANCH  19  20
ATOM     20  O   UNL     1     151.331 113.977 120.409  0.00  0.00    +0.000 OA
ATOM     21  H   UNL     1     151.720 113.111 120.616  0.00  0.00    +0.000 HD
ENDBRANCH  19  20
BRANCH   5  22
ATOM     22  C   UNL     1     144.579 114.887 112.214  0.00  0.00    +0.000 C 
ATOM     23  C   UNL     1     143.720 115.870 112.968  0.00  0.00    +0.000 C 
BRANCH  22  24
ATOM     24  C   UNL     1     144.618 115.067 110.805  0.00  0.00    +0.000 C 
ATOM     25  C   UNL     1     144.678 115.240 109.280  0.00  0.00    +0.000 C 
BRANCH  25  26
ATOM     26  C   UNL     1     144.754 115.399 107.863  0.00  0.00    +0.000 C 
ATOM     27  C   UNL     1     143.588 115.180 107.034  0.00  0.00    +0.000 C 
ATOM     28  C   UNL     1     142.240 114.794 107.614  0.00  0.00    +0.000 C 
ATOM     29  C   UNL     1     143.603 115.283 105.525  0.00  0.00    +0.000 C 
BRANCH  26  30
ATOM     30  C   UNL     1     145.979 115.784 107.257  0.00  0.00    +0.000 C 
ATOM     31  C   UNL     1     147.325 116.202 106.653  0.00  0.00    +0.000 C 
ENDBRANCH  26  30
ENDBRANCH  25  26
ENDBRANCH  22  24
ENDBRANCH   5  22
TORSDOF 5
ENDMDL
MODEL 9
REMARK VINA RESULT:      -7.3      3.159      6.624
REMARK  Name = 222284_BetaSitosterol.pdbqt.pdb
REMARK  5 active torsions:
REMARK  status: ('A' for Active; 'I' for Inactive)
REMARK    1  A    between atoms: C_5  and  C_22
REMARK    2  A    between atoms: C_19  and  O_20
REMARK    3  A    between atoms: C_22  and  C_24
REMARK    4  A    between atoms: C_25  and  C_26
REMARK    5  A    between atoms: C_26  and  C_30
REMARK                            x       y       z     vdW  Elec       q    Type
REMARK                         _______ _______ _______ _____ _____    ______ ____
ROOT
ATOM      1  C   UNL     1     134.132 122.009 140.914  0.00  0.00    +0.000 C 
ATOM      2  C   UNL     1     135.582 122.482 140.389  0.00  0.00    +0.000 C 
ATOM      3  C   UNL     1     136.014 122.278 138.991  0.00  0.00    +0.000 C 
ATOM      4  C   UNL     1     135.123 121.897 137.836  0.00  0.00    +0.000 C 
ATOM      5  C   UNL     1     133.664 123.172 141.774  0.00  0.00    +0.000 C 
ATOM      6  C   UNL     1     133.334 121.812 139.702  0.00  0.00    +0.000 C 
ATOM      7  C   UNL     1     135.645 121.619 136.400  0.00  0.00    +0.000 C 
ATOM      8  C   UNL     1     135.892 123.708 141.059  0.00  0.00    +0.000 C 
ATOM      9  C   UNL     1     133.776 121.733 138.261  0.00  0.00    +0.000 C 
ATOM     10  C   UNL     1     134.701 124.144 141.869  0.00  0.00    +0.000 C 
ATOM     11  C   UNL     1     137.341 122.565 138.587  0.00  0.00    +0.000 C 
ATOM     12  C   UNL     1     134.320 120.720 141.755  0.00  0.00    +0.000 C 
ATOM     13  C   UNL     1     137.167 122.195 136.115  0.00  0.00    +0.000 C 
ATOM     14  C   UNL     1     134.799 122.330 135.396  0.00  0.00    +0.000 C 
ATOM     15  C   UNL     1     137.846 122.510 137.176  0.00  0.00    +0.000 C 
ATOM     16  C   UNL     1     135.684 120.082 136.162  0.00  0.00    +0.000 C 
ATOM     17  C   UNL     1     137.300 123.048 134.957  0.00  0.00    +0.000 C 
ATOM     18  C   UNL     1     135.094 123.288 134.229  0.00  0.00    +0.000 C 
ATOM     19  C   UNL     1     136.449 123.654 133.978  0.00  0.00    +0.000 C 
ENDROOT
BRANCH  19  20
ATOM     20  O   UNL     1     136.885 123.942 132.718  0.00  0.00    +0.000 OA
ATOM     21  H   UNL     1     137.613 124.587 132.732  0.00  0.00    +0.000 HD
ENDBRANCH  19  20
BRANCH   5  22
ATOM     22  C   UNL     1     132.358 123.293 142.344  0.00  0.00    +0.000 C 
ATOM     23  C   UNL     1     131.997 122.674 143.671  0.00  0.00    +0.000 C 
BRANCH  22  24
ATOM     24  C   UNL     1     131.318 124.021 141.708  0.00  0.00    +0.000 C 
ATOM     25  C   UNL     1     130.191 124.788 140.999  0.00  0.00    +0.000 C 
BRANCH  25  26
ATOM     26  C   UNL     1     129.153 125.498 140.324  0.00  0.00    +0.000 C 
ATOM     27  C   UNL     1     127.928 124.827 139.946  0.00  0.00    +0.000 C 
ATOM     28  C   UNL     1     127.673 123.364 140.256  0.00  0.00    +0.000 C 
ATOM     29  C   UNL     1     126.805 125.500 139.188  0.00  0.00    +0.000 C 
BRANCH  26  30
ATOM     30  C   UNL     1     129.315 126.877 140.025  0.00  0.00    +0.000 C 
ATOM     31  C   UNL     1     129.458 128.378 139.746  0.00  0.00    +0.000 C 
ENDBRANCH  26  30
ENDBRANCH  25  26
ENDBRANCH  22  24
ENDBRANCH   5  22
TORSDOF 5
ENDMDL
