MODEL 1
REMARK VINA RESULT:      -7.2      0.000      0.000
REMARK  Name = 25023738_BI-D-1870.pdbqt.pdb
REMARK  4 active torsions:
REMARK  status: ('A' for Active; 'I' for Inactive)
REMARK    1  A    between atoms: N_2  and  C_26
REMARK    2  A    between atoms: N_14  and  C_16
REMARK    3  A    between atoms: C_20  and  O_24
REMARK    4  A    between atoms: C_27  and  C_28
REMARK                            x       y       z     vdW  Elec       q    Type
REMARK                         _______ _______ _______ _____ _____    ______ ____
ROOT
ATOM      1  O   UNL     1     139.866 123.337 100.008  0.00  0.00    +0.000 OA
ATOM      2  N   UNL     1     142.694 124.739  98.241  0.00  0.00    +0.000 N 
ATOM      3  N   UNL     1     140.872 125.420 100.280  0.00  0.00    +0.000 N 
ATOM      4  N   UNL     1     143.759 126.860  98.482  0.00  0.00    +0.000 NA
ATOM      5  N   UNL     1     143.025 128.444 100.047  0.00  0.00    +0.000 NA
ATOM      6  C   UNL     1     141.729 123.821  98.594  0.00  0.00    +0.000 C 
ATOM      7  C   UNL     1     142.790 125.998  98.869  0.00  0.00    +0.000 A 
ATOM      8  C   UNL     1     140.736 124.150  99.681  0.00  0.00    +0.000 C 
ATOM      9  C   UNL     1     141.893 126.317  99.864  0.00  0.00    +0.000 A 
ATOM     10  C   UNL     1     141.664 122.472  97.885  0.00  0.00    +0.000 C 
ATOM     11  C   UNL     1     140.007 125.914 101.346  0.00  0.00    +0.000 C 
ATOM     12  C   UNL     1     142.072 127.568 100.414  0.00  0.00    +0.000 A 
ATOM     13  C   UNL     1     143.853 128.058  99.078  0.00  0.00    +0.000 A 
ATOM     14  N   UNL     1     144.832 128.971  98.709  0.00  0.00    +0.000 N 
ATOM     15  H   UNL     1     144.761 129.820  99.256  0.00  0.00    +0.000 HD
ENDROOT
BRANCH  14  16
ATOM     16  C   UNL     1     145.850 128.902  97.751  0.00  0.00    +0.000 A 
ATOM     17  C   UNL     1     147.047 129.596  97.975  0.00  0.00    +0.000 A 
ATOM     18  C   UNL     1     148.083 129.550  97.044  0.00  0.00    +0.000 A 
ATOM     19  F   UNL     1     149.213 130.228  97.296  0.00  0.00    +0.000 F 
ATOM     20  C   UNL     1     147.947 128.817  95.874  0.00  0.00    +0.000 A 
ATOM     21  C   UNL     1     146.764 128.128  95.644  0.00  0.00    +0.000 A 
ATOM     22  F   UNL     1     146.621 127.415  94.517  0.00  0.00    +0.000 F 
ATOM     23  C   UNL     1     145.725 128.167  96.570  0.00  0.00    +0.000 A 
BRANCH  20  24
ATOM     24  O   UNL     1     148.966 128.777  94.965  0.00  0.00    +0.000 OA
ATOM     25  H   UNL     1     148.620 128.386  94.140  0.00  0.00    +0.000 HD
ENDBRANCH  20  24
ENDBRANCH  14  16
BRANCH   2  26
ATOM     26  C   UNL     1     143.656 124.426  97.187  0.00  0.00    +0.000 C 
ATOM     27  C   UNL     1     144.668 124.093  96.084  0.00  0.00    +0.000 C 
BRANCH  27  28
ATOM     28  C   UNL     1     145.598 123.790  95.065  0.00  0.00    +0.000 C 
ATOM     29  C   UNL     1     145.120 123.221  93.764  0.00  0.00    +0.000 C 
ATOM     30  C   UNL     1     147.062 123.990  95.307  0.00  0.00    +0.000 C 
ENDBRANCH  27  28
ENDBRANCH   2  26
TORSDOF 4
ENDMDL
MODEL 2
REMARK VINA RESULT:      -7.1      2.933      4.090
REMARK  Name = 25023738_BI-D-1870.pdbqt.pdb
REMARK  4 active torsions:
REMARK  status: ('A' for Active; 'I' for Inactive)
REMARK    1  A    between atoms: N_2  and  C_26
REMARK    2  A    between atoms: N_14  and  C_16
REMARK    3  A    between atoms: C_20  and  O_24
REMARK    4  A    between atoms: C_27  and  C_28
REMARK                            x       y       z     vdW  Elec       q    Type
REMARK                         _______ _______ _______ _____ _____    ______ ____
ROOT
ATOM      1  O   UNL     1     141.716 126.362 103.639  0.00  0.00    +0.000 OA
ATOM      2  N   UNL     1     143.279 126.857 100.414  0.00  0.00    +0.000 N 
ATOM      3  N   UNL     1     143.982 126.364 103.098  0.00  0.00    +0.000 N 
ATOM      4  N   UNL     1     145.588 126.869  99.811  0.00  0.00    +0.000 NA
ATOM      5  N   UNL     1     147.283 126.527 101.392  0.00  0.00    +0.000 NA
ATOM      6  C   UNL     1     142.271 126.737 101.346  0.00  0.00    +0.000 C 
ATOM      7  C   UNL     1     144.639 126.742 100.768  0.00  0.00    +0.000 A 
ATOM      8  C   UNL     1     142.609 126.473 102.793  0.00  0.00    +0.000 C 
ATOM      9  C   UNL     1     144.968 126.501 102.083  0.00  0.00    +0.000 A 
ATOM     10  C   UNL     1     140.815 126.871 100.915  0.00  0.00    +0.000 C 
ATOM     11  C   UNL     1     144.500 126.111 104.438  0.00  0.00    +0.000 C 
ATOM     12  C   UNL     1     146.321 126.404 102.325  0.00  0.00    +0.000 A 
ATOM     13  C   UNL     1     146.882 126.759 100.144  0.00  0.00    +0.000 A 
ATOM     14  N   UNL     1     147.884 126.883  99.191  0.00  0.00    +0.000 N 
ATOM     15  H   UNL     1     148.799 126.773  99.611  0.00  0.00    +0.000 HD
ENDROOT
BRANCH  14  16
ATOM     16  C   UNL     1     147.829 127.121  97.813  0.00  0.00    +0.000 A 
ATOM     17  C   UNL     1     147.482 126.071  96.952  0.00  0.00    +0.000 A 
ATOM     18  C   UNL     1     147.417 126.271  95.574  0.00  0.00    +0.000 A 
ATOM     19  F   UNL     1     147.081 125.241  94.783  0.00  0.00    +0.000 F 
ATOM     20  C   UNL     1     147.697 127.517  95.029  0.00  0.00    +0.000 A 
ATOM     21  C   UNL     1     148.042 128.561  95.875  0.00  0.00    +0.000 A 
ATOM     22  F   UNL     1     148.313 129.769  95.360  0.00  0.00    +0.000 F 
ATOM     23  C   UNL     1     148.108 128.370  97.252  0.00  0.00    +0.000 A 
BRANCH  20  24
ATOM     24  O   UNL     1     147.631 127.705  93.677  0.00  0.00    +0.000 OA
ATOM     25  H   UNL     1     147.303 128.610  93.514  0.00  0.00    +0.000 HD
ENDBRANCH  20  24
ENDBRANCH  14  16
BRANCH   2  26
ATOM     26  C   UNL     1     142.958 127.115  99.012  0.00  0.00    +0.000 C 
ATOM     27  C   UNL     1     142.618 127.381  97.541  0.00  0.00    +0.000 C 
BRANCH  27  28
ATOM     28  C   UNL     1     142.307 127.631  96.186  0.00  0.00    +0.000 C 
ATOM     29  C   UNL     1     141.025 128.319  95.830  0.00  0.00    +0.000 C 
ATOM     30  C   UNL     1     143.235 127.161  95.108  0.00  0.00    +0.000 C 
ENDBRANCH  27  28
ENDBRANCH   2  26
TORSDOF 4
ENDMDL
MODEL 3
REMARK VINA RESULT:      -6.8      2.994      4.243
REMARK  Name = 25023738_BI-D-1870.pdbqt.pdb
REMARK  4 active torsions:
REMARK  status: ('A' for Active; 'I' for Inactive)
REMARK    1  A    between atoms: N_2  and  C_26
REMARK    2  A    between atoms: N_14  and  C_16
REMARK    3  A    between atoms: C_20  and  O_24
REMARK    4  A    between atoms: C_27  and  C_28
REMARK                            x       y       z     vdW  Elec       q    Type
REMARK                         _______ _______ _______ _____ _____    ______ ____
ROOT
ATOM      1  O   UNL     1     143.152 126.109 102.439  0.00  0.00    +0.000 OA
ATOM      2  N   UNL     1     144.592 125.208  99.245  0.00  0.00    +0.000 N 
ATOM      3  N   UNL     1     145.083 126.927 101.423  0.00  0.00    +0.000 N 
ATOM      4  N   UNL     1     146.561 126.014  98.164  0.00  0.00    +0.000 NA
ATOM      5  N   UNL     1     147.929 127.647  99.140  0.00  0.00    +0.000 NA
ATOM      6  C   UNL     1     143.707 125.199 100.301  0.00  0.00    +0.000 C 
ATOM      7  C   UNL     1     145.725 126.048  99.228  0.00  0.00    +0.000 A 
ATOM      8  C   UNL     1     143.936 126.106 101.485  0.00  0.00    +0.000 C 
ATOM      9  C   UNL     1     145.952 126.883 100.299  0.00  0.00    +0.000 A 
ATOM     10  C   UNL     1     142.495 124.274 100.273  0.00  0.00    +0.000 C 
ATOM     11  C   UNL     1     145.469 127.866 102.471  0.00  0.00    +0.000 C 
ATOM     12  C   UNL     1     147.083 127.661 100.187  0.00  0.00    +0.000 A 
ATOM     13  C   UNL     1     147.639 126.812  98.145  0.00  0.00    +0.000 A 
ATOM     14  N   UNL     1     148.520 126.806  97.073  0.00  0.00    +0.000 N 
ATOM     15  H   UNL     1     149.275 127.464  97.220  0.00  0.00    +0.000 HD
ENDROOT
BRANCH  14  16
ATOM     16  C   UNL     1     148.528 126.070  95.883  0.00  0.00    +0.000 A 
ATOM     17  C   UNL     1     148.012 126.651  94.716  0.00  0.00    +0.000 A 
ATOM     18  C   UNL     1     148.004 125.949  93.512  0.00  0.00    +0.000 A 
ATOM     19  F   UNL     1     147.502 126.540  92.418  0.00  0.00    +0.000 F 
ATOM     20  C   UNL     1     148.506 124.656  93.448  0.00  0.00    +0.000 A 
ATOM     21  C   UNL     1     149.017 124.073  94.599  0.00  0.00    +0.000 A 
ATOM     22  F   UNL     1     149.506 122.825  94.549  0.00  0.00    +0.000 F 
ATOM     23  C   UNL     1     149.031 124.769  95.804  0.00  0.00    +0.000 A 
BRANCH  20  24
ATOM     24  O   UNL     1     148.494 123.973  92.264  0.00  0.00    +0.000 OA
ATOM     25  H   UNL     1     148.126 123.084  92.433  0.00  0.00    +0.000 HD
ENDBRANCH  20  24
ENDBRANCH  14  16
BRANCH   2  26
ATOM     26  C   UNL     1     144.373 124.333  98.095  0.00  0.00    +0.000 C 
ATOM     27  C   UNL     1     144.145 123.411  96.891  0.00  0.00    +0.000 C 
BRANCH  27  28
ATOM     28  C   UNL     1     143.933 122.566  95.779  0.00  0.00    +0.000 C 
ATOM     29  C   UNL     1     142.694 121.727  95.706  0.00  0.00    +0.000 C 
ATOM     30  C   UNL     1     144.970 122.473  94.704  0.00  0.00    +0.000 C 
ENDBRANCH  27  28
ENDBRANCH   2  26
TORSDOF 4
ENDMDL
MODEL 4
REMARK VINA RESULT:      -6.5      3.733      7.248
REMARK  Name = 25023738_BI-D-1870.pdbqt.pdb
REMARK  4 active torsions:
REMARK  status: ('A' for Active; 'I' for Inactive)
REMARK    1  A    between atoms: N_2  and  C_26
REMARK    2  A    between atoms: N_14  and  C_16
REMARK    3  A    between atoms: C_20  and  O_24
REMARK    4  A    between atoms: C_27  and  C_28
REMARK                            x       y       z     vdW  Elec       q    Type
REMARK                         _______ _______ _______ _____ _____    ______ ____
ROOT
ATOM      1  O   UNL     1     147.046 125.631  92.378  0.00  0.00    +0.000 OA
ATOM      2  N   UNL     1     144.819 126.427  95.115  0.00  0.00    +0.000 N 
ATOM      3  N   UNL     1     147.121 124.891  94.585  0.00  0.00    +0.000 N 
ATOM      4  N   UNL     1     144.853 125.697  97.386  0.00  0.00    +0.000 NA
ATOM      5  N   UNL     1     146.496 124.232  98.192  0.00  0.00    +0.000 NA
ATOM      6  C   UNL     1     145.338 126.439  93.839  0.00  0.00    +0.000 C 
ATOM      7  C   UNL     1     145.405 125.671  96.151  0.00  0.00    +0.000 A 
ATOM      8  C   UNL     1     146.569 125.629  93.517  0.00  0.00    +0.000 C 
ATOM      9  C   UNL     1     146.530 124.925  95.878  0.00  0.00    +0.000 A 
ATOM     10  C   UNL     1     144.667 127.271  92.751  0.00  0.00    +0.000 C 
ATOM     11  C   UNL     1     148.308 124.051  94.467  0.00  0.00    +0.000 C 
ATOM     12  C   UNL     1     147.027 124.224  96.956  0.00  0.00    +0.000 A 
ATOM     13  C   UNL     1     145.409 124.979  98.374  0.00  0.00    +0.000 A 
ATOM     14  N   UNL     1     144.872 124.980  99.654  0.00  0.00    +0.000 N 
ATOM     15  H   UNL     1     145.412 124.388 100.274  0.00  0.00    +0.000 HD
ENDROOT
BRANCH  14  16
ATOM     16  C   UNL     1     143.761 125.637 100.194  0.00  0.00    +0.000 A 
ATOM     17  C   UNL     1     142.513 124.999 100.172  0.00  0.00    +0.000 A 
ATOM     18  C   UNL     1     141.384 125.622 100.701  0.00  0.00    +0.000 A 
ATOM     19  F   UNL     1     140.208 124.979 100.661  0.00  0.00    +0.000 F 
ATOM     20  C   UNL     1     141.475 126.890 101.258  0.00  0.00    +0.000 A 
ATOM     21  C   UNL     1     142.707 127.529 101.282  0.00  0.00    +0.000 A 
ATOM     22  F   UNL     1     142.809 128.754 101.820  0.00  0.00    +0.000 F 
ATOM     23  C   UNL     1     143.840 126.912 100.758  0.00  0.00    +0.000 A 
BRANCH  20  24
ATOM     24  O   UNL     1     140.364 127.496 101.774  0.00  0.00    +0.000 OA
ATOM     25  H   UNL     1     140.586 128.429 101.956  0.00  0.00    +0.000 HD
ENDBRANCH  20  24
ENDBRANCH  14  16
BRANCH   2  26
ATOM     26  C   UNL     1     143.625 127.208  95.431  0.00  0.00    +0.000 C 
ATOM     27  C   UNL     1     142.371 128.027  95.758  0.00  0.00    +0.000 C 
BRANCH  27  28
ATOM     28  C   UNL     1     141.216 128.782  96.064  0.00  0.00    +0.000 C 
ATOM     29  C   UNL     1     140.186 129.032  95.005  0.00  0.00    +0.000 C 
ATOM     30  C   UNL     1     141.052 129.373  97.430  0.00  0.00    +0.000 C 
ENDBRANCH  27  28
ENDBRANCH   2  26
TORSDOF 4
ENDMDL
MODEL 5
REMARK VINA RESULT:      -6.2      4.063      5.607
REMARK  Name = 25023738_BI-D-1870.pdbqt.pdb
REMARK  4 active torsions:
REMARK  status: ('A' for Active; 'I' for Inactive)
REMARK    1  A    between atoms: N_2  and  C_26
REMARK    2  A    between atoms: N_14  and  C_16
REMARK    3  A    between atoms: C_20  and  O_24
REMARK    4  A    between atoms: C_27  and  C_28
REMARK                            x       y       z     vdW  Elec       q    Type
REMARK                         _______ _______ _______ _____ _____    ______ ____
ROOT
ATOM      1  O   UNL     1     141.844 128.813  92.061  0.00  0.00    +0.000 OA
ATOM      2  N   UNL     1     143.659 127.501  94.902  0.00  0.00    +0.000 N 
ATOM      3  N   UNL     1     141.342 128.999  94.328  0.00  0.00    +0.000 N 
ATOM      4  N   UNL     1     143.187 127.664  97.235  0.00  0.00    +0.000 NA
ATOM      5  N   UNL     1     141.307 128.807  98.042  0.00  0.00    +0.000 NA
ATOM      6  C   UNL     1     143.359 127.768  93.584  0.00  0.00    +0.000 C 
ATOM      7  C   UNL     1     142.844 127.956  95.959  0.00  0.00    +0.000 A 
ATOM      8  C   UNL     1     142.126 128.567  93.237  0.00  0.00    +0.000 C 
ATOM      9  C   UNL     1     141.715 128.687  95.664  0.00  0.00    +0.000 A 
ATOM     10  C   UNL     1     144.272 127.256  92.475  0.00  0.00    +0.000 C 
ATOM     11  C   UNL     1     140.118 129.781  94.191  0.00  0.00    +0.000 C 
ATOM     12  C   UNL     1     140.987 129.083  96.765  0.00  0.00    +0.000 A 
ATOM     13  C   UNL     1     142.414 128.095  98.243  0.00  0.00    +0.000 A 
ATOM     14  N   UNL     1     142.733 127.817  99.565  0.00  0.00    +0.000 N 
ATOM     15  H   UNL     1     142.046 128.214 100.195  0.00  0.00    +0.000 HD
ENDROOT
BRANCH  14  16
ATOM     16  C   UNL     1     143.797 127.108 100.133  0.00  0.00    +0.000 A 
ATOM     17  C   UNL     1     143.531 125.930 100.844  0.00  0.00    +0.000 A 
ATOM     18  C   UNL     1     144.566 125.197 101.423  0.00  0.00    +0.000 A 
ATOM     19  F   UNL     1     144.270 124.075 102.095  0.00  0.00    +0.000 F 
ATOM     20  C   UNL     1     145.882 125.623 101.306  0.00  0.00    +0.000 A 
ATOM     21  C   UNL     1     146.153 126.789 100.605  0.00  0.00    +0.000 A 
ATOM     22  F   UNL     1     147.421 127.211 100.484  0.00  0.00    +0.000 F 
ATOM     23  C   UNL     1     145.126 127.526 100.023  0.00  0.00    +0.000 A 
BRANCH  20  24
ATOM     24  O   UNL     1     146.891 124.900 101.877  0.00  0.00    +0.000 OA
ATOM     25  H   UNL     1     146.739 124.879 102.842  0.00  0.00    +0.000 HD
ENDBRANCH  20  24
ENDBRANCH  14  16
BRANCH   2  26
ATOM     26  C   UNL     1     144.852 126.730  95.243  0.00  0.00    +0.000 C 
ATOM     27  C   UNL     1     146.105 125.923  95.605  0.00  0.00    +0.000 C 
BRANCH  27  28
ATOM     28  C   UNL     1     147.258 125.176  95.934  0.00  0.00    +0.000 C 
ATOM     29  C   UNL     1     147.240 124.260  97.119  0.00  0.00    +0.000 C 
ATOM     30  C   UNL     1     148.509 125.343  95.128  0.00  0.00    +0.000 C 
ENDBRANCH  27  28
ENDBRANCH   2  26
TORSDOF 4
ENDMDL
MODEL 6
REMARK VINA RESULT:      -6.1     31.334     33.602
REMARK  Name = 25023738_BI-D-1870.pdbqt.pdb
REMARK  4 active torsions:
REMARK  status: ('A' for Active; 'I' for Inactive)
REMARK    1  A    between atoms: N_2  and  C_26
REMARK    2  A    between atoms: N_14  and  C_16
REMARK    3  A    between atoms: C_20  and  O_24
REMARK    4  A    between atoms: C_27  and  C_28
REMARK                            x       y       z     vdW  Elec       q    Type
REMARK                         _______ _______ _______ _____ _____    ______ ____
ROOT
ATOM      1  O   UNL     1     151.825 137.434 134.154  0.00  0.00    +0.000 OA
ATOM      2  N   UNL     1     150.912 136.107 130.914  0.00  0.00    +0.000 N 
ATOM      3  N   UNL     1     152.160 135.290 133.305  0.00  0.00    +0.000 N 
ATOM      4  N   UNL     1     151.232 133.926 130.001  0.00  0.00    +0.000 NA
ATOM      5  N   UNL     1     152.281 132.216 131.215  0.00  0.00    +0.000 NA
ATOM      6  C   UNL     1     151.040 137.024 131.935  0.00  0.00    +0.000 C 
ATOM      7  C   UNL     1     151.386 134.784 131.036  0.00  0.00    +0.000 A 
ATOM      8  C   UNL     1     151.703 136.623 133.230  0.00  0.00    +0.000 C 
ATOM      9  C   UNL     1     151.994 134.399 132.210  0.00  0.00    +0.000 A 
ATOM     10  C   UNL     1     150.513 138.443 131.756  0.00  0.00    +0.000 C 
ATOM     11  C   UNL     1     152.824 134.722 134.474  0.00  0.00    +0.000 C 
ATOM     12  C   UNL     1     152.421 133.089 132.230  0.00  0.00    +0.000 A 
ATOM     13  C   UNL     1     151.682 132.667 130.114  0.00  0.00    +0.000 A 
ATOM     14  N   UNL     1     151.543 131.757 129.075  0.00  0.00    +0.000 N 
ATOM     15  H   UNL     1     151.935 130.858 129.327  0.00  0.00    +0.000 HD
ENDROOT
BRANCH  14  16
ATOM     16  C   UNL     1     150.975 131.882 127.803  0.00  0.00    +0.000 A 
ATOM     17  C   UNL     1     151.815 132.044 126.692  0.00  0.00    +0.000 A 
ATOM     18  C   UNL     1     151.285 132.171 125.409  0.00  0.00    +0.000 A 
ATOM     19  F   UNL     1     152.122 132.325 124.373  0.00  0.00    +0.000 F 
ATOM     20  C   UNL     1     149.911 132.140 125.209  0.00  0.00    +0.000 A 
ATOM     21  C   UNL     1     149.073 131.981 126.303  0.00  0.00    +0.000 A 
ATOM     22  F   UNL     1     147.745 131.948 126.121  0.00  0.00    +0.000 F 
ATOM     23  C   UNL     1     149.595 131.852 127.587  0.00  0.00    +0.000 A 
BRANCH  20  24
ATOM     24  O   UNL     1     149.399 132.266 123.948  0.00  0.00    +0.000 OA
ATOM     25  H   UNL     1     149.695 133.124 123.587  0.00  0.00    +0.000 HD
ENDBRANCH  20  24
ENDBRANCH  14  16
BRANCH   2  26
ATOM     26  C   UNL     1     150.273 136.490 129.658  0.00  0.00    +0.000 C 
ATOM     27  C   UNL     1     149.599 136.889 128.339  0.00  0.00    +0.000 C 
BRANCH  27  28
ATOM     28  C   UNL     1     148.981 137.260 127.125  0.00  0.00    +0.000 C 
ATOM     29  C   UNL     1     148.671 136.217 126.096  0.00  0.00    +0.000 C 
ATOM     30  C   UNL     1     148.685 138.702 126.849  0.00  0.00    +0.000 C 
ENDBRANCH  27  28
ENDBRANCH   2  26
TORSDOF 4
ENDMDL
MODEL 7
REMARK VINA RESULT:      -6.1     36.606     40.048
REMARK  Name = 25023738_BI-D-1870.pdbqt.pdb
REMARK  4 active torsions:
REMARK  status: ('A' for Active; 'I' for Inactive)
REMARK    1  A    between atoms: N_2  and  C_26
REMARK    2  A    between atoms: N_14  and  C_16
REMARK    3  A    between atoms: C_20  and  O_24
REMARK    4  A    between atoms: C_27  and  C_28
REMARK                            x       y       z     vdW  Elec       q    Type
REMARK                         _______ _______ _______ _____ _____    ______ ____
ROOT
ATOM      1  O   UNL     1     130.525 117.500 138.434  0.00  0.00    +0.000 OA
ATOM      2  N   UNL     1     133.219 119.731 137.508  0.00  0.00    +0.000 N 
ATOM      3  N   UNL     1     131.479 117.848 136.337  0.00  0.00    +0.000 N 
ATOM      4  N   UNL     1     134.228 120.122 135.382  0.00  0.00    +0.000 NA
ATOM      5  N   UNL     1     133.525 118.995 133.451  0.00  0.00    +0.000 NA
ATOM      6  C   UNL     1     132.301 119.093 138.315  0.00  0.00    +0.000 C 
ATOM      7  C   UNL     1     133.308 119.466 136.126  0.00  0.00    +0.000 A 
ATOM      8  C   UNL     1     131.353 118.079 137.724  0.00  0.00    +0.000 C 
ATOM      9  C   UNL     1     132.451 118.543 135.568  0.00  0.00    +0.000 A 
ATOM     10  C   UNL     1     132.243 119.413 139.805  0.00  0.00    +0.000 C 
ATOM     11  C   UNL     1     130.652 116.906 135.591  0.00  0.00    +0.000 C 
ATOM     12  C   UNL     1     132.618 118.356 134.212  0.00  0.00    +0.000 A 
ATOM     13  C   UNL     1     134.315 119.871 134.067  0.00  0.00    +0.000 A 
ATOM     14  N   UNL     1     135.247 120.524 133.271  0.00  0.00    +0.000 N 
ATOM     15  H   UNL     1     135.177 120.219 132.308  0.00  0.00    +0.000 HD
ENDROOT
BRANCH  14  16
ATOM     16  C   UNL     1     136.214 121.488 133.575  0.00  0.00    +0.000 A 
ATOM     17  C   UNL     1     137.096 121.259 134.640  0.00  0.00    +0.000 A 
ATOM     18  C   UNL     1     138.073 122.196 134.971  0.00  0.00    +0.000 A 
ATOM     19  F   UNL     1     138.897 121.940 135.998  0.00  0.00    +0.000 F 
ATOM     20  C   UNL     1     138.189 123.377 134.251  0.00  0.00    +0.000 A 
ATOM     21  C   UNL     1     137.319 123.612 133.196  0.00  0.00    +0.000 A 
ATOM     22  F   UNL     1     137.422 124.749 132.492  0.00  0.00    +0.000 F 
ATOM     23  C   UNL     1     136.342 122.680 132.858  0.00  0.00    +0.000 A 
BRANCH  20  24
ATOM     24  O   UNL     1     139.148 124.292 134.583  0.00  0.00    +0.000 OA
ATOM     25  H   UNL     1     139.665 123.930 135.329  0.00  0.00    +0.000 HD
ENDBRANCH  20  24
ENDBRANCH  14  16
BRANCH   2  26
ATOM     26  C   UNL     1     134.140 120.712 138.076  0.00  0.00    +0.000 C 
ATOM     27  C   UNL     1     135.103 121.745 138.674  0.00  0.00    +0.000 C 
BRANCH  27  28
ATOM     28  C   UNL     1     135.994 122.693 139.224  0.00  0.00    +0.000 C 
ATOM     29  C   UNL     1     137.424 122.719 138.778  0.00  0.00    +0.000 C 
ATOM     30  C   UNL     1     135.519 123.634 140.288  0.00  0.00    +0.000 C 
ENDBRANCH  27  28
ENDBRANCH   2  26
TORSDOF 4
ENDMDL
MODEL 8
REMARK VINA RESULT:      -5.7     30.631     32.932
REMARK  Name = 25023738_BI-D-1870.pdbqt.pdb
REMARK  4 active torsions:
REMARK  status: ('A' for Active; 'I' for Inactive)
REMARK    1  A    between atoms: N_2  and  C_26
REMARK    2  A    between atoms: N_14  and  C_16
REMARK    3  A    between atoms: C_20  and  O_24
REMARK    4  A    between atoms: C_27  and  C_28
REMARK                            x       y       z     vdW  Elec       q    Type
REMARK                         _______ _______ _______ _____ _____    ______ ____
ROOT
ATOM      1  O   UNL     1     149.739 139.924 132.812  0.00  0.00    +0.000 OA
ATOM      2  N   UNL     1     150.028 137.226 130.419  0.00  0.00    +0.000 N 
ATOM      3  N   UNL     1     149.160 139.904 130.555  0.00  0.00    +0.000 N 
ATOM      4  N   UNL     1     149.450 137.156 128.105  0.00  0.00    +0.000 NA
ATOM      5  N   UNL     1     148.538 139.010 126.999  0.00  0.00    +0.000 NA
ATOM      6  C   UNL     1     150.118 137.886 131.626  0.00  0.00    +0.000 C 
ATOM      7  C   UNL     1     149.516 137.852 129.263  0.00  0.00    +0.000 A 
ATOM      8  C   UNL     1     149.663 139.320 131.737  0.00  0.00    +0.000 C 
ATOM      9  C   UNL     1     149.096 139.161 129.345  0.00  0.00    +0.000 A 
ATOM     10  C   UNL     1     150.677 137.166 132.848  0.00  0.00    +0.000 C 
ATOM     11  C   UNL     1     148.675 141.277 130.468  0.00  0.00    +0.000 C 
ATOM     12  C   UNL     1     148.614 139.681 128.163  0.00  0.00    +0.000 A 
ATOM     13  C   UNL     1     148.964 137.749 127.004  0.00  0.00    +0.000 A 
ATOM     14  N   UNL     1     148.881 137.068 125.797  0.00  0.00    +0.000 N 
ATOM     15  H   UNL     1     148.493 137.660 125.073  0.00  0.00    +0.000 HD
ENDROOT
BRANCH  14  16
ATOM     16  C   UNL     1     149.233 135.761 125.443  0.00  0.00    +0.000 A 
ATOM     17  C   UNL     1     148.340 134.715 125.717  0.00  0.00    +0.000 A 
ATOM     18  C   UNL     1     148.656 133.401 125.379  0.00  0.00    +0.000 A 
ATOM     19  F   UNL     1     147.775 132.428 125.658  0.00  0.00    +0.000 F 
ATOM     20  C   UNL     1     149.865 133.102 124.764  0.00  0.00    +0.000 A 
ATOM     21  C   UNL     1     150.754 134.132 124.490  0.00  0.00    +0.000 A 
ATOM     22  F   UNL     1     151.924 133.857 123.896  0.00  0.00    +0.000 F 
ATOM     23  C   UNL     1     150.445 135.448 124.824  0.00  0.00    +0.000 A 
BRANCH  20  24
ATOM     24  O   UNL     1     150.168 131.811 124.436  0.00  0.00    +0.000 OA
ATOM     25  H   UNL     1     150.302 131.313 125.265  0.00  0.00    +0.000 HD
ENDBRANCH  20  24
ENDBRANCH  14  16
BRANCH   2  26
ATOM     26  C   UNL     1     150.464 135.837 130.306  0.00  0.00    +0.000 C 
ATOM     27  C   UNL     1     150.928 134.380 130.187  0.00  0.00    +0.000 C 
BRANCH  27  28
ATOM     28  C   UNL     1     151.350 133.036 130.079  0.00  0.00    +0.000 C 
ATOM     29  C   UNL     1     152.221 132.440 131.142  0.00  0.00    +0.000 C 
ATOM     30  C   UNL     1     150.967 132.228 128.877  0.00  0.00    +0.000 C 
ENDBRANCH  27  28
ENDBRANCH   2  26
TORSDOF 4
ENDMDL
MODEL 9
REMARK VINA RESULT:      -5.4     15.482     17.737
REMARK  Name = 25023738_BI-D-1870.pdbqt.pdb
REMARK  4 active torsions:
REMARK  status: ('A' for Active; 'I' for Inactive)
REMARK    1  A    between atoms: N_2  and  C_26
REMARK    2  A    between atoms: N_14  and  C_16
REMARK    3  A    between atoms: C_20  and  O_24
REMARK    4  A    between atoms: C_27  and  C_28
REMARK                            x       y       z     vdW  Elec       q    Type
REMARK                         _______ _______ _______ _____ _____    ______ ____
ROOT
ATOM      1  O   UNL     1     145.376 113.375 104.061  0.00  0.00    +0.000 OA
ATOM      2  N   UNL     1     143.000 114.080 106.697  0.00  0.00    +0.000 N 
ATOM      3  N   UNL     1     145.783 114.040 106.256  0.00  0.00    +0.000 N 
ATOM      4  N   UNL     1     143.366 114.762 108.954  0.00  0.00    +0.000 NA
ATOM      5  N   UNL     1     145.522 115.087 109.816  0.00  0.00    +0.000 NA
ATOM      6  C   UNL     1     143.463 113.724 105.449  0.00  0.00    +0.000 C 
ATOM      7  C   UNL     1     143.877 114.420 107.748  0.00  0.00    +0.000 A 
ATOM      8  C   UNL     1     144.947 113.691 105.175  0.00  0.00    +0.000 C 
ATOM      9  C   UNL     1     145.234 114.396 107.519  0.00  0.00    +0.000 A 
ATOM     10  C   UNL     1     142.476 113.363 104.344  0.00  0.00    +0.000 C 
ATOM     11  C   UNL     1     147.241 114.066 106.183  0.00  0.00    +0.000 C 
ATOM     12  C   UNL     1     146.004 114.744 108.607  0.00  0.00    +0.000 A 
ATOM     13  C   UNL     1     144.197 115.086 109.955  0.00  0.00    +0.000 A 
ATOM     14  N   UNL     1     143.713 115.442 111.207  0.00  0.00    +0.000 N 
ATOM     15  H   UNL     1     144.472 115.655 111.842  0.00  0.00    +0.000 HD
ENDROOT
BRANCH  14  16
ATOM     16  C   UNL     1     142.408 115.548 111.700  0.00  0.00    +0.000 A 
ATOM     17  C   UNL     1     141.894 114.519 112.500  0.00  0.00    +0.000 A 
ATOM     18  C   UNL     1     140.598 114.591 113.010  0.00  0.00    +0.000 A 
ATOM     19  F   UNL     1     140.143 113.585 113.772  0.00  0.00    +0.000 F 
ATOM     20  C   UNL     1     139.791 115.685 112.731  0.00  0.00    +0.000 A 
ATOM     21  C   UNL     1     140.292 116.708 111.938  0.00  0.00    +0.000 A 
ATOM     22  F   UNL     1     139.523 117.771 111.662  0.00  0.00    +0.000 F 
ATOM     23  C   UNL     1     141.585 116.645 111.427  0.00  0.00    +0.000 A 
BRANCH  20  24
ATOM     24  O   UNL     1     138.522 115.748 113.233  0.00  0.00    +0.000 OA
ATOM     25  H   UNL     1     137.927 115.290 112.608  0.00  0.00    +0.000 HD
ENDBRANCH  20  24
ENDBRANCH  14  16
BRANCH   2  26
ATOM     26  C   UNL     1     141.565 114.111 106.967  0.00  0.00    +0.000 C 
ATOM     27  C   UNL     1     140.058 114.148 107.249  0.00  0.00    +0.000 C 
BRANCH  27  28
ATOM     28  C   UNL     1     138.670 114.177 107.510  0.00  0.00    +0.000 C 
ATOM     29  C   UNL     1     137.779 115.077 106.710  0.00  0.00    +0.000 C 
ATOM     30  C   UNL     1     138.102 113.348 108.620  0.00  0.00    +0.000 C 
ENDBRANCH  27  28
ENDBRANCH   2  26
TORSDOF 4
ENDMDL
