MODEL 1
REMARK VINA RESULT:      -5.1      0.000      0.000
REMARK  Name = 26879_Levamisole.pdbqt.pdb
REMARK  1 active torsions:
REMARK  status: ('A' for Active; 'I' for Inactive)
REMARK    1  A    between atoms: C_5  and  C_9
REMARK                            x       y       z     vdW  Elec       q    Type
REMARK                         _______ _______ _______ _____ _____    ______ ____
ROOT
ATOM      1  S   UNL     1     135.930 119.537 135.103  0.00  0.00    +0.000 S 
ATOM      2  N   UNL     1     134.999 122.189 135.252  0.00  0.00    +0.000 NA
ATOM      3  N   UNL     1     137.403 121.792 135.178  0.00  0.00    +0.000 NA
ATOM      4  C   UNL     1     135.775 123.229 134.650  0.00  0.00    +0.000 C 
ATOM      5  C   UNL     1     137.166 123.046 134.716  0.00  0.00    +0.000 C 
ATOM      6  C   UNL     1     134.206 121.381 134.361  0.00  0.00    +0.000 C 
ATOM      7  C   UNL     1     136.169 121.267 135.445  0.00  0.00    +0.000 C 
ATOM      8  C   UNL     1     134.540 119.927 134.233  0.00  0.00    +0.000 C 
ENDROOT
BRANCH   5   9
ATOM      9  C   UNL     1     138.213 123.971 134.312  0.00  0.00    +0.000 A 
ATOM     10  C   UNL     1     139.475 123.954 134.914  0.00  0.00    +0.000 A 
ATOM     11  C   UNL     1     137.969 124.907 133.303  0.00  0.00    +0.000 A 
ATOM     12  C   UNL     1     140.469 124.848 134.518  0.00  0.00    +0.000 A 
ATOM     13  C   UNL     1     138.959 125.803 132.904  0.00  0.00    +0.000 A 
ATOM     14  C   UNL     1     140.209 125.773 133.512  0.00  0.00    +0.000 A 
ENDBRANCH   5   9
TORSDOF 1
ENDMDL
MODEL 2
REMARK VINA RESULT:      -4.9     33.303     34.583
REMARK  Name = 26879_Levamisole.pdbqt.pdb
REMARK  1 active torsions:
REMARK  status: ('A' for Active; 'I' for Inactive)
REMARK    1  A    between atoms: C_5  and  C_9
REMARK                            x       y       z     vdW  Elec       q    Type
REMARK                         _______ _______ _______ _____ _____    ______ ____
ROOT
ATOM      1  S   UNL     1     143.456 122.735  97.949  0.00  0.00    +0.000 S 
ATOM      2  N   UNL     1     142.268 124.273  99.986  0.00  0.00    +0.000 NA
ATOM      3  N   UNL     1     144.601 123.608 100.227  0.00  0.00    +0.000 NA
ATOM      4  C   UNL     1     143.087 125.169 100.741  0.00  0.00    +0.000 C 
ATOM      5  C   UNL     1     144.398 124.722 100.975  0.00  0.00    +0.000 C 
ATOM      6  C   UNL     1     141.879 124.713  98.671  0.00  0.00    +0.000 C 
ATOM      7  C   UNL     1     143.404 123.362  99.614  0.00  0.00    +0.000 C 
ATOM      8  C   UNL     1     142.377 123.944  97.486  0.00  0.00    +0.000 C 
ENDROOT
BRANCH   5   9
ATOM      9  C   UNL     1     145.423 125.339 101.803  0.00  0.00    +0.000 A 
ATOM     10  C   UNL     1     146.784 125.146 101.546  0.00  0.00    +0.000 A 
ATOM     11  C   UNL     1     145.057 126.141 102.888  0.00  0.00    +0.000 A 
ATOM     12  C   UNL     1     147.755 125.740 102.349  0.00  0.00    +0.000 A 
ATOM     13  C   UNL     1     146.025 126.737 103.695  0.00  0.00    +0.000 A 
ATOM     14  C   UNL     1     147.374 126.537 103.424  0.00  0.00    +0.000 A 
ENDBRANCH   5   9
TORSDOF 1
ENDMDL
MODEL 3
REMARK VINA RESULT:      -4.9     22.702     23.942
REMARK  Name = 26879_Levamisole.pdbqt.pdb
REMARK  1 active torsions:
REMARK  status: ('A' for Active; 'I' for Inactive)
REMARK    1  A    between atoms: C_5  and  C_9
REMARK                            x       y       z     vdW  Elec       q    Type
REMARK                         _______ _______ _______ _____ _____    ______ ____
ROOT
ATOM      1  S   UNL     1     131.748 131.941 112.196  0.00  0.00    +0.000 S 
ATOM      2  N   UNL     1     132.363 129.861 110.401  0.00  0.00    +0.000 NA
ATOM      3  N   UNL     1     134.091 130.636 111.935  0.00  0.00    +0.000 NA
ATOM      4  C   UNL     1     133.326 128.878 110.787  0.00  0.00    +0.000 C 
ATOM      5  C   UNL     1     134.383 129.360 111.576  0.00  0.00    +0.000 C 
ATOM      6  C   UNL     1     131.044 129.725 110.965  0.00  0.00    +0.000 C 
ATOM      7  C   UNL     1     132.910 130.925 111.310  0.00  0.00    +0.000 C 
ATOM      8  C   UNL     1     130.549 130.797 111.886  0.00  0.00    +0.000 C 
ENDROOT
BRANCH   5   9
ATOM      9  C   UNL     1     135.571 128.646 112.020  0.00  0.00    +0.000 A 
ATOM     10  C   UNL     1     136.364 127.921 111.126  0.00  0.00    +0.000 A 
ATOM     11  C   UNL     1     135.940 128.671 113.368  0.00  0.00    +0.000 A 
ATOM     12  C   UNL     1     137.497 127.239 111.565  0.00  0.00    +0.000 A 
ATOM     13  C   UNL     1     137.072 127.991 113.813  0.00  0.00    +0.000 A 
ATOM     14  C   UNL     1     137.851 127.275 112.910  0.00  0.00    +0.000 A 
ENDBRANCH   5   9
TORSDOF 1
ENDMDL
MODEL 4
REMARK VINA RESULT:      -4.7     33.185     34.509
REMARK  Name = 26879_Levamisole.pdbqt.pdb
REMARK  1 active torsions:
REMARK  status: ('A' for Active; 'I' for Inactive)
REMARK    1  A    between atoms: C_5  and  C_9
REMARK                            x       y       z     vdW  Elec       q    Type
REMARK                         _______ _______ _______ _____ _____    ______ ____
ROOT
ATOM      1  S   UNL     1     142.258 127.937  98.187  0.00  0.00    +0.000 S 
ATOM      2  N   UNL     1     142.052 128.220 100.980  0.00  0.00    +0.000 NA
ATOM      3  N   UNL     1     143.809 126.795 100.071  0.00  0.00    +0.000 NA
ATOM      4  C   UNL     1     143.239 128.127 101.773  0.00  0.00    +0.000 C 
ATOM      5  C   UNL     1     144.197 127.214 101.302  0.00  0.00    +0.000 C 
ATOM      6  C   UNL     1     141.840 129.465 100.287  0.00  0.00    +0.000 C 
ATOM      7  C   UNL     1     142.604 127.400  99.848  0.00  0.00    +0.000 C 
ATOM      8  C   UNL     1     141.849 129.456  98.790  0.00  0.00    +0.000 C 
ENDROOT
BRANCH   5   9
ATOM      9  C   UNL     1     145.438 126.805 101.943  0.00  0.00    +0.000 A 
ATOM     10  C   UNL     1     145.854 127.364 103.155  0.00  0.00    +0.000 A 
ATOM     11  C   UNL     1     146.248 125.835 101.345  0.00  0.00    +0.000 A 
ATOM     12  C   UNL     1     147.046 126.965 103.756  0.00  0.00    +0.000 A 
ATOM     13  C   UNL     1     147.441 125.432 101.942  0.00  0.00    +0.000 A 
ATOM     14  C   UNL     1     147.839 125.998 103.148  0.00  0.00    +0.000 A 
ENDBRANCH   5   9
TORSDOF 1
ENDMDL
MODEL 5
REMARK VINA RESULT:      -4.6      2.996      4.852
REMARK  Name = 26879_Levamisole.pdbqt.pdb
REMARK  1 active torsions:
REMARK  status: ('A' for Active; 'I' for Inactive)
REMARK    1  A    between atoms: C_5  and  C_9
REMARK                            x       y       z     vdW  Elec       q    Type
REMARK                         _______ _______ _______ _____ _____    ______ ____
ROOT
ATOM      1  S   UNL     1     134.269 120.790 133.170  0.00  0.00    +0.000 S 
ATOM      2  N   UNL     1     135.288 123.289 133.969  0.00  0.00    +0.000 NA
ATOM      3  N   UNL     1     134.440 121.768 135.674  0.00  0.00    +0.000 NA
ATOM      4  C   UNL     1     135.902 123.406 135.255  0.00  0.00    +0.000 C 
ATOM      5  C   UNL     1     135.329 122.609 136.260  0.00  0.00    +0.000 C 
ATOM      6  C   UNL     1     136.081 122.681 132.931  0.00  0.00    +0.000 C 
ATOM      7  C   UNL     1     134.438 122.110 134.351  0.00  0.00    +0.000 C 
ATOM      8  C   UNL     1     135.622 121.378 132.355  0.00  0.00    +0.000 C 
ENDROOT
BRANCH   5   9
ATOM      9  C   UNL     1     135.641 122.595 137.681  0.00  0.00    +0.000 A 
ATOM     10  C   UNL     1     134.637 122.676 138.651  0.00  0.00    +0.000 A 
ATOM     11  C   UNL     1     136.970 122.503 138.105  0.00  0.00    +0.000 A 
ATOM     12  C   UNL     1     134.950 122.664 140.009  0.00  0.00    +0.000 A 
ATOM     13  C   UNL     1     137.289 122.491 139.462  0.00  0.00    +0.000 A 
ATOM     14  C   UNL     1     136.278 122.571 140.414  0.00  0.00    +0.000 A 
ENDBRANCH   5   9
TORSDOF 1
ENDMDL
MODEL 6
REMARK VINA RESULT:      -4.5     33.795     35.154
REMARK  Name = 26879_Levamisole.pdbqt.pdb
REMARK  1 active torsions:
REMARK  status: ('A' for Active; 'I' for Inactive)
REMARK    1  A    between atoms: C_5  and  C_9
REMARK                            x       y       z     vdW  Elec       q    Type
REMARK                         _______ _______ _______ _____ _____    ______ ____
ROOT
ATOM      1  S   UNL     1     141.191 125.070 100.258  0.00  0.00    +0.000 S 
ATOM      2  N   UNL     1     143.001 126.038 102.185  0.00  0.00    +0.000 NA
ATOM      3  N   UNL     1     143.834 125.503  99.957  0.00  0.00    +0.000 NA
ATOM      4  C   UNL     1     144.128 126.804 101.751  0.00  0.00    +0.000 C 
ATOM      5  C   UNL     1     144.673 126.411 100.518  0.00  0.00    +0.000 C 
ATOM      6  C   UNL     1     141.736 126.725 102.229  0.00  0.00    +0.000 C 
ATOM      7  C   UNL     1     142.841 125.313 100.878  0.00  0.00    +0.000 C 
ATOM      8  C   UNL     1     140.646 126.271 101.307  0.00  0.00    +0.000 C 
ENDROOT
BRANCH   5   9
ATOM      9  C   UNL     1     145.881 126.903  99.872  0.00  0.00    +0.000 A 
ATOM     10  C   UNL     1     146.519 126.173  98.864  0.00  0.00    +0.000 A 
ATOM     11  C   UNL     1     146.432 128.128 100.259  0.00  0.00    +0.000 A 
ATOM     12  C   UNL     1     147.677 126.655  98.256  0.00  0.00    +0.000 A 
ATOM     13  C   UNL     1     147.589 128.614  99.654  0.00  0.00    +0.000 A 
ATOM     14  C   UNL     1     148.212 127.877  98.652  0.00  0.00    +0.000 A 
ENDBRANCH   5   9
TORSDOF 1
ENDMDL
MODEL 7
REMARK VINA RESULT:      -4.4     34.658     36.131
REMARK  Name = 26879_Levamisole.pdbqt.pdb
REMARK  1 active torsions:
REMARK  status: ('A' for Active; 'I' for Inactive)
REMARK    1  A    between atoms: C_5  and  C_9
REMARK                            x       y       z     vdW  Elec       q    Type
REMARK                         _______ _______ _______ _____ _____    ______ ____
ROOT
ATOM      1  S   UNL     1     146.486 126.782  96.150  0.00  0.00    +0.000 S 
ATOM      2  N   UNL     1     144.426 126.638  98.063  0.00  0.00    +0.000 NA
ATOM      3  N   UNL     1     146.714 126.172  98.765  0.00  0.00    +0.000 NA
ATOM      4  C   UNL     1     144.726 126.951  99.426  0.00  0.00    +0.000 C 
ATOM      5  C   UNL     1     146.009 126.572  99.854  0.00  0.00    +0.000 C 
ATOM      6  C   UNL     1     144.265 127.755  97.169  0.00  0.00    +0.000 C 
ATOM      7  C   UNL     1     145.837 126.250  97.719  0.00  0.00    +0.000 C 
ATOM      8  C   UNL     1     145.248 127.921  96.052  0.00  0.00    +0.000 C 
ENDROOT
BRANCH   5   9
ATOM      9  C   UNL     1     146.564 126.638 101.197  0.00  0.00    +0.000 A 
ATOM     10  C   UNL     1     147.350 125.604 101.715  0.00  0.00    +0.000 A 
ATOM     11  C   UNL     1     146.312 127.751 102.005  0.00  0.00    +0.000 A 
ATOM     12  C   UNL     1     147.873 125.679 103.005  0.00  0.00    +0.000 A 
ATOM     13  C   UNL     1     146.832 127.832 103.295  0.00  0.00    +0.000 A 
ATOM     14  C   UNL     1     147.613 126.795 103.794  0.00  0.00    +0.000 A 
ENDBRANCH   5   9
TORSDOF 1
ENDMDL
MODEL 8
REMARK VINA RESULT:      -4.3     15.684     16.793
REMARK  Name = 26879_Levamisole.pdbqt.pdb
REMARK  1 active torsions:
REMARK  status: ('A' for Active; 'I' for Inactive)
REMARK    1  A    between atoms: C_5  and  C_9
REMARK                            x       y       z     vdW  Elec       q    Type
REMARK                         _______ _______ _______ _____ _____    ______ ____
ROOT
ATOM      1  S   UNL     1     153.163 126.737 140.713  0.00  0.00    +0.000 S 
ATOM      2  N   UNL     1     151.107 127.160 138.837  0.00  0.00    +0.000 NA
ATOM      3  N   UNL     1     152.313 129.090 139.711  0.00  0.00    +0.000 NA
ATOM      4  C   UNL     1     151.200 128.278 137.951  0.00  0.00    +0.000 C 
ATOM      5  C   UNL     1     151.792 129.426 138.503  0.00  0.00    +0.000 C 
ATOM      6  C   UNL     1     151.917 126.014 138.511  0.00  0.00    +0.000 C 
ATOM      7  C   UNL     1     151.972 127.779 139.898  0.00  0.00    +0.000 C 
ATOM      8  C   UNL     1     153.009 125.622 139.458  0.00  0.00    +0.000 C 
ENDROOT
BRANCH   5   9
ATOM      9  C   UNL     1     151.919 130.747 137.907  0.00  0.00    +0.000 A 
ATOM     10  C   UNL     1     153.100 131.487 138.015  0.00  0.00    +0.000 A 
ATOM     11  C   UNL     1     150.844 131.306 137.210  0.00  0.00    +0.000 A 
ATOM     12  C   UNL     1     153.206 132.753 137.442  0.00  0.00    +0.000 A 
ATOM     13  C   UNL     1     150.944 132.571 136.635  0.00  0.00    +0.000 A 
ATOM     14  C   UNL     1     152.127 133.295 136.751  0.00  0.00    +0.000 A 
ENDBRANCH   5   9
TORSDOF 1
ENDMDL
MODEL 9
REMARK VINA RESULT:      -4.3     36.114     37.409
REMARK  Name = 26879_Levamisole.pdbqt.pdb
REMARK  1 active torsions:
REMARK  status: ('A' for Active; 'I' for Inactive)
REMARK    1  A    between atoms: C_5  and  C_9
REMARK                            x       y       z     vdW  Elec       q    Type
REMARK                         _______ _______ _______ _____ _____    ______ ____
ROOT
ATOM      1  S   UNL     1     140.919 124.984 100.328  0.00  0.00    +0.000 S 
ATOM      2  N   UNL     1     143.705 124.745  99.995  0.00  0.00    +0.000 NA
ATOM      3  N   UNL     1     142.237 123.342  98.646  0.00  0.00    +0.000 NA
ATOM      4  C   UNL     1     144.217 124.375  98.712  0.00  0.00    +0.000 C 
ATOM      5  C   UNL     1     143.418 123.473  97.991  0.00  0.00    +0.000 C 
ATOM      6  C   UNL     1     143.288 126.115 100.149  0.00  0.00    +0.000 C 
ATOM      7  C   UNL     1     142.363 124.104  99.774  0.00  0.00    +0.000 C 
ATOM      8  C   UNL     1     141.839 126.395 100.405  0.00  0.00    +0.000 C 
ENDROOT
BRANCH   5   9
ATOM      9  C   UNL     1     143.719 122.819  96.727  0.00  0.00    +0.000 A 
ATOM     10  C   UNL     1     142.978 121.722  96.277  0.00  0.00    +0.000 A 
ATOM     11  C   UNL     1     144.774 123.280  95.933  0.00  0.00    +0.000 A 
ATOM     12  C   UNL     1     143.279 121.102  95.065  0.00  0.00    +0.000 A 
ATOM     13  C   UNL     1     145.080 122.664  94.721  0.00  0.00    +0.000 A 
ATOM     14  C   UNL     1     144.331 121.575  94.288  0.00  0.00    +0.000 A 
ENDBRANCH   5   9
TORSDOF 1
ENDMDL
