MODEL 1
REMARK VINA RESULT:      -5.2      0.000      0.000
REMARK  Name = 27924_Phorbol.pdbqt.pdb
REMARK  26 active torsions:
REMARK  status: ('A' for Active; 'I' for Inactive)
REMARK    1  A    between atoms: O_1  and  C_10
REMARK    2  A    between atoms: O_1  and  C_26
REMARK    3  A    between atoms: O_2  and  C_13
REMARK    4  A    between atoms: O_2  and  C_28
REMARK    5  A    between atoms: O_3  and  C_14
REMARK    6  A    between atoms: O_4  and  C_20
REMARK    7  A    between atoms: O_7  and  C_29
REMARK    8  A    between atoms: C_11  and  C_16
REMARK    9  A    between atoms: C_11  and  C_17
REMARK   10  A    between atoms: C_15  and  C_21
REMARK   11  A    between atoms: C_22  and  C_29
REMARK   12  A    between atoms: C_26  and  C_30
REMARK   13  A    between atoms: C_27  and  C_31
REMARK   14  A    between atoms: C_28  and  C_32
REMARK   15  A    between atoms: C_32  and  C_33
REMARK   16  A    between atoms: C_33  and  C_34
REMARK   17  A    between atoms: C_34  and  C_35
REMARK   18  A    between atoms: C_35  and  C_36
REMARK   19  A    between atoms: C_36  and  C_37
REMARK   20  A    between atoms: C_37  and  C_38
REMARK   21  A    between atoms: C_38  and  C_39
REMARK   22  A    between atoms: C_39  and  C_40
REMARK   23  A    between atoms: C_40  and  C_41
REMARK   24  A    between atoms: C_41  and  C_42
REMARK   25  A    between atoms: C_42  and  C_43
REMARK   26  A    between atoms: C_43  and  C_44
REMARK                            x       y       z     vdW  Elec       q    Type
REMARK                         _______ _______ _______ _____ _____    ______ ____
ROOT
ATOM      1  O   UNL     1     133.416 136.678 144.007  0.00  0.00    +0.000 OA
ATOM      2  C   UNL     1     138.490 136.258 139.063  0.00  0.00    +0.000 C 
ATOM      3  C   UNL     1     138.120 135.933 137.628  0.00  0.00    +0.000 C 
ATOM      4  C   UNL     1     138.840 134.885 138.525  0.00  0.00    +0.000 C 
ATOM      5  C   UNL     1     137.444 136.690 140.047  0.00  0.00    +0.000 C 
ATOM      6  C   UNL     1     136.620 135.887 137.283  0.00  0.00    +0.000 C 
ATOM      7  C   UNL     1     135.911 136.421 139.686  0.00  0.00    +0.000 C 
ATOM      8  C   UNL     1     135.794 136.877 138.177  0.00  0.00    +0.000 C 
ATOM      9  C   UNL     1     140.330 134.644 138.355  0.00  0.00    +0.000 C 
ATOM     10  C   UNL     1     138.139 133.649 139.033  0.00  0.00    +0.000 C 
ATOM     11  C   UNL     1     134.985 137.146 140.788  0.00  0.00    +0.000 C 
ATOM     12  C   UNL     1     137.789 136.348 141.485  0.00  0.00    +0.000 C 
ATOM     13  C   UNL     1     135.106 136.555 142.262  0.00  0.00    +0.000 C 
ATOM     14  C   UNL     1     134.372 137.022 137.632  0.00  0.00    +0.000 C 
ATOM     15  C   UNL     1     137.521 137.299 142.405  0.00  0.00    +0.000 C 
ATOM     16  C   UNL     1     136.210 137.158 143.159  0.00  0.00    +0.000 C 
ATOM     17  C   UNL     1     133.470 137.139 140.626  0.00  0.00    +0.000 C 
ATOM     18  C   UNL     1     133.723 136.792 142.830  0.00  0.00    +0.000 C 
ATOM     19  C   UNL     1     132.755 137.017 141.751  0.00  0.00    +0.000 C 
ATOM     20  C   UNL     1     131.294 137.058 141.974  0.00  0.00    +0.000 C 
ENDROOT
BRANCH   7  21
ATOM     21  O   UNL     1     135.588 135.025 139.706  0.00  0.00    +0.000 OA
ATOM     22  H   UNL     1     134.957 134.850 138.972  0.00  0.00    +0.000 HD
ENDBRANCH   7  21
BRANCH  13  23
ATOM     23  O   UNL     1     135.220 135.111 142.247  0.00  0.00    +0.000 OA
ATOM     24  H   UNL     1     135.140 134.843 141.308  0.00  0.00    +0.000 HD
ENDBRANCH  13  23
BRANCH   3  25
ATOM     25  O   UNL     1     138.917 136.742 136.724  0.00  0.00    +0.000 OA
BRANCH  25  27
ATOM     26  O   UNL     1     138.424 138.923 136.921  0.00  0.00    +0.000 OA
ATOM     27  C   UNL     1     139.271 138.033 136.945  0.00  0.00    +0.000 C 
ATOM     28  C   UNL     1     140.696 138.341 137.298  0.00  0.00    +0.000 C 
ENDBRANCH  25  27
ENDBRANCH   3  25
BRANCH  15  29
ATOM     29  C   UNL     1     138.071 138.700 142.336  0.00  0.00    +0.000 C 
BRANCH  29  30
ATOM     30  O   UNL     1     136.995 139.587 142.082  0.00  0.00    +0.000 OA
ATOM     31  H   UNL     1     136.495 139.213 141.335  0.00  0.00    +0.000 HD
ENDBRANCH  29  30
ENDBRANCH  15  29
BRANCH   6  32
ATOM     32  O   UNL     1     136.474 136.246 135.881  0.00  0.00    +0.000 OA
BRANCH  32  34
ATOM     33  O   UNL     1     135.626 134.298 135.184  0.00  0.00    +0.000 OA
ATOM     34  C   UNL     1     135.977 135.443 134.913  0.00  0.00    +0.000 C 
BRANCH  34  35
ATOM     35  C   UNL     1     135.859 135.969 133.504  0.00  0.00    +0.000 C 
BRANCH  35  36
ATOM     36  C   UNL     1     135.455 134.873 132.525  0.00  0.00    +0.000 C 
BRANCH  36  37
ATOM     37  C   UNL     1     136.174 134.941 131.173  0.00  0.00    +0.000 C 
BRANCH  37  38
ATOM     38  C   UNL     1     137.479 134.137 131.107  0.00  0.00    +0.000 C 
BRANCH  38  39
ATOM     39  C   UNL     1     138.720 135.036 131.085  0.00  0.00    +0.000 C 
BRANCH  39  40
ATOM     40  C   UNL     1     139.381 135.200 132.456  0.00  0.00    +0.000 C 
BRANCH  40  41
ATOM     41  C   UNL     1     139.569 133.872 133.195  0.00  0.00    +0.000 C 
BRANCH  41  42
ATOM     42  C   UNL     1     139.199 133.947 134.679  0.00  0.00    +0.000 C 
BRANCH  42  43
ATOM     43  C   UNL     1     138.750 132.631 135.321  0.00  0.00    +0.000 C 
BRANCH  43  44
ATOM     44  C   UNL     1     137.992 131.671 134.399  0.00  0.00    +0.000 C 
BRANCH  44  45
ATOM     45  C   UNL     1     138.745 130.396 134.008  0.00  0.00    +0.000 C 
BRANCH  45  46
ATOM     46  C   UNL     1     140.246 130.393 134.303  0.00  0.00    +0.000 C 
ATOM     47  C   UNL     1     141.076 129.728 133.216  0.00  0.00    +0.000 C 
ENDBRANCH  45  46
ENDBRANCH  44  45
ENDBRANCH  43  44
ENDBRANCH  42  43
ENDBRANCH  41  42
ENDBRANCH  40  41
ENDBRANCH  39  40
ENDBRANCH  38  39
ENDBRANCH  37  38
ENDBRANCH  36  37
ENDBRANCH  35  36
ENDBRANCH  34  35
ENDBRANCH  32  34
ENDBRANCH   6  32
TORSDOF 20
ENDMDL
MODEL 2
REMARK VINA RESULT:      -5.0     32.595     37.413
REMARK  Name = 27924_Phorbol.pdbqt.pdb
REMARK  26 active torsions:
REMARK  status: ('A' for Active; 'I' for Inactive)
REMARK    1  A    between atoms: O_1  and  C_10
REMARK    2  A    between atoms: O_1  and  C_26
REMARK    3  A    between atoms: O_2  and  C_13
REMARK    4  A    between atoms: O_2  and  C_28
REMARK    5  A    between atoms: O_3  and  C_14
REMARK    6  A    between atoms: O_4  and  C_20
REMARK    7  A    between atoms: O_7  and  C_29
REMARK    8  A    between atoms: C_11  and  C_16
REMARK    9  A    between atoms: C_11  and  C_17
REMARK   10  A    between atoms: C_15  and  C_21
REMARK   11  A    between atoms: C_22  and  C_29
REMARK   12  A    between atoms: C_26  and  C_30
REMARK   13  A    between atoms: C_27  and  C_31
REMARK   14  A    between atoms: C_28  and  C_32
REMARK   15  A    between atoms: C_32  and  C_33
REMARK   16  A    between atoms: C_33  and  C_34
REMARK   17  A    between atoms: C_34  and  C_35
REMARK   18  A    between atoms: C_35  and  C_36
REMARK   19  A    between atoms: C_36  and  C_37
REMARK   20  A    between atoms: C_37  and  C_38
REMARK   21  A    between atoms: C_38  and  C_39
REMARK   22  A    between atoms: C_39  and  C_40
REMARK   23  A    between atoms: C_40  and  C_41
REMARK   24  A    between atoms: C_41  and  C_42
REMARK   25  A    between atoms: C_42  and  C_43
REMARK   26  A    between atoms: C_43  and  C_44
REMARK                            x       y       z     vdW  Elec       q    Type
REMARK                         _______ _______ _______ _____ _____    ______ ____
ROOT
ATOM      1  O   UNL     1     141.941 112.822 103.363  0.00  0.00    +0.000 OA
ATOM      2  C   UNL     1     140.560 113.984 110.226  0.00  0.00    +0.000 C 
ATOM      3  C   UNL     1     141.671 114.438 111.154  0.00  0.00    +0.000 C 
ATOM      4  C   UNL     1     141.104 112.992 111.235  0.00  0.00    +0.000 C 
ATOM      5  C   UNL     1     140.722 114.061 108.738  0.00  0.00    +0.000 C 
ATOM      6  C   UNL     1     143.021 114.800 110.507  0.00  0.00    +0.000 C 
ATOM      7  C   UNL     1     142.195 114.242 108.148  0.00  0.00    +0.000 C 
ATOM      8  C   UNL     1     142.830 115.367 109.057  0.00  0.00    +0.000 C 
ATOM      9  C   UNL     1     140.127 112.625 112.339  0.00  0.00    +0.000 C 
ATOM     10  C   UNL     1     141.904 111.791 110.791  0.00  0.00    +0.000 C 
ATOM     11  C   UNL     1     142.087 114.498 106.559  0.00  0.00    +0.000 C 
ATOM     12  C   UNL     1     139.898 113.031 107.987  0.00  0.00    +0.000 C 
ATOM     13  C   UNL     1     141.521 113.270 105.717  0.00  0.00    +0.000 C 
ATOM     14  C   UNL     1     144.137 115.977 108.550  0.00  0.00    +0.000 C 
ATOM     15  C   UNL     1     139.276 113.464 106.869  0.00  0.00    +0.000 C 
ATOM     16  C   UNL     1     139.987 113.195 105.554  0.00  0.00    +0.000 C 
ATOM     17  C   UNL     1     143.345 114.809 105.758  0.00  0.00    +0.000 C 
ATOM     18  C   UNL     1     142.225 113.428 104.386  0.00  0.00    +0.000 C 
ATOM     19  C   UNL     1     143.406 114.286 104.526  0.00  0.00    +0.000 C 
ATOM     20  C   UNL     1     144.416 114.449 103.458  0.00  0.00    +0.000 C 
ENDROOT
BRANCH   7  21
ATOM     21  O   UNL     1     143.002 113.072 108.340  0.00  0.00    +0.000 OA
ATOM     22  H   UNL     1     143.072 112.910 109.306  0.00  0.00    +0.000 HD
ENDBRANCH   7  21
BRANCH  13  23
ATOM     23  O   UNL     1     142.025 112.007 106.216  0.00  0.00    +0.000 OA
ATOM     24  H   UNL     1     141.255 111.402 106.250  0.00  0.00    +0.000 HD
ENDBRANCH  13  23
BRANCH   3  25
ATOM     25  O   UNL     1     141.161 115.439 112.073  0.00  0.00    +0.000 OA
BRANCH  25  27
ATOM     26  O   UNL     1     141.040 117.553 111.324  0.00  0.00    +0.000 OA
ATOM     27  C   UNL     1     140.457 116.541 111.709  0.00  0.00    +0.000 C 
ATOM     28  C   UNL     1     138.960 116.472 111.706  0.00  0.00    +0.000 C 
ENDBRANCH  25  27
ENDBRANCH   3  25
BRANCH  15  29
ATOM     29  C   UNL     1     138.315 114.624 106.850  0.00  0.00    +0.000 C 
BRANCH  29  30
ATOM     30  O   UNL     1     138.663 115.470 105.768  0.00  0.00    +0.000 OA
ATOM     31  H   UNL     1     139.036 116.281 106.156  0.00  0.00    +0.000 HD
ENDBRANCH  29  30
ENDBRANCH  15  29
BRANCH   6  32
ATOM     32  O   UNL     1     143.666 115.796 111.348  0.00  0.00    +0.000 OA
BRANCH  32  34
ATOM     33  O   UNL     1     144.133 116.068 113.518  0.00  0.00    +0.000 OA
ATOM     34  C   UNL     1     144.410 115.533 112.447  0.00  0.00    +0.000 C 
BRANCH  34  35
ATOM     35  C   UNL     1     145.576 114.582 112.342  0.00  0.00    +0.000 C 
BRANCH  35  36
ATOM     36  C   UNL     1     146.849 115.187 112.921  0.00  0.00    +0.000 C 
BRANCH  36  37
ATOM     37  C   UNL     1     148.052 115.146 111.972  0.00  0.00    +0.000 C 
BRANCH  37  38
ATOM     38  C   UNL     1     147.829 114.314 110.702  0.00  0.00    +0.000 C 
BRANCH  38  39
ATOM     39  C   UNL     1     149.113 114.137 109.884  0.00  0.00    +0.000 C 
BRANCH  39  40
ATOM     40  C   UNL     1     149.127 114.947 108.585  0.00  0.00    +0.000 C 
BRANCH  40  41
ATOM     41  C   UNL     1     147.753 115.026 107.912  0.00  0.00    +0.000 C 
BRANCH  41  42
ATOM     42  C   UNL     1     147.734 115.935 106.680  0.00  0.00    +0.000 C 
BRANCH  42  43
ATOM     43  C   UNL     1     147.486 115.237 105.340  0.00  0.00    +0.000 C 
BRANCH  43  44
ATOM     44  C   UNL     1     147.574 113.708 105.365  0.00  0.00    +0.000 C 
BRANCH  44  45
ATOM     45  C   UNL     1     148.110 113.054 104.088  0.00  0.00    +0.000 C 
BRANCH  45  46
ATOM     46  C   UNL     1     148.793 113.997 103.095  0.00  0.00    +0.000 C 
ATOM     47  C   UNL     1     150.310 113.992 103.201  0.00  0.00    +0.000 C 
ENDBRANCH  45  46
ENDBRANCH  44  45
ENDBRANCH  43  44
ENDBRANCH  42  43
ENDBRANCH  41  42
ENDBRANCH  40  41
ENDBRANCH  39  40
ENDBRANCH  38  39
ENDBRANCH  37  38
ENDBRANCH  36  37
ENDBRANCH  35  36
ENDBRANCH  34  35
ENDBRANCH  32  34
ENDBRANCH   6  32
TORSDOF 20
ENDMDL
MODEL 3
REMARK VINA RESULT:      -4.8     32.976     37.664
REMARK  Name = 27924_Phorbol.pdbqt.pdb
REMARK  26 active torsions:
REMARK  status: ('A' for Active; 'I' for Inactive)
REMARK    1  A    between atoms: O_1  and  C_10
REMARK    2  A    between atoms: O_1  and  C_26
REMARK    3  A    between atoms: O_2  and  C_13
REMARK    4  A    between atoms: O_2  and  C_28
REMARK    5  A    between atoms: O_3  and  C_14
REMARK    6  A    between atoms: O_4  and  C_20
REMARK    7  A    between atoms: O_7  and  C_29
REMARK    8  A    between atoms: C_11  and  C_16
REMARK    9  A    between atoms: C_11  and  C_17
REMARK   10  A    between atoms: C_15  and  C_21
REMARK   11  A    between atoms: C_22  and  C_29
REMARK   12  A    between atoms: C_26  and  C_30
REMARK   13  A    between atoms: C_27  and  C_31
REMARK   14  A    between atoms: C_28  and  C_32
REMARK   15  A    between atoms: C_32  and  C_33
REMARK   16  A    between atoms: C_33  and  C_34
REMARK   17  A    between atoms: C_34  and  C_35
REMARK   18  A    between atoms: C_35  and  C_36
REMARK   19  A    between atoms: C_36  and  C_37
REMARK   20  A    between atoms: C_37  and  C_38
REMARK   21  A    between atoms: C_38  and  C_39
REMARK   22  A    between atoms: C_39  and  C_40
REMARK   23  A    between atoms: C_40  and  C_41
REMARK   24  A    between atoms: C_41  and  C_42
REMARK   25  A    between atoms: C_42  and  C_43
REMARK   26  A    between atoms: C_43  and  C_44
REMARK                            x       y       z     vdW  Elec       q    Type
REMARK                         _______ _______ _______ _____ _____    ______ ____
ROOT
ATOM      1  O   UNL     1     136.788 114.134 106.955  0.00  0.00    +0.000 OA
ATOM      2  C   UNL     1     143.583 112.702 105.492  0.00  0.00    +0.000 C 
ATOM      3  C   UNL     1     144.673 113.170 106.438  0.00  0.00    +0.000 C 
ATOM      4  C   UNL     1     144.469 113.852 105.055  0.00  0.00    +0.000 C 
ATOM      5  C   UNL     1     142.148 112.679 105.926  0.00  0.00    +0.000 C 
ATOM      6  C   UNL     1     144.225 113.784 107.777  0.00  0.00    +0.000 C 
ATOM      7  C   UNL     1     141.738 113.512 107.226  0.00  0.00    +0.000 C 
ATOM      8  C   UNL     1     142.871 113.163 108.270  0.00  0.00    +0.000 C 
ATOM      9  C   UNL     1     145.402 113.517 103.903  0.00  0.00    +0.000 C 
ATOM     10  C   UNL     1     143.920 115.251 104.925  0.00  0.00    +0.000 C 
ATOM     11  C   UNL     1     140.208 113.169 107.599  0.00  0.00    +0.000 C 
ATOM     12  C   UNL     1     141.167 112.838 104.779  0.00  0.00    +0.000 C 
ATOM     13  C   UNL     1     139.131 113.643 106.525  0.00  0.00    +0.000 C 
ATOM     14  C   UNL     1     142.595 113.574 109.717  0.00  0.00    +0.000 C 
ATOM     15  C   UNL     1     140.077 112.041 104.810  0.00  0.00    +0.000 C 
ATOM     16  C   UNL     1     138.811 112.651 105.384  0.00  0.00    +0.000 C 
ATOM     17  C   UNL     1     139.590 113.750 108.864  0.00  0.00    +0.000 C 
ATOM     18  C   UNL     1     137.916 113.935 107.379  0.00  0.00    +0.000 C 
ATOM     19  C   UNL     1     138.303 114.111 108.783  0.00  0.00    +0.000 C 
ATOM     20  C   UNL     1     137.377 114.620 109.817  0.00  0.00    +0.000 C 
ENDROOT
BRANCH   7  21
ATOM     21  O   UNL     1     141.819 114.927 107.008  0.00  0.00    +0.000 OA
ATOM     22  H   UNL     1     141.158 115.165 106.321  0.00  0.00    +0.000 HD
ENDBRANCH   7  21
BRANCH  13  23
ATOM     23  O   UNL     1     139.469 114.938 105.971  0.00  0.00    +0.000 OA
ATOM     24  H   UNL     1     139.333 114.862 105.003  0.00  0.00    +0.000 HD
ENDBRANCH  13  23
BRANCH   3  25
ATOM     25  O   UNL     1     145.685 112.137 106.563  0.00  0.00    +0.000 OA
BRANCH  25  27
ATOM     26  O   UNL     1     144.858 110.295 107.544  0.00  0.00    +0.000 OA
ATOM     27  C   UNL     1     145.436 110.804 106.586  0.00  0.00    +0.000 C 
ATOM     28  C   UNL     1     145.803 109.980 105.388  0.00  0.00    +0.000 C 
ENDBRANCH  25  27
ENDBRANCH   3  25
BRANCH  15  29
ATOM     29  C   UNL     1     140.150 110.538 104.877  0.00  0.00    +0.000 C 
BRANCH  29  30
ATOM     30  O   UNL     1     140.993 110.087 103.831  0.00  0.00    +0.000 OA
ATOM     31  H   UNL     1     141.102 110.836 103.217  0.00  0.00    +0.000 HD
ENDBRANCH  29  30
ENDBRANCH  15  29
BRANCH   6  32
ATOM     32  O   UNL     1     145.271 113.533 108.756  0.00  0.00    +0.000 OA
BRANCH  32  34
ATOM     33  O   UNL     1     146.472 115.395 108.454  0.00  0.00    +0.000 OA
ATOM     34  C   UNL     1     146.197 114.431 109.163  0.00  0.00    +0.000 C 
BRANCH  34  35
ATOM     35  C   UNL     1     146.883 114.235 110.492  0.00  0.00    +0.000 C 
BRANCH  35  36
ATOM     36  C   UNL     1     146.207 115.037 111.599  0.00  0.00    +0.000 C 
BRANCH  36  37
ATOM     37  C   UNL     1     145.040 114.312 112.277  0.00  0.00    +0.000 C 
BRANCH  37  38
ATOM     38  C   UNL     1     144.279 115.159 113.305  0.00  0.00    +0.000 C 
BRANCH  38  39
ATOM     39  C   UNL     1     142.971 115.728 112.744  0.00  0.00    +0.000 C 
BRANCH  39  40
ATOM     40  C   UNL     1     143.121 117.129 112.145  0.00  0.00    +0.000 C 
BRANCH  40  41
ATOM     41  C   UNL     1     141.857 117.614 111.429  0.00  0.00    +0.000 C 
BRANCH  41  42
ATOM     42  C   UNL     1     140.708 116.603 111.477  0.00  0.00    +0.000 C 
BRANCH  42  43
ATOM     43  C   UNL     1     139.375 117.135 112.011  0.00  0.00    +0.000 C 
BRANCH  43  44
ATOM     44  C   UNL     1     138.580 116.164 112.890  0.00  0.00    +0.000 C 
BRANCH  44  45
ATOM     45  C   UNL     1     139.401 115.068 113.575  0.00  0.00    +0.000 C 
BRANCH  45  46
ATOM     46  C   UNL     1     139.134 113.639 113.098  0.00  0.00    +0.000 C 
ATOM     47  C   UNL     1     140.359 112.958 112.510  0.00  0.00    +0.000 C 
ENDBRANCH  45  46
ENDBRANCH  44  45
ENDBRANCH  43  44
ENDBRANCH  42  43
ENDBRANCH  41  42
ENDBRANCH  40  41
ENDBRANCH  39  40
ENDBRANCH  38  39
ENDBRANCH  37  38
ENDBRANCH  36  37
ENDBRANCH  35  36
ENDBRANCH  34  35
ENDBRANCH  32  34
ENDBRANCH   6  32
TORSDOF 20
ENDMDL
MODEL 4
REMARK VINA RESULT:      -4.8     24.876     31.436
REMARK  Name = 27924_Phorbol.pdbqt.pdb
REMARK  26 active torsions:
REMARK  status: ('A' for Active; 'I' for Inactive)
REMARK    1  A    between atoms: O_1  and  C_10
REMARK    2  A    between atoms: O_1  and  C_26
REMARK    3  A    between atoms: O_2  and  C_13
REMARK    4  A    between atoms: O_2  and  C_28
REMARK    5  A    between atoms: O_3  and  C_14
REMARK    6  A    between atoms: O_4  and  C_20
REMARK    7  A    between atoms: O_7  and  C_29
REMARK    8  A    between atoms: C_11  and  C_16
REMARK    9  A    between atoms: C_11  and  C_17
REMARK   10  A    between atoms: C_15  and  C_21
REMARK   11  A    between atoms: C_22  and  C_29
REMARK   12  A    between atoms: C_26  and  C_30
REMARK   13  A    between atoms: C_27  and  C_31
REMARK   14  A    between atoms: C_28  and  C_32
REMARK   15  A    between atoms: C_32  and  C_33
REMARK   16  A    between atoms: C_33  and  C_34
REMARK   17  A    between atoms: C_34  and  C_35
REMARK   18  A    between atoms: C_35  and  C_36
REMARK   19  A    between atoms: C_36  and  C_37
REMARK   20  A    between atoms: C_37  and  C_38
REMARK   21  A    between atoms: C_38  and  C_39
REMARK   22  A    between atoms: C_39  and  C_40
REMARK   23  A    between atoms: C_40  and  C_41
REMARK   24  A    between atoms: C_41  and  C_42
REMARK   25  A    between atoms: C_42  and  C_43
REMARK   26  A    between atoms: C_43  and  C_44
REMARK                            x       y       z     vdW  Elec       q    Type
REMARK                         _______ _______ _______ _____ _____    ______ ____
ROOT
ATOM      1  O   UNL     1     152.788 128.751 114.275  0.00  0.00    +0.000 OA
ATOM      2  C   UNL     1     156.495 123.239 116.772  0.00  0.00    +0.000 C 
ATOM      3  C   UNL     1     156.691 122.007 115.908  0.00  0.00    +0.000 C 
ATOM      4  C   UNL     1     155.732 121.979 117.132  0.00  0.00    +0.000 C 
ATOM      5  C   UNL     1     156.028 124.531 116.173  0.00  0.00    +0.000 C 
ATOM      6  C   UNL     1     156.219 122.094 114.444  0.00  0.00    +0.000 C 
ATOM      7  C   UNL     1     155.368 124.495 114.719  0.00  0.00    +0.000 C 
ATOM      8  C   UNL     1     156.332 123.558 113.889  0.00  0.00    +0.000 C 
ATOM      9  C   UNL     1     156.182 121.326 118.428  0.00  0.00    +0.000 C 
ATOM     10  C   UNL     1     154.233 121.906 116.974  0.00  0.00    +0.000 C 
ATOM     11  C   UNL     1     155.138 126.010 114.217  0.00  0.00    +0.000 C 
ATOM     12  C   UNL     1     155.275 125.413 117.151  0.00  0.00    +0.000 C 
ATOM     13  C   UNL     1     154.078 126.845 115.063  0.00  0.00    +0.000 C 
ATOM     14  C   UNL     1     156.132 123.567 112.374  0.00  0.00    +0.000 C 
ATOM     15  C   UNL     1     155.562 126.732 117.109  0.00  0.00    +0.000 C 
ATOM     16  C   UNL     1     154.621 127.602 116.295  0.00  0.00    +0.000 C 
ATOM     17  C   UNL     1     154.614 126.268 112.810  0.00  0.00    +0.000 C 
ATOM     18  C   UNL     1     153.497 127.787 114.030  0.00  0.00    +0.000 C 
ATOM     19  C   UNL     1     153.762 127.292 112.674  0.00  0.00    +0.000 C 
ATOM     20  C   UNL     1     153.136 127.873 111.467  0.00  0.00    +0.000 C 
ENDROOT
BRANCH   7  21
ATOM     21  O   UNL     1     154.089 123.846 114.723  0.00  0.00    +0.000 OA
ATOM     22  H   UNL     1     153.541 124.264 115.424  0.00  0.00    +0.000 HD
ENDBRANCH   7  21
BRANCH  13  23
ATOM     23  O   UNL     1     152.945 126.029 115.448  0.00  0.00    +0.000 OA
ATOM     24  H   UNL     1     153.315 125.258 115.925  0.00  0.00    +0.000 HD
ENDBRANCH  13  23
BRANCH   3  25
ATOM     25  O   UNL     1     158.044 121.508 116.070  0.00  0.00    +0.000 OA
BRANCH  25  27
ATOM     26  O   UNL     1     159.641 122.815 115.185  0.00  0.00    +0.000 OA
ATOM     27  C   UNL     1     159.151 122.285 116.181  0.00  0.00    +0.000 C 
ATOM     28  C   UNL     1     159.713 122.551 117.545  0.00  0.00    +0.000 C 
ENDBRANCH  25  27
ENDBRANCH   3  25
BRANCH  15  29
ATOM     29  C   UNL     1     156.952 127.285 117.285  0.00  0.00    +0.000 C 
BRANCH  29  30
ATOM     30  O   UNL     1     157.063 127.794 118.603  0.00  0.00    +0.000 OA
ATOM     31  H   UNL     1     156.584 127.176 119.183  0.00  0.00    +0.000 HD
ENDBRANCH  29  30
ENDBRANCH  15  29
BRANCH   6  32
ATOM     32  O   UNL     1     157.048 121.199 113.653  0.00  0.00    +0.000 OA
BRANCH  32  34
ATOM     33  O   UNL     1     156.331 119.947 111.944  0.00  0.00    +0.000 OA
ATOM     34  C   UNL     1     156.649 120.018 113.129  0.00  0.00    +0.000 C 
BRANCH  34  35
ATOM     35  C   UNL     1     156.601 118.795 114.011  0.00  0.00    +0.000 C 
BRANCH  35  36
ATOM     36  C   UNL     1     155.209 118.573 114.591  0.00  0.00    +0.000 C 
BRANCH  36  37
ATOM     37  C   UNL     1     155.172 118.497 116.122  0.00  0.00    +0.000 C 
BRANCH  37  38
ATOM     38  C   UNL     1     154.751 117.130 116.678  0.00  0.00    +0.000 C 
BRANCH  38  39
ATOM     39  C   UNL     1     154.022 117.243 118.022  0.00  0.00    +0.000 C 
BRANCH  39  40
ATOM     40  C   UNL     1     154.924 117.709 119.168  0.00  0.00    +0.000 C 
BRANCH  40  41
ATOM     41  C   UNL     1     154.144 118.070 120.436  0.00  0.00    +0.000 C 
BRANCH  41  42
ATOM     42  C   UNL     1     154.144 119.571 120.740  0.00  0.00    +0.000 C 
BRANCH  42  43
ATOM     43  C   UNL     1     153.134 120.037 121.792  0.00  0.00    +0.000 C 
BRANCH  43  44
ATOM     44  C   UNL     1     153.731 120.751 123.010  0.00  0.00    +0.000 C 
BRANCH  44  45
ATOM     45  C   UNL     1     152.821 121.783 123.682  0.00  0.00    +0.000 C 
BRANCH  45  46
ATOM     46  C   UNL     1     151.469 122.020 123.007  0.00  0.00    +0.000 C 
ATOM     47  C   UNL     1     150.776 123.293 123.467  0.00  0.00    +0.000 C 
ENDBRANCH  45  46
ENDBRANCH  44  45
ENDBRANCH  43  44
ENDBRANCH  42  43
ENDBRANCH  41  42
ENDBRANCH  40  41
ENDBRANCH  39  40
ENDBRANCH  38  39
ENDBRANCH  37  38
ENDBRANCH  36  37
ENDBRANCH  35  36
ENDBRANCH  34  35
ENDBRANCH  32  34
ENDBRANCH   6  32
TORSDOF 20
ENDMDL
MODEL 5
REMARK VINA RESULT:      -4.6     31.117     33.693
REMARK  Name = 27924_Phorbol.pdbqt.pdb
REMARK  26 active torsions:
REMARK  status: ('A' for Active; 'I' for Inactive)
REMARK    1  A    between atoms: O_1  and  C_10
REMARK    2  A    between atoms: O_1  and  C_26
REMARK    3  A    between atoms: O_2  and  C_13
REMARK    4  A    between atoms: O_2  and  C_28
REMARK    5  A    between atoms: O_3  and  C_14
REMARK    6  A    between atoms: O_4  and  C_20
REMARK    7  A    between atoms: O_7  and  C_29
REMARK    8  A    between atoms: C_11  and  C_16
REMARK    9  A    between atoms: C_11  and  C_17
REMARK   10  A    between atoms: C_15  and  C_21
REMARK   11  A    between atoms: C_22  and  C_29
REMARK   12  A    between atoms: C_26  and  C_30
REMARK   13  A    between atoms: C_27  and  C_31
REMARK   14  A    between atoms: C_28  and  C_32
REMARK   15  A    between atoms: C_32  and  C_33
REMARK   16  A    between atoms: C_33  and  C_34
REMARK   17  A    between atoms: C_34  and  C_35
REMARK   18  A    between atoms: C_35  and  C_36
REMARK   19  A    between atoms: C_36  and  C_37
REMARK   20  A    between atoms: C_37  and  C_38
REMARK   21  A    between atoms: C_38  and  C_39
REMARK   22  A    between atoms: C_39  and  C_40
REMARK   23  A    between atoms: C_40  and  C_41
REMARK   24  A    between atoms: C_41  and  C_42
REMARK   25  A    between atoms: C_42  and  C_43
REMARK   26  A    between atoms: C_43  and  C_44
REMARK                            x       y       z     vdW  Elec       q    Type
REMARK                         _______ _______ _______ _____ _____    ______ ____
ROOT
ATOM      1  O   UNL     1     137.902 114.052 116.297  0.00  0.00    +0.000 OA
ATOM      2  C   UNL     1     141.983 116.239 110.919  0.00  0.00    +0.000 C 
ATOM      3  C   UNL     1     143.481 116.001 110.963  0.00  0.00    +0.000 C 
ATOM      4  C   UNL     1     142.893 117.427 111.161  0.00  0.00    +0.000 C 
ATOM      5  C   UNL     1     141.061 115.504 111.846  0.00  0.00    +0.000 C 
ATOM      6  C   UNL     1     144.019 115.123 112.108  0.00  0.00    +0.000 C 
ATOM      7  C   UNL     1     141.692 114.784 113.124  0.00  0.00    +0.000 C 
ATOM      8  C   UNL     1     142.967 114.047 112.551  0.00  0.00    +0.000 C 
ATOM      9  C   UNL     1     142.933 118.425 110.015  0.00  0.00    +0.000 C 
ATOM     10  C   UNL     1     142.920 118.127 112.497  0.00  0.00    +0.000 C 
ATOM     11  C   UNL     1     140.546 113.906 113.841  0.00  0.00    +0.000 C 
ATOM     12  C   UNL     1     139.785 116.264 112.156  0.00  0.00    +0.000 C 
ATOM     13  C   UNL     1     139.347 114.747 114.468  0.00  0.00    +0.000 C 
ATOM     14  C   UNL     1     143.617 113.020 113.478  0.00  0.00    +0.000 C 
ATOM     15  C   UNL     1     138.646 115.538 112.169  0.00  0.00    +0.000 C 
ATOM     16  C   UNL     1     138.163 115.066 113.529  0.00  0.00    +0.000 C 
ATOM     17  C   UNL     1     140.902 113.027 115.033  0.00  0.00    +0.000 C 
ATOM     18  C   UNL     1     138.924 113.894 115.645  0.00  0.00    +0.000 C 
ATOM     19  C   UNL     1     139.986 112.950 116.007  0.00  0.00    +0.000 C 
ATOM     20  C   UNL     1     139.959 112.141 117.244  0.00  0.00    +0.000 C 
ENDROOT
BRANCH   7  21
ATOM     21  O   UNL     1     142.177 115.726 114.090  0.00  0.00    +0.000 OA
ATOM     22  H   UNL     1     142.971 115.336 114.519  0.00  0.00    +0.000 HD
ENDBRANCH   7  21
BRANCH  13  23
ATOM     23  O   UNL     1     139.824 115.965 115.091  0.00  0.00    +0.000 OA
ATOM     24  H   UNL     1     140.754 115.793 115.345  0.00  0.00    +0.000 HD
ENDBRANCH  13  23
BRANCH   3  25
ATOM     25  O   UNL     1     143.952 115.618 109.644  0.00  0.00    +0.000 OA
BRANCH  25  27
ATOM     26  O   UNL     1     143.117 113.601 109.118  0.00  0.00    +0.000 OA
ATOM     27  C   UNL     1     143.303 114.774 108.802  0.00  0.00    +0.000 C 
ATOM     28  C   UNL     1     142.746 115.320 107.522  0.00  0.00    +0.000 C 
ENDBRANCH  25  27
ENDBRANCH   3  25
BRANCH  15  29
ATOM     29  C   UNL     1     138.174 114.711 111.002  0.00  0.00    +0.000 C 
BRANCH  29  30
ATOM     30  O   UNL     1     136.760 114.633 111.057  0.00  0.00    +0.000 OA
ATOM     31  H   UNL     1     136.539 113.714 111.288  0.00  0.00    +0.000 HD
ENDBRANCH  29  30
ENDBRANCH  15  29
BRANCH   6  32
ATOM     32  O   UNL     1     145.229 114.469 111.638  0.00  0.00    +0.000 OA
BRANCH  32  34
ATOM     33  O   UNL     1     147.228 115.352 111.161  0.00  0.00    +0.000 OA
ATOM     34  C   UNL     1     146.492 114.811 111.983  0.00  0.00    +0.000 C 
BRANCH  34  35
ATOM     35  C   UNL     1     146.982 114.523 113.380  0.00  0.00    +0.000 C 
BRANCH  35  36
ATOM     36  C   UNL     1     147.609 113.138 113.482  0.00  0.00    +0.000 C 
BRANCH  36  37
ATOM     37  C   UNL     1     147.686 112.588 114.911  0.00  0.00    +0.000 C 
BRANCH  37  38
ATOM     38  C   UNL     1     148.221 111.153 115.010  0.00  0.00    +0.000 C 
BRANCH  38  39
ATOM     39  C   UNL     1     147.499 110.331 116.082  0.00  0.00    +0.000 C 
BRANCH  39  40
ATOM     40  C   UNL     1     148.288 110.202 117.388  0.00  0.00    +0.000 C 
BRANCH  40  41
ATOM     41  C   UNL     1     149.798 110.360 117.195  0.00  0.00    +0.000 C 
BRANCH  41  42
ATOM     42  C   UNL     1     150.388 111.541 117.971  0.00  0.00    +0.000 C 
BRANCH  42  43
ATOM     43  C   UNL     1     151.092 112.608 117.127  0.00  0.00    +0.000 C 
BRANCH  43  44
ATOM     44  C   UNL     1     150.345 113.938 116.986  0.00  0.00    +0.000 C 
BRANCH  44  45
ATOM     45  C   UNL     1     150.620 114.718 115.696  0.00  0.00    +0.000 C 
BRANCH  45  46
ATOM     46  C   UNL     1     151.738 114.165 114.810  0.00  0.00    +0.000 C 
ATOM     47  C   UNL     1     151.235 113.287 113.676  0.00  0.00    +0.000 C 
ENDBRANCH  45  46
ENDBRANCH  44  45
ENDBRANCH  43  44
ENDBRANCH  42  43
ENDBRANCH  41  42
ENDBRANCH  40  41
ENDBRANCH  39  40
ENDBRANCH  38  39
ENDBRANCH  37  38
ENDBRANCH  36  37
ENDBRANCH  35  36
ENDBRANCH  34  35
ENDBRANCH  32  34
ENDBRANCH   6  32
TORSDOF 20
ENDMDL
MODEL 6
REMARK VINA RESULT:      -4.6     42.165     46.921
REMARK  Name = 27924_Phorbol.pdbqt.pdb
REMARK  26 active torsions:
REMARK  status: ('A' for Active; 'I' for Inactive)
REMARK    1  A    between atoms: O_1  and  C_10
REMARK    2  A    between atoms: O_1  and  C_26
REMARK    3  A    between atoms: O_2  and  C_13
REMARK    4  A    between atoms: O_2  and  C_28
REMARK    5  A    between atoms: O_3  and  C_14
REMARK    6  A    between atoms: O_4  and  C_20
REMARK    7  A    between atoms: O_7  and  C_29
REMARK    8  A    between atoms: C_11  and  C_16
REMARK    9  A    between atoms: C_11  and  C_17
REMARK   10  A    between atoms: C_15  and  C_21
REMARK   11  A    between atoms: C_22  and  C_29
REMARK   12  A    between atoms: C_26  and  C_30
REMARK   13  A    between atoms: C_27  and  C_31
REMARK   14  A    between atoms: C_28  and  C_32
REMARK   15  A    between atoms: C_32  and  C_33
REMARK   16  A    between atoms: C_33  and  C_34
REMARK   17  A    between atoms: C_34  and  C_35
REMARK   18  A    between atoms: C_35  and  C_36
REMARK   19  A    between atoms: C_36  and  C_37
REMARK   20  A    between atoms: C_37  and  C_38
REMARK   21  A    between atoms: C_38  and  C_39
REMARK   22  A    between atoms: C_39  and  C_40
REMARK   23  A    between atoms: C_40  and  C_41
REMARK   24  A    between atoms: C_41  and  C_42
REMARK   25  A    between atoms: C_42  and  C_43
REMARK   26  A    between atoms: C_43  and  C_44
REMARK                            x       y       z     vdW  Elec       q    Type
REMARK                         _______ _______ _______ _____ _____    ______ ____
ROOT
ATOM      1  O   UNL     1     144.188 133.107  87.386  0.00  0.00    +0.000 OA
ATOM      2  C   UNL     1     141.778 127.396  90.841  0.00  0.00    +0.000 C 
ATOM      3  C   UNL     1     141.220 127.542  92.245  0.00  0.00    +0.000 C 
ATOM      4  C   UNL     1     142.602 126.872  92.001  0.00  0.00    +0.000 C 
ATOM      5  C   UNL     1     141.971 128.595  89.962  0.00  0.00    +0.000 C 
ATOM      6  C   UNL     1     141.039 128.974  92.782  0.00  0.00    +0.000 C 
ATOM      7  C   UNL     1     141.964 130.040  90.644  0.00  0.00    +0.000 C 
ATOM      8  C   UNL     1     140.727 129.988  91.626  0.00  0.00    +0.000 C 
ATOM      9  C   UNL     1     142.724 125.358  92.045  0.00  0.00    +0.000 C 
ATOM     10  C   UNL     1     143.897 127.537  92.398  0.00  0.00    +0.000 C 
ATOM     11  C   UNL     1     141.986 131.159  89.484  0.00  0.00    +0.000 C 
ATOM     12  C   UNL     1     143.078 128.422  88.939  0.00  0.00    +0.000 C 
ATOM     13  C   UNL     1     143.315 131.192  88.606  0.00  0.00    +0.000 C 
ATOM     14  C   UNL     1     140.276 131.329  92.204  0.00  0.00    +0.000 C 
ATOM     15  C   UNL     1     142.819 128.884  87.696  0.00  0.00    +0.000 C 
ATOM     16  C   UNL     1     143.347 130.269  87.368  0.00  0.00    +0.000 C 
ATOM     17  C   UNL     1     141.878 132.633  89.854  0.00  0.00    +0.000 C 
ATOM     18  C   UNL     1     143.426 132.653  88.227  0.00  0.00    +0.000 C 
ATOM     19  C   UNL     1     142.611 133.482  89.122  0.00  0.00    +0.000 C 
ATOM     20  C   UNL     1     142.685 134.958  89.144  0.00  0.00    +0.000 C 
ENDROOT
BRANCH   7  21
ATOM     21  O   UNL     1     143.117 130.254  91.468  0.00  0.00    +0.000 OA
ATOM     22  H   UNL     1     143.885 129.825  91.030  0.00  0.00    +0.000 HD
ENDBRANCH   7  21
BRANCH  13  23
ATOM     23  O   UNL     1     144.493 130.967  89.419  0.00  0.00    +0.000 OA
ATOM     24  H   UNL     1     145.140 131.654  89.155  0.00  0.00    +0.000 HD
ENDBRANCH  13  23
BRANCH   3  25
ATOM     25  O   UNL     1     140.051 126.696  92.395  0.00  0.00    +0.000 OA
BRANCH  25  27
ATOM     26  O   UNL     1     138.454 127.423  90.994  0.00  0.00    +0.000 OA
ATOM     27  C   UNL     1     139.115 126.485  91.435  0.00  0.00    +0.000 C 
ATOM     28  C   UNL     1     138.963 125.106  90.866  0.00  0.00    +0.000 C 
ENDBRANCH  25  27
ENDBRANCH   3  25
BRANCH  15  29
ATOM     29  C   UNL     1     141.638 128.439  86.874  0.00  0.00    +0.000 C 
BRANCH  29  30
ATOM     30  O   UNL     1     141.675 127.025  86.774  0.00  0.00    +0.000 OA
ATOM     31  H   UNL     1     140.751 126.727  86.694  0.00  0.00    +0.000 HD
ENDBRANCH  29  30
ENDBRANCH  15  29
BRANCH   6  32
ATOM     32  O   UNL     1     139.942 128.958  93.736  0.00  0.00    +0.000 OA
BRANCH  32  34
ATOM     33  O   UNL     1     139.068 129.046  95.793  0.00  0.00    +0.000 OA
ATOM     34  C   UNL     1     140.070 129.027  95.081  0.00  0.00    +0.000 C 
BRANCH  34  35
ATOM     35  C   UNL     1     141.448 129.081  95.693  0.00  0.00    +0.000 C 
BRANCH  35  36
ATOM     36  C   UNL     1     142.154 127.733  95.610  0.00  0.00    +0.000 C 
BRANCH  36  37
ATOM     37  C   UNL     1     141.640 126.692  96.610  0.00  0.00    +0.000 C 
BRANCH  37  38
ATOM     38  C   UNL     1     141.530 125.270  96.045  0.00  0.00    +0.000 C 
BRANCH  38  39
ATOM     39  C   UNL     1     140.539 124.402  96.829  0.00  0.00    +0.000 C 
BRANCH  39  40
ATOM     40  C   UNL     1     141.069 123.000  97.141  0.00  0.00    +0.000 C 
BRANCH  40  41
ATOM     41  C   UNL     1     142.132 122.525  96.148  0.00  0.00    +0.000 C 
BRANCH  41  42
ATOM     42  C   UNL     1     143.460 122.152  96.814  0.00  0.00    +0.000 C 
BRANCH  42  43
ATOM     43  C   UNL     1     143.668 122.691  98.232  0.00  0.00    +0.000 C 
BRANCH  43  44
ATOM     44  C   UNL     1     144.886 123.601  98.422  0.00  0.00    +0.000 C 
BRANCH  44  45
ATOM     45  C   UNL     1     145.613 124.009  97.137  0.00  0.00    +0.000 C 
BRANCH  45  46
ATOM     46  C   UNL     1     145.234 125.377  96.564  0.00  0.00    +0.000 C 
ATOM     47  C   UNL     1     145.056 125.372  95.054  0.00  0.00    +0.000 C 
ENDBRANCH  45  46
ENDBRANCH  44  45
ENDBRANCH  43  44
ENDBRANCH  42  43
ENDBRANCH  41  42
ENDBRANCH  40  41
ENDBRANCH  39  40
ENDBRANCH  38  39
ENDBRANCH  37  38
ENDBRANCH  36  37
ENDBRANCH  35  36
ENDBRANCH  34  35
ENDBRANCH  32  34
ENDBRANCH   6  32
TORSDOF 20
ENDMDL
MODEL 7
REMARK VINA RESULT:      -4.6     10.930     13.573
REMARK  Name = 27924_Phorbol.pdbqt.pdb
REMARK  26 active torsions:
REMARK  status: ('A' for Active; 'I' for Inactive)
REMARK    1  A    between atoms: O_1  and  C_10
REMARK    2  A    between atoms: O_1  and  C_26
REMARK    3  A    between atoms: O_2  and  C_13
REMARK    4  A    between atoms: O_2  and  C_28
REMARK    5  A    between atoms: O_3  and  C_14
REMARK    6  A    between atoms: O_4  and  C_20
REMARK    7  A    between atoms: O_7  and  C_29
REMARK    8  A    between atoms: C_11  and  C_16
REMARK    9  A    between atoms: C_11  and  C_17
REMARK   10  A    between atoms: C_15  and  C_21
REMARK   11  A    between atoms: C_22  and  C_29
REMARK   12  A    between atoms: C_26  and  C_30
REMARK   13  A    between atoms: C_27  and  C_31
REMARK   14  A    between atoms: C_28  and  C_32
REMARK   15  A    between atoms: C_32  and  C_33
REMARK   16  A    between atoms: C_33  and  C_34
REMARK   17  A    between atoms: C_34  and  C_35
REMARK   18  A    between atoms: C_35  and  C_36
REMARK   19  A    between atoms: C_36  and  C_37
REMARK   20  A    between atoms: C_37  and  C_38
REMARK   21  A    between atoms: C_38  and  C_39
REMARK   22  A    between atoms: C_39  and  C_40
REMARK   23  A    between atoms: C_40  and  C_41
REMARK   24  A    between atoms: C_41  and  C_42
REMARK   25  A    between atoms: C_42  and  C_43
REMARK   26  A    between atoms: C_43  and  C_44
REMARK                            x       y       z     vdW  Elec       q    Type
REMARK                         _______ _______ _______ _____ _____    ______ ____
ROOT
ATOM      1  O   UNL     1     141.911 126.664 147.496  0.00  0.00    +0.000 OA
ATOM      2  C   UNL     1     135.141 126.423 145.381  0.00  0.00    +0.000 C 
ATOM      3  C   UNL     1     134.677 125.309 144.462  0.00  0.00    +0.000 C 
ATOM      4  C   UNL     1     134.840 126.763 143.935  0.00  0.00    +0.000 C 
ATOM      5  C   UNL     1     136.445 126.321 146.115  0.00  0.00    +0.000 C 
ATOM      6  C   UNL     1     135.675 124.171 144.178  0.00  0.00    +0.000 C 
ATOM      7  C   UNL     1     137.506 125.234 145.620  0.00  0.00    +0.000 C 
ATOM      8  C   UNL     1     136.638 123.934 145.394  0.00  0.00    +0.000 C 
ATOM      9  C   UNL     1     133.613 127.638 143.742  0.00  0.00    +0.000 C 
ATOM     10  C   UNL     1     135.944 127.150 142.981  0.00  0.00    +0.000 C 
ATOM     11  C   UNL     1     138.722 125.181 146.678  0.00  0.00    +0.000 C 
ATOM     12  C   UNL     1     137.069 127.668 146.428  0.00  0.00    +0.000 C 
ATOM     13  C   UNL     1     139.596 126.509 146.766  0.00  0.00    +0.000 C 
ATOM     14  C   UNL     1     137.419 122.633 145.206  0.00  0.00    +0.000 C 
ATOM     15  C   UNL     1     137.612 127.802 147.658  0.00  0.00    +0.000 C 
ATOM     16  C   UNL     1     139.112 127.589 147.759  0.00  0.00    +0.000 C 
ATOM     17  C   UNL     1     139.829 124.149 146.504  0.00  0.00    +0.000 C 
ATOM     18  C   UNL     1     140.967 125.981 147.127  0.00  0.00    +0.000 C 
ATOM     19  C   UNL     1     141.068 124.550 146.817  0.00  0.00    +0.000 C 
ATOM     20  C   UNL     1     142.343 123.805 146.852  0.00  0.00    +0.000 C 
ENDROOT
BRANCH   7  21
ATOM     21  O   UNL     1     138.064 125.567 144.342  0.00  0.00    +0.000 OA
ATOM     22  H   UNL     1     137.552 126.323 143.977  0.00  0.00    +0.000 HD
ENDBRANCH   7  21
BRANCH  13  23
ATOM     23  O   UNL     1     139.798 127.099 145.459  0.00  0.00    +0.000 OA
ATOM     24  H   UNL     1     140.173 126.390 144.896  0.00  0.00    +0.000 HD
ENDBRANCH  13  23
BRANCH   3  25
ATOM     25  O   UNL     1     133.358 124.859 144.869  0.00  0.00    +0.000 OA
BRANCH  25  27
ATOM     26  O   UNL     1     132.119 125.680 146.552  0.00  0.00    +0.000 OA
ATOM     27  C   UNL     1     132.909 124.828 146.149  0.00  0.00    +0.000 C 
ATOM     28  C   UNL     1     133.328 123.692 147.034  0.00  0.00    +0.000 C 
ENDBRANCH  25  27
ENDBRANCH   3  25
BRANCH  15  29
ATOM     29  C   UNL     1     136.846 127.572 148.934  0.00  0.00    +0.000 C 
BRANCH  29  30
ATOM     30  O   UNL     1     137.778 127.318 149.971  0.00  0.00    +0.000 OA
ATOM     31  H   UNL     1     137.277 127.329 150.806  0.00  0.00    +0.000 HD
ENDBRANCH  29  30
ENDBRANCH  15  29
BRANCH   6  32
ATOM     32  O   UNL     1     134.911 122.964 143.908  0.00  0.00    +0.000 OA
BRANCH  32  34
ATOM     33  O   UNL     1     135.086 121.156 142.603  0.00  0.00    +0.000 OA
ATOM     34  C   UNL     1     134.813 122.349 142.707  0.00  0.00    +0.000 C 
BRANCH  34  35
ATOM     35  C   UNL     1     134.365 123.141 141.504  0.00  0.00    +0.000 C 
BRANCH  35  36
ATOM     36  C   UNL     1     135.545 123.768 140.771  0.00  0.00    +0.000 C 
BRANCH  36  37
ATOM     37  C   UNL     1     136.467 122.754 140.084  0.00  0.00    +0.000 C 
BRANCH  37  38
ATOM     38  C   UNL     1     135.865 122.092 138.837  0.00  0.00    +0.000 C 
BRANCH  38  39
ATOM     39  C   UNL     1     135.084 123.083 137.967  0.00  0.00    +0.000 C 
BRANCH  39  40
ATOM     40  C   UNL     1     134.673 122.510 136.608  0.00  0.00    +0.000 C 
BRANCH  40  41
ATOM     41  C   UNL     1     135.867 122.066 135.758  0.00  0.00    +0.000 C 
BRANCH  41  42
ATOM     42  C   UNL     1     136.461 123.195 134.911  0.00  0.00    +0.000 C 
BRANCH  42  43
ATOM     43  C   UNL     1     136.804 122.832 133.463  0.00  0.00    +0.000 C 
BRANCH  43  44
ATOM     44  C   UNL     1     136.215 121.512 132.955  0.00  0.00    +0.000 C 
BRANCH  44  45
ATOM     45  C   UNL     1     135.121 121.643 131.891  0.00  0.00    +0.000 C 
BRANCH  45  46
ATOM     46  C   UNL     1     133.940 120.680 132.029  0.00  0.00    +0.000 C 
ATOM     47  C   UNL     1     133.481 120.486 133.466  0.00  0.00    +0.000 C 
ENDBRANCH  45  46
ENDBRANCH  44  45
ENDBRANCH  43  44
ENDBRANCH  42  43
ENDBRANCH  41  42
ENDBRANCH  40  41
ENDBRANCH  39  40
ENDBRANCH  38  39
ENDBRANCH  37  38
ENDBRANCH  36  37
ENDBRANCH  35  36
ENDBRANCH  34  35
ENDBRANCH  32  34
ENDBRANCH   6  32
TORSDOF 20
ENDMDL
MODEL 8
REMARK VINA RESULT:      -4.6     15.553     21.517
REMARK  Name = 27924_Phorbol.pdbqt.pdb
REMARK  26 active torsions:
REMARK  status: ('A' for Active; 'I' for Inactive)
REMARK    1  A    between atoms: O_1  and  C_10
REMARK    2  A    between atoms: O_1  and  C_26
REMARK    3  A    between atoms: O_2  and  C_13
REMARK    4  A    between atoms: O_2  and  C_28
REMARK    5  A    between atoms: O_3  and  C_14
REMARK    6  A    between atoms: O_4  and  C_20
REMARK    7  A    between atoms: O_7  and  C_29
REMARK    8  A    between atoms: C_11  and  C_16
REMARK    9  A    between atoms: C_11  and  C_17
REMARK   10  A    between atoms: C_15  and  C_21
REMARK   11  A    between atoms: C_22  and  C_29
REMARK   12  A    between atoms: C_26  and  C_30
REMARK   13  A    between atoms: C_27  and  C_31
REMARK   14  A    between atoms: C_28  and  C_32
REMARK   15  A    between atoms: C_32  and  C_33
REMARK   16  A    between atoms: C_33  and  C_34
REMARK   17  A    between atoms: C_34  and  C_35
REMARK   18  A    between atoms: C_35  and  C_36
REMARK   19  A    between atoms: C_36  and  C_37
REMARK   20  A    between atoms: C_37  and  C_38
REMARK   21  A    between atoms: C_38  and  C_39
REMARK   22  A    between atoms: C_39  and  C_40
REMARK   23  A    between atoms: C_40  and  C_41
REMARK   24  A    between atoms: C_41  and  C_42
REMARK   25  A    between atoms: C_42  and  C_43
REMARK   26  A    between atoms: C_43  and  C_44
REMARK                            x       y       z     vdW  Elec       q    Type
REMARK                         _______ _______ _______ _____ _____    ______ ____
ROOT
ATOM      1  O   UNL     1     158.406 132.763 122.041  0.00  0.00    +0.000 OA
ATOM      2  C   UNL     1     152.256 132.401 125.563  0.00  0.00    +0.000 C 
ATOM      3  C   UNL     1     151.464 133.667 125.831  0.00  0.00    +0.000 C 
ATOM      4  C   UNL     1     152.220 132.940 126.979  0.00  0.00    +0.000 C 
ATOM      5  C   UNL     1     153.358 132.385 124.546  0.00  0.00    +0.000 C 
ATOM      6  C   UNL     1     151.958 134.960 125.156  0.00  0.00    +0.000 C 
ATOM      7  C   UNL     1     153.945 133.784 124.048  0.00  0.00    +0.000 C 
ATOM      8  C   UNL     1     152.658 134.662 123.784  0.00  0.00    +0.000 C 
ATOM      9  C   UNL     1     151.448 132.070 127.958  0.00  0.00    +0.000 C 
ATOM     10  C   UNL     1     153.455 133.523 127.621  0.00  0.00    +0.000 C 
ATOM     11  C   UNL     1     154.961 133.512 122.826  0.00  0.00    +0.000 C 
ATOM     12  C   UNL     1     154.432 131.353 124.836  0.00  0.00    +0.000 C 
ATOM     13  C   UNL     1     156.275 132.698 123.212  0.00  0.00    +0.000 C 
ATOM     14  C   UNL     1     152.883 135.961 123.010  0.00  0.00    +0.000 C 
ATOM     15  C   UNL     1     154.891 130.656 123.775  0.00  0.00    +0.000 C 
ATOM     16  C   UNL     1     156.177 131.158 123.142  0.00  0.00    +0.000 C 
ATOM     17  C   UNL     1     155.589 134.689 122.089  0.00  0.00    +0.000 C 
ATOM     18  C   UNL     1     157.301 133.244 122.243  0.00  0.00    +0.000 C 
ATOM     19  C   UNL     1     156.859 134.531 121.694  0.00  0.00    +0.000 C 
ATOM     20  C   UNL     1     157.737 135.412 120.896  0.00  0.00    +0.000 C 
ENDROOT
BRANCH   7  21
ATOM     21  O   UNL     1     154.683 134.458 125.076  0.00  0.00    +0.000 OA
ATOM     22  H   UNL     1     154.495 135.420 125.002  0.00  0.00    +0.000 HD
ENDBRANCH   7  21
BRANCH  13  23
ATOM     23  O   UNL     1     156.788 133.100 124.505  0.00  0.00    +0.000 OA
ATOM     24  H   UNL     1     156.641 132.338 125.104  0.00  0.00    +0.000 HD
ENDBRANCH  13  23
BRANCH   3  25
ATOM     25  O   UNL     1     150.048 133.404 125.652  0.00  0.00    +0.000 OA
BRANCH  25  27
ATOM     26  O   UNL     1     149.496 131.650 124.363  0.00  0.00    +0.000 OA
ATOM     27  C   UNL     1     149.492 132.867 124.536  0.00  0.00    +0.000 C 
ATOM     28  C   UNL     1     148.804 133.777 123.562  0.00  0.00    +0.000 C 
ENDBRANCH  25  27
ENDBRANCH   3  25
BRANCH  15  29
ATOM     29  C   UNL     1     154.002 129.850 122.863  0.00  0.00    +0.000 C 
BRANCH  29  30
ATOM     30  O   UNL     1     154.089 128.489 123.248  0.00  0.00    +0.000 OA
ATOM     31  H   UNL     1     154.563 128.469 124.099  0.00  0.00    +0.000 HD
ENDBRANCH  29  30
ENDBRANCH  15  29
BRANCH   6  32
ATOM     32  O   UNL     1     150.807 135.824 124.947  0.00  0.00    +0.000 OA
BRANCH  32  34
ATOM     33  O   UNL     1     149.106 136.977 125.831  0.00  0.00    +0.000 OA
ATOM     34  C   UNL     1     150.301 136.692 125.853  0.00  0.00    +0.000 C 
BRANCH  34  35
ATOM     35  C   UNL     1     151.217 137.303 126.884  0.00  0.00    +0.000 C 
BRANCH  35  36
ATOM     36  C   UNL     1     150.640 137.185 128.290  0.00  0.00    +0.000 C 
BRANCH  36  37
ATOM     37  C   UNL     1     151.059 135.914 129.036  0.00  0.00    +0.000 C 
BRANCH  37  38
ATOM     38  C   UNL     1     150.560 135.836 130.485  0.00  0.00    +0.000 C 
BRANCH  38  39
ATOM     39  C   UNL     1     151.539 136.473 131.477  0.00  0.00    +0.000 C 
BRANCH  39  40
ATOM     40  C   UNL     1     150.976 137.711 132.181  0.00  0.00    +0.000 C 
BRANCH  40  41
ATOM     41  C   UNL     1     149.448 137.784 132.137  0.00  0.00    +0.000 C 
BRANCH  41  42
ATOM     42  C   UNL     1     148.921 138.994 131.361  0.00  0.00    +0.000 C 
BRANCH  42  43
ATOM     43  C   UNL     1     149.986 139.914 130.757  0.00  0.00    +0.000 C 
BRANCH  43  44
ATOM     44  C   UNL     1     149.991 141.353 131.282  0.00  0.00    +0.000 C 
BRANCH  44  45
ATOM     45  C   UNL     1     149.606 141.522 132.755  0.00  0.00    +0.000 C 
BRANCH  45  46
ATOM     46  C   UNL     1     148.412 142.438 133.030  0.00  0.00    +0.000 C 
ATOM     47  C   UNL     1     147.076 141.710 133.021  0.00  0.00    +0.000 C 
ENDBRANCH  45  46
ENDBRANCH  44  45
ENDBRANCH  43  44
ENDBRANCH  42  43
ENDBRANCH  41  42
ENDBRANCH  40  41
ENDBRANCH  39  40
ENDBRANCH  38  39
ENDBRANCH  37  38
ENDBRANCH  36  37
ENDBRANCH  35  36
ENDBRANCH  34  35
ENDBRANCH  32  34
ENDBRANCH   6  32
TORSDOF 20
ENDMDL
MODEL 9
REMARK VINA RESULT:      -4.5     28.513     32.268
REMARK  Name = 27924_Phorbol.pdbqt.pdb
REMARK  26 active torsions:
REMARK  status: ('A' for Active; 'I' for Inactive)
REMARK    1  A    between atoms: O_1  and  C_10
REMARK    2  A    between atoms: O_1  and  C_26
REMARK    3  A    between atoms: O_2  and  C_13
REMARK    4  A    between atoms: O_2  and  C_28
REMARK    5  A    between atoms: O_3  and  C_14
REMARK    6  A    between atoms: O_4  and  C_20
REMARK    7  A    between atoms: O_7  and  C_29
REMARK    8  A    between atoms: C_11  and  C_16
REMARK    9  A    between atoms: C_11  and  C_17
REMARK   10  A    between atoms: C_15  and  C_21
REMARK   11  A    between atoms: C_22  and  C_29
REMARK   12  A    between atoms: C_26  and  C_30
REMARK   13  A    between atoms: C_27  and  C_31
REMARK   14  A    between atoms: C_28  and  C_32
REMARK   15  A    between atoms: C_32  and  C_33
REMARK   16  A    between atoms: C_33  and  C_34
REMARK   17  A    between atoms: C_34  and  C_35
REMARK   18  A    between atoms: C_35  and  C_36
REMARK   19  A    between atoms: C_36  and  C_37
REMARK   20  A    between atoms: C_37  and  C_38
REMARK   21  A    between atoms: C_38  and  C_39
REMARK   22  A    between atoms: C_39  and  C_40
REMARK   23  A    between atoms: C_40  and  C_41
REMARK   24  A    between atoms: C_41  and  C_42
REMARK   25  A    between atoms: C_42  and  C_43
REMARK   26  A    between atoms: C_43  and  C_44
REMARK                            x       y       z     vdW  Elec       q    Type
REMARK                         _______ _______ _______ _____ _____    ______ ____
ROOT
ATOM      1  O   UNL     1     144.195 116.366 111.959  0.00  0.00    +0.000 OA
ATOM      2  C   UNL     1     138.453 113.006 114.431  0.00  0.00    +0.000 C 
ATOM      3  C   UNL     1     137.196 113.794 114.750  0.00  0.00    +0.000 C 
ATOM      4  C   UNL     1     138.085 113.213 115.887  0.00  0.00    +0.000 C 
ATOM      5  C   UNL     1     139.547 113.607 113.599  0.00  0.00    +0.000 C 
ATOM      6  C   UNL     1     137.177 115.279 114.343  0.00  0.00    +0.000 C 
ATOM      7  C   UNL     1     139.555 115.191 113.394  0.00  0.00    +0.000 C 
ATOM      8  C   UNL     1     138.049 115.537 113.064  0.00  0.00    +0.000 C 
ATOM      9  C   UNL     1     137.656 111.947 116.608  0.00  0.00    +0.000 C 
ATOM     10  C   UNL     1     138.920 114.097 116.782  0.00  0.00    +0.000 C 
ATOM     11  C   UNL     1     140.691 115.566 112.313  0.00  0.00    +0.000 C 
ATOM     12  C   UNL     1     140.919 113.035 113.901  0.00  0.00    +0.000 C 
ATOM     13  C   UNL     1     142.185 115.265 112.776  0.00  0.00    +0.000 C 
ATOM     14  C   UNL     1     137.790 116.942 112.521  0.00  0.00    +0.000 C 
ATOM     15  C   UNL     1     141.708 112.781 112.835  0.00  0.00    +0.000 C 
ATOM     16  C   UNL     1     142.726 113.849 112.479  0.00  0.00    +0.000 C 
ATOM     17  C   UNL     1     140.845 117.009 111.850  0.00  0.00    +0.000 C 
ATOM     18  C   UNL     1     142.977 116.336 112.057  0.00  0.00    +0.000 C 
ATOM     19  C   UNL     1     142.097 117.431 111.633  0.00  0.00    +0.000 C 
ATOM     20  C   UNL     1     142.605 118.715 111.105  0.00  0.00    +0.000 C 
ENDROOT
BRANCH   7  21
ATOM     21  O   UNL     1     139.868 115.891 114.605  0.00  0.00    +0.000 OA
ATOM     22  H   UNL     1     139.505 116.802 114.530  0.00  0.00    +0.000 HD
ENDBRANCH   7  21
BRANCH  13  23
ATOM     23  O   UNL     1     142.382 115.584 114.175  0.00  0.00    +0.000 OA
ATOM     24  H   UNL     1     142.446 114.725 114.642  0.00  0.00    +0.000 HD
ENDBRANCH  13  23
BRANCH   3  25
ATOM     25  O   UNL     1     136.029 113.043 114.325  0.00  0.00    +0.000 OA
BRANCH  25  27
ATOM     26  O   UNL     1     135.953 112.897 112.085  0.00  0.00    +0.000 OA
ATOM     27  C   UNL     1     135.942 112.327 113.175  0.00  0.00    +0.000 C 
ATOM     28  C   UNL     1     135.916 110.831 113.257  0.00  0.00    +0.000 C 
ENDBRANCH  25  27
ENDBRANCH   3  25
BRANCH  15  29
ATOM     29  C   UNL     1     141.301 111.881 111.697  0.00  0.00    +0.000 C 
BRANCH  29  30
ATOM     30  O   UNL     1     140.957 110.615 112.234  0.00  0.00    +0.000 OA
ATOM     31  H   UNL     1     139.988 110.541 112.175  0.00  0.00    +0.000 HD
ENDBRANCH  29  30
ENDBRANCH  15  29
BRANCH   6  32
ATOM     32  O   UNL     1     135.796 115.654 114.086  0.00  0.00    +0.000 OA
BRANCH  32  34
ATOM     33  O   UNL     1     135.221 117.682 114.832  0.00  0.00    +0.000 OA
ATOM     34  C   UNL     1     135.044 116.466 114.863  0.00  0.00    +0.000 C 
BRANCH  34  35
ATOM     35  C   UNL     1     133.993 115.866 115.762  0.00  0.00    +0.000 C 
BRANCH  35  36
ATOM     36  C   UNL     1     132.662 116.599 115.641  0.00  0.00    +0.000 C 
BRANCH  36  37
ATOM     37  C   UNL     1     132.342 117.519 116.825  0.00  0.00    +0.000 C 
BRANCH  37  38
ATOM     38  C   UNL     1     130.974 118.208 116.740  0.00  0.00    +0.000 C 
BRANCH  38  39
ATOM     39  C   UNL     1     130.208 117.836 115.465  0.00  0.00    +0.000 C 
BRANCH  39  40
ATOM     40  C   UNL     1     129.452 119.012 114.841  0.00  0.00    +0.000 C 
BRANCH  40  41
ATOM     41  C   UNL     1     130.011 120.375 115.260  0.00  0.00    +0.000 C 
BRANCH  41  42
ATOM     42  C   UNL     1     130.925 121.005 114.206  0.00  0.00    +0.000 C 
BRANCH  42  43
ATOM     43  C   UNL     1     132.401 120.603 114.278  0.00  0.00    +0.000 C 
BRANCH  43  44
ATOM     44  C   UNL     1     132.846 119.536 113.274  0.00  0.00    +0.000 C 
BRANCH  44  45
ATOM     45  C   UNL     1     132.018 119.451 111.988  0.00  0.00    +0.000 C 
BRANCH  45  46
ATOM     46  C   UNL     1     131.416 118.080 111.673  0.00  0.00    +0.000 C 
ATOM     47  C   UNL     1     132.379 116.927 111.905  0.00  0.00    +0.000 C 
ENDBRANCH  45  46
ENDBRANCH  44  45
ENDBRANCH  43  44
ENDBRANCH  42  43
ENDBRANCH  41  42
ENDBRANCH  40  41
ENDBRANCH  39  40
ENDBRANCH  38  39
ENDBRANCH  37  38
ENDBRANCH  36  37
ENDBRANCH  35  36
ENDBRANCH  34  35
ENDBRANCH  32  34
ENDBRANCH   6  32
TORSDOF 20
ENDMDL
