MODEL 1
REMARK VINA RESULT:      -3.6      0.000      0.000
REMARK  Name = 2Methylcholine.pdbqt.pdb
REMARK  3 active torsions:
REMARK  status: ('A' for Active; 'I' for Inactive)
REMARK    1  A    between atoms: C_1  and  N_2
REMARK    2  A    between atoms: C_1  and  C_6
REMARK    3  A    between atoms: C_6  and  O_8
REMARK                            x       y       z     vdW  Elec       q    Type
REMARK                         _______ _______ _______ _____ _____    ______ ____
ROOT
ATOM      1  C   UNL     1     142.690 126.162 123.523  0.00  0.00    +0.000 C 
ENDROOT
BRANCH   1   2
ATOM      2  N   UNL     1     143.429 125.668 124.668  0.00  0.00    +0.000 N 
ATOM      3  C   UNL     1     144.620 126.494 124.888  0.00  0.00    +0.000 C 
ATOM      4  C   UNL     1     142.586 125.713 125.865  0.00  0.00    +0.000 C 
ATOM      5  C   UNL     1     143.846 124.284 124.429  0.00  0.00    +0.000 C 
ENDBRANCH   1   2
BRANCH   1   6
ATOM      6  C   UNL     1     141.987 126.665 122.420  0.00  0.00    +0.000 C 
ATOM      7  C   UNL     1     142.360 127.950 121.783  0.00  0.00    +0.000 C 
BRANCH   6   8
ATOM      8  O   UNL     1     140.928 126.005 121.875  0.00  0.00    +0.000 OA
ATOM      9  H   UNL     1     140.107 126.444 122.169  0.00  0.00    +0.000 HD
ENDBRANCH   6   8
ENDBRANCH   1   6
TORSDOF 3
ENDMDL
MODEL 2
REMARK VINA RESULT:      -3.4     12.863     14.481
REMARK  Name = 2Methylcholine.pdbqt.pdb
REMARK  3 active torsions:
REMARK  status: ('A' for Active; 'I' for Inactive)
REMARK    1  A    between atoms: C_1  and  N_2
REMARK    2  A    between atoms: C_1  and  C_6
REMARK    3  A    between atoms: C_6  and  O_8
REMARK                            x       y       z     vdW  Elec       q    Type
REMARK                         _______ _______ _______ _____ _____    ______ ____
ROOT
ATOM      1  C   UNL     1     136.680 122.688 135.830  0.00  0.00    +0.000 C 
ENDROOT
BRANCH   1   2
ATOM      2  N   UNL     1     135.762 123.208 134.836  0.00  0.00    +0.000 N 
ATOM      3  C   UNL     1     136.481 124.075 133.898  0.00  0.00    +0.000 C 
ATOM      4  C   UNL     1     135.149 122.102 134.095  0.00  0.00    +0.000 C 
ATOM      5  C   UNL     1     134.708 123.985 135.493  0.00  0.00    +0.000 C 
ENDBRANCH   1   2
BRANCH   1   6
ATOM      6  C   UNL     1     137.551 122.195 136.812  0.00  0.00    +0.000 C 
ATOM      7  C   UNL     1     137.228 122.296 138.255  0.00  0.00    +0.000 C 
BRANCH   6   8
ATOM      8  O   UNL     1     138.734 121.601 136.497  0.00  0.00    +0.000 OA
ATOM      9  H   UNL     1     138.551 120.689 136.199  0.00  0.00    +0.000 HD
ENDBRANCH   6   8
ENDBRANCH   1   6
TORSDOF 3
ENDMDL
MODEL 3
REMARK VINA RESULT:      -3.4     10.734     12.251
REMARK  Name = 2Methylcholine.pdbqt.pdb
REMARK  3 active torsions:
REMARK  status: ('A' for Active; 'I' for Inactive)
REMARK    1  A    between atoms: C_1  and  N_2
REMARK    2  A    between atoms: C_1  and  C_6
REMARK    3  A    between atoms: C_6  and  O_8
REMARK                            x       y       z     vdW  Elec       q    Type
REMARK                         _______ _______ _______ _____ _____    ______ ____
ROOT
ATOM      1  C   UNL     1     139.223 123.098 134.753  0.00  0.00    +0.000 C 
ENDROOT
BRANCH   1   2
ATOM      2  N   UNL     1     140.162 123.709 133.833  0.00  0.00    +0.000 N 
ATOM      3  C   UNL     1     140.505 125.058 134.292  0.00  0.00    +0.000 C 
ATOM      4  C   UNL     1     141.382 122.902 133.756  0.00  0.00    +0.000 C 
ATOM      5  C   UNL     1     139.561 123.796 132.499  0.00  0.00    +0.000 C 
ENDBRANCH   1   2
BRANCH   1   6
ATOM      6  C   UNL     1     138.293 122.517 135.627  0.00  0.00    +0.000 C 
ATOM      7  C   UNL     1     136.857 122.879 135.584  0.00  0.00    +0.000 C 
BRANCH   6   8
ATOM      8  O   UNL     1     138.656 121.593 136.558  0.00  0.00    +0.000 OA
ATOM      9  H   UNL     1     137.930 120.946 136.650  0.00  0.00    +0.000 HD
ENDBRANCH   6   8
ENDBRANCH   1   6
TORSDOF 3
ENDMDL
MODEL 4
REMARK VINA RESULT:      -3.4      7.604      9.093
REMARK  Name = 2Methylcholine.pdbqt.pdb
REMARK  3 active torsions:
REMARK  status: ('A' for Active; 'I' for Inactive)
REMARK    1  A    between atoms: C_1  and  N_2
REMARK    2  A    between atoms: C_1  and  C_6
REMARK    3  A    between atoms: C_6  and  O_8
REMARK                            x       y       z     vdW  Elec       q    Type
REMARK                         _______ _______ _______ _____ _____    ______ ____
ROOT
ATOM      1  C   UNL     1     139.471 125.283 131.692  0.00  0.00    +0.000 C 
ENDROOT
BRANCH   1   2
ATOM      2  N   UNL     1     140.364 126.270 131.118  0.00  0.00    +0.000 N 
ATOM      3  C   UNL     1     139.671 127.019 130.066  0.00  0.00    +0.000 C 
ATOM      4  C   UNL     1     140.812 127.202 132.156  0.00  0.00    +0.000 C 
ATOM      5  C   UNL     1     141.533 125.602 130.539  0.00  0.00    +0.000 C 
ENDBRANCH   1   2
BRANCH   1   6
ATOM      6  C   UNL     1     138.596 124.323 132.222  0.00  0.00    +0.000 C 
ATOM      7  C   UNL     1     137.815 124.584 133.454  0.00  0.00    +0.000 C 
BRANCH   6   8
ATOM      8  O   UNL     1     138.417 123.107 131.638  0.00  0.00    +0.000 OA
ATOM      9  H   UNL     1     139.291 122.762 131.371  0.00  0.00    +0.000 HD
ENDBRANCH   6   8
ENDBRANCH   1   6
TORSDOF 3
ENDMDL
MODEL 5
REMARK VINA RESULT:      -3.3      9.900     11.393
REMARK  Name = 2Methylcholine.pdbqt.pdb
REMARK  3 active torsions:
REMARK  status: ('A' for Active; 'I' for Inactive)
REMARK    1  A    between atoms: C_1  and  N_2
REMARK    2  A    between atoms: C_1  and  C_6
REMARK    3  A    between atoms: C_6  and  O_8
REMARK                            x       y       z     vdW  Elec       q    Type
REMARK                         _______ _______ _______ _____ _____    ______ ____
ROOT
ATOM      1  C   UNL     1     137.668 124.173 133.389  0.00  0.00    +0.000 C 
ENDROOT
BRANCH   1   2
ATOM      2  N   UNL     1     139.004 124.732 133.338  0.00  0.00    +0.000 N 
ATOM      3  C   UNL     1     139.691 124.501 134.612  0.00  0.00    +0.000 C 
ATOM      4  C   UNL     1     139.768 124.102 132.258  0.00  0.00    +0.000 C 
ATOM      5  C   UNL     1     138.928 126.174 133.091  0.00  0.00    +0.000 C 
ENDBRANCH   1   2
BRANCH   1   6
ATOM      6  C   UNL     1     136.370 123.647 133.462  0.00  0.00    +0.000 C 
ATOM      7  C   UNL     1     135.529 123.824 134.669  0.00  0.00    +0.000 C 
BRANCH   6   8
ATOM      8  O   UNL     1     135.814 122.950 132.434  0.00  0.00    +0.000 OA
ATOM      9  H   UNL     1     135.711 122.020 132.712  0.00  0.00    +0.000 HD
ENDBRANCH   6   8
ENDBRANCH   1   6
TORSDOF 3
ENDMDL
MODEL 6
REMARK VINA RESULT:      -3.2     19.925     21.347
REMARK  Name = 2Methylcholine.pdbqt.pdb
REMARK  3 active torsions:
REMARK  status: ('A' for Active; 'I' for Inactive)
REMARK    1  A    between atoms: C_1  and  N_2
REMARK    2  A    between atoms: C_1  and  C_6
REMARK    3  A    between atoms: C_6  and  O_8
REMARK                            x       y       z     vdW  Elec       q    Type
REMARK                         _______ _______ _______ _____ _____    ______ ____
ROOT
ATOM      1  C   UNL     1     145.863 126.219 102.607  0.00  0.00    +0.000 C 
ENDROOT
BRANCH   1   2
ATOM      2  N   UNL     1     144.779 126.641 103.471  0.00  0.00    +0.000 N 
ATOM      3  C   UNL     1     144.415 128.030 103.173  0.00  0.00    +0.000 C 
ATOM      4  C   UNL     1     143.610 125.783 103.263  0.00  0.00    +0.000 C 
ATOM      5  C   UNL     1     145.198 126.547 104.872  0.00  0.00    +0.000 C 
ENDBRANCH   1   2
BRANCH   1   6
ATOM      6  C   UNL     1     146.897 125.818 101.748  0.00  0.00    +0.000 C 
ATOM      7  C   UNL     1     147.383 126.698 100.659  0.00  0.00    +0.000 C 
BRANCH   6   8
ATOM      8  O   UNL     1     147.507 124.608 101.867  0.00  0.00    +0.000 OA
ATOM      9  H   UNL     1     146.893 123.920 101.546  0.00  0.00    +0.000 HD
ENDBRANCH   6   8
ENDBRANCH   1   6
TORSDOF 3
ENDMDL
MODEL 7
REMARK VINA RESULT:      -3.2     10.107     11.345
REMARK  Name = 2Methylcholine.pdbqt.pdb
REMARK  3 active torsions:
REMARK  status: ('A' for Active; 'I' for Inactive)
REMARK    1  A    between atoms: C_1  and  N_2
REMARK    2  A    between atoms: C_1  and  C_6
REMARK    3  A    between atoms: C_6  and  O_8
REMARK                            x       y       z     vdW  Elec       q    Type
REMARK                         _______ _______ _______ _____ _____    ______ ____
ROOT
ATOM      1  C   UNL     1     141.677 122.903 133.907  0.00  0.00    +0.000 C 
ENDROOT
BRANCH   1   2
ATOM      2  N   UNL     1     140.402 123.593 133.938  0.00  0.00    +0.000 N 
ATOM      3  C   UNL     1     139.917 123.805 132.571  0.00  0.00    +0.000 C 
ATOM      4  C   UNL     1     139.421 122.796 134.679  0.00  0.00    +0.000 C 
ATOM      5  C   UNL     1     140.558 124.892 134.597  0.00  0.00    +0.000 C 
ENDBRANCH   1   2
BRANCH   1   6
ATOM      6  C   UNL     1     142.923 122.260 133.879  0.00  0.00    +0.000 C 
ATOM      7  C   UNL     1     143.355 121.359 134.974  0.00  0.00    +0.000 C 
BRANCH   6   8
ATOM      8  O   UNL     1     143.800 122.427 132.852  0.00  0.00    +0.000 OA
ATOM      9  H   UNL     1     143.748 121.643 132.272  0.00  0.00    +0.000 HD
ENDBRANCH   6   8
ENDBRANCH   1   6
TORSDOF 3
ENDMDL
MODEL 8
REMARK VINA RESULT:      -3.2     19.486     20.793
REMARK  Name = 2Methylcholine.pdbqt.pdb
REMARK  3 active torsions:
REMARK  status: ('A' for Active; 'I' for Inactive)
REMARK    1  A    between atoms: C_1  and  N_2
REMARK    2  A    between atoms: C_1  and  C_6
REMARK    3  A    between atoms: C_6  and  O_8
REMARK                            x       y       z     vdW  Elec       q    Type
REMARK                         _______ _______ _______ _____ _____    ______ ____
ROOT
ATOM      1  C   UNL     1     143.044 126.894 102.918  0.00  0.00    +0.000 C 
ENDROOT
BRANCH   1   2
ATOM      2  N   UNL     1     144.423 126.726 103.334  0.00  0.00    +0.000 N 
ATOM      3  C   UNL     1     145.092 128.030 103.383  0.00  0.00    +0.000 C 
ATOM      4  C   UNL     1     144.472 126.111 104.663  0.00  0.00    +0.000 C 
ATOM      5  C   UNL     1     145.126 125.863 102.381  0.00  0.00    +0.000 C 
ENDBRANCH   1   2
BRANCH   1   6
ATOM      6  C   UNL     1     141.707 127.029 102.519  0.00  0.00    +0.000 C 
ATOM      7  C   UNL     1     141.337 127.207 101.095  0.00  0.00    +0.000 C 
BRANCH   6   8
ATOM      8  O   UNL     1     140.680 127.005 103.412  0.00  0.00    +0.000 OA
ATOM      9  H   UNL     1     140.364 127.919 103.543  0.00  0.00    +0.000 HD
ENDBRANCH   6   8
ENDBRANCH   1   6
TORSDOF 3
ENDMDL
MODEL 9
REMARK VINA RESULT:      -3.1     19.972     20.709
REMARK  Name = 2Methylcholine.pdbqt.pdb
REMARK  3 active torsions:
REMARK  status: ('A' for Active; 'I' for Inactive)
REMARK    1  A    between atoms: C_1  and  N_2
REMARK    2  A    between atoms: C_1  and  C_6
REMARK    3  A    between atoms: C_6  and  O_8
REMARK                            x       y       z     vdW  Elec       q    Type
REMARK                         _______ _______ _______ _____ _____    ______ ____
ROOT
ATOM      1  C   UNL     1     145.389 126.519 103.389  0.00  0.00    +0.000 C 
ENDROOT
BRANCH   1   2
ATOM      2  N   UNL     1     146.737 126.767 102.918  0.00  0.00    +0.000 N 
ATOM      3  C   UNL     1     146.789 128.045 102.202  0.00  0.00    +0.000 C 
ATOM      4  C   UNL     1     147.663 126.814 104.053  0.00  0.00    +0.000 C 
ATOM      5  C   UNL     1     147.149 125.693 102.010  0.00  0.00    +0.000 C 
ENDBRANCH   1   2
BRANCH   1   6
ATOM      6  C   UNL     1     144.093 126.284 103.870  0.00  0.00    +0.000 C 
ATOM      7  C   UNL     1     142.915 126.321 102.973  0.00  0.00    +0.000 C 
BRANCH   6   8
ATOM      8  O   UNL     1     143.848 126.012 105.181  0.00  0.00    +0.000 OA
ATOM      9  H   UNL     1     144.679 126.123 105.680  0.00  0.00    +0.000 HD
ENDBRANCH   6   8
ENDBRANCH   1   6
TORSDOF 3
ENDMDL
