MODEL 1
REMARK VINA RESULT:      -7.5      0.000      0.000
REMARK  Name = 3035817_K252a.pdbqt.pdb
REMARK  3 active torsions:
REMARK  status: ('A' for Active; 'I' for Inactive)
REMARK    1  A    between atoms: C_3  and  O_7
REMARK    2  A    between atoms: C_3  and  C_9
REMARK    3  A    between atoms: C_9  and  O_11
REMARK                            x       y       z     vdW  Elec       q    Type
REMARK                         _______ _______ _______ _____ _____    ______ ____
ROOT
ATOM      1  O   UNL     1     135.561 123.540 136.487  0.00  0.00    +0.000 OA
ATOM      2  C   UNL     1     135.923 122.792 135.273  0.00  0.00    +0.000 C 
ATOM      3  C   UNL     1     137.294 122.083 135.651  0.00  0.00    +0.000 C 
ATOM      4  C   UNL     1     135.953 122.698 137.542  0.00  0.00    +0.000 C 
ATOM      5  C   UNL     1     137.123 122.034 137.101  0.00  0.00    +0.000 C 
ATOM      6  C   UNL     1     136.038 123.869 134.145  0.00  0.00    +0.000 C 
ATOM      7  N   UNL     1     134.823 121.838 135.021  0.00  0.00    +0.000 N 
ATOM      8  C   UNL     1     133.956 121.219 135.885  0.00  0.00    +0.000 A 
ATOM      9  C   UNL     1     133.986 121.254 137.280  0.00  0.00    +0.000 A 
ATOM     10  C   UNL     1     132.963 120.380 135.369  0.00  0.00    +0.000 A 
ATOM     11  N   UNL     1     134.928 121.900 138.020  0.00  0.00    +0.000 N 
ATOM     12  C   UNL     1     133.037 120.453 137.923  0.00  0.00    +0.000 A 
ATOM     13  C   UNL     1     134.597 121.438 139.306  0.00  0.00    +0.000 A 
ATOM     14  C   UNL     1     133.433 120.579 139.272  0.00  0.00    +0.000 A 
ATOM     15  C   UNL     1     135.240 121.732 140.520  0.00  0.00    +0.000 A 
ATOM     16  C   UNL     1     132.977 120.041 140.492  0.00  0.00    +0.000 A 
ATOM     17  C   UNL     1     133.627 120.345 141.687  0.00  0.00    +0.000 A 
ATOM     18  C   UNL     1     134.740 121.175 141.697  0.00  0.00    +0.000 A 
ATOM     19  C   UNL     1     132.019 119.619 137.417  0.00  0.00    +0.000 A 
ATOM     20  C   UNL     1     131.988 119.588 135.992  0.00  0.00    +0.000 A 
ATOM     21  C   UNL     1     131.013 118.739 137.964  0.00  0.00    +0.000 C 
ATOM     22  C   UNL     1     130.909 118.636 135.611  0.00  0.00    +0.000 C 
ATOM     23  N   UNL     1     130.426 118.221 136.802  0.00  0.00    +0.000 N 
ATOM     24  H   UNL     1     129.668 117.556 136.874  0.00  0.00    +0.000 HD
ATOM     25  O   UNL     1     130.672 118.444 139.099  0.00  0.00    +0.000 OA
ATOM     26  C   UNL     1     133.242 120.409 133.991  0.00  0.00    +0.000 A 
ATOM     27  C   UNL     1     134.388 121.270 133.798  0.00  0.00    +0.000 A 
ATOM     28  C   UNL     1     132.682 119.773 132.865  0.00  0.00    +0.000 A 
ATOM     29  C   UNL     1     134.926 121.438 132.510  0.00  0.00    +0.000 A 
ATOM     30  C   UNL     1     134.334 120.788 131.427  0.00  0.00    +0.000 A 
ATOM     31  C   UNL     1     133.227 119.973 131.598  0.00  0.00    +0.000 A 
ENDROOT
BRANCH   3  32
ATOM     32  O   UNL     1     137.438 120.744 135.153  0.00  0.00    +0.000 OA
ATOM     33  H   UNL     1     138.384 120.496 135.250  0.00  0.00    +0.000 HD
ENDBRANCH   3  32
BRANCH   3  34
ATOM     34  C   UNL     1     138.499 122.931 135.253  0.00  0.00    +0.000 C 
ATOM     35  O   UNL     1     138.924 123.809 136.009  0.00  0.00    +0.000 OA
BRANCH  34  36
ATOM     36  O   UNL     1     138.950 122.616 134.001  0.00  0.00    +0.000 OA
ATOM     37  C   UNL     1     139.819 123.519 133.374  0.00  0.00    +0.000 C 
ENDBRANCH  34  36
ENDBRANCH   3  34
TORSDOF 3
ENDMDL
MODEL 2
REMARK VINA RESULT:      -7.2     26.908     31.364
REMARK  Name = 3035817_K252a.pdbqt.pdb
REMARK  3 active torsions:
REMARK  status: ('A' for Active; 'I' for Inactive)
REMARK    1  A    between atoms: C_3  and  O_7
REMARK    2  A    between atoms: C_3  and  C_9
REMARK    3  A    between atoms: C_9  and  O_11
REMARK                            x       y       z     vdW  Elec       q    Type
REMARK                         _______ _______ _______ _____ _____    ______ ____
ROOT
ATOM      1  O   UNL     1     143.473 116.097 108.989  0.00  0.00    +0.000 OA
ATOM      2  C   UNL     1     143.792 115.261 110.157  0.00  0.00    +0.000 C 
ATOM      3  C   UNL     1     142.876 113.975 109.974  0.00  0.00    +0.000 C 
ATOM      4  C   UNL     1     143.302 115.175 107.941  0.00  0.00    +0.000 C 
ATOM      5  C   UNL     1     142.720 114.022 108.522  0.00  0.00    +0.000 C 
ATOM      6  C   UNL     1     143.435 116.141 111.400  0.00  0.00    +0.000 C 
ATOM      7  N   UNL     1     145.237 114.964 110.081  0.00  0.00    +0.000 N 
ATOM      8  C   UNL     1     146.076 114.851 109.002  0.00  0.00    +0.000 A 
ATOM      9  C   UNL     1     145.720 114.873 107.653  0.00  0.00    +0.000 A 
ATOM     10  C   UNL     1     147.435 114.600 109.218  0.00  0.00    +0.000 A 
ATOM     11  N   UNL     1     144.446 114.980 107.187  0.00  0.00    +0.000 N 
ATOM     12  C   UNL     1     146.765 114.640 106.752  0.00  0.00    +0.000 A 
ATOM     13  C   UNL     1     144.659 114.744 105.817  0.00  0.00    +0.000 A 
ATOM     14  C   UNL     1     146.065 114.562 105.528  0.00  0.00    +0.000 A 
ATOM     15  C   UNL     1     143.700 114.692 104.792  0.00  0.00    +0.000 A 
ATOM     16  C   UNL     1     146.435 114.319 104.190  0.00  0.00    +0.000 A 
ATOM     17  C   UNL     1     145.470 114.273 103.186  0.00  0.00    +0.000 A 
ATOM     18  C   UNL     1     144.127 114.455 103.485  0.00  0.00    +0.000 A 
ATOM     19  C   UNL     1     148.140 114.405 106.953  0.00  0.00    +0.000 A 
ATOM     20  C   UNL     1     148.500 114.387 108.333  0.00  0.00    +0.000 A 
ATOM     21  C   UNL     1     149.291 114.130 106.126  0.00  0.00    +0.000 C 
ATOM     22  C   UNL     1     149.956 114.082 108.388  0.00  0.00    +0.000 C 
ATOM     23  N   UNL     1     150.297 113.960 107.086  0.00  0.00    +0.000 N 
ATOM     24  H   UNL     1     151.242 113.749 106.795  0.00  0.00    +0.000 HD
ATOM     25  O   UNL     1     149.467 114.044 104.920  0.00  0.00    +0.000 OA
ATOM     26  C   UNL     1     147.491 114.483 110.618  0.00  0.00    +0.000 A 
ATOM     27  C   UNL     1     146.151 114.675 111.126  0.00  0.00    +0.000 A 
ATOM     28  C   UNL     1     148.523 114.196 111.536  0.00  0.00    +0.000 A 
ATOM     29  C   UNL     1     145.902 114.554 112.504  0.00  0.00    +0.000 A 
ATOM     30  C   UNL     1     146.956 114.270 113.371  0.00  0.00    +0.000 A 
ATOM     31  C   UNL     1     148.248 114.100 112.899  0.00  0.00    +0.000 A 
ENDROOT
BRANCH   3  32
ATOM     32  O   UNL     1     143.500 112.734 110.336  0.00  0.00    +0.000 OA
ATOM     33  H   UNL     1     144.125 112.500 109.614  0.00  0.00    +0.000 HD
ENDBRANCH   3  32
BRANCH   3  34
ATOM     34  C   UNL     1     141.537 114.126 110.690  0.00  0.00    +0.000 C 
ATOM     35  O   UNL     1     140.621 114.772 110.175  0.00  0.00    +0.000 OA
BRANCH  34  36
ATOM     36  O   UNL     1     141.548 113.524 111.918  0.00  0.00    +0.000 OA
ATOM     37  C   UNL     1     140.635 113.981 112.878  0.00  0.00    +0.000 C 
ENDBRANCH  34  36
ENDBRANCH   3  34
TORSDOF 3
ENDMDL
MODEL 3
REMARK VINA RESULT:      -7.2      2.114      7.540
REMARK  Name = 3035817_K252a.pdbqt.pdb
REMARK  3 active torsions:
REMARK  status: ('A' for Active; 'I' for Inactive)
REMARK    1  A    between atoms: C_3  and  O_7
REMARK    2  A    between atoms: C_3  and  C_9
REMARK    3  A    between atoms: C_9  and  O_11
REMARK                            x       y       z     vdW  Elec       q    Type
REMARK                         _______ _______ _______ _____ _____    ______ ____
ROOT
ATOM      1  O   UNL     1     130.785 120.556 137.049  0.00  0.00    +0.000 OA
ATOM      2  C   UNL     1     131.713 120.447 138.186  0.00  0.00    +0.000 C 
ATOM      3  C   UNL     1     131.933 118.882 138.357  0.00  0.00    +0.000 C 
ATOM      4  C   UNL     1     131.195 119.537 136.170  0.00  0.00    +0.000 C 
ATOM      5  C   UNL     1     131.639 118.469 136.987  0.00  0.00    +0.000 C 
ATOM      6  C   UNL     1     130.977 121.134 139.383  0.00  0.00    +0.000 C 
ATOM      7  N   UNL     1     132.941 121.170 137.798  0.00  0.00    +0.000 N 
ATOM      8  C   UNL     1     133.507 121.386 136.568  0.00  0.00    +0.000 A 
ATOM      9  C   UNL     1     133.099 120.848 135.347  0.00  0.00    +0.000 A 
ATOM     10  C   UNL     1     134.672 122.155 136.478  0.00  0.00    +0.000 A 
ATOM     11  N   UNL     1     132.068 119.974 135.189  0.00  0.00    +0.000 N 
ATOM     12  C   UNL     1     133.912 121.157 134.251  0.00  0.00    +0.000 A 
ATOM     13  C   UNL     1     132.242 119.621 133.839  0.00  0.00    +0.000 A 
ATOM     14  C   UNL     1     133.340 120.350 133.243  0.00  0.00    +0.000 A 
ATOM     15  C   UNL     1     131.488 118.708 133.082  0.00  0.00    +0.000 A 
ATOM     16  C   UNL     1     133.635 120.104 131.887  0.00  0.00    +0.000 A 
ATOM     17  C   UNL     1     132.874 119.196 131.151  0.00  0.00    +0.000 A 
ATOM     18  C   UNL     1     131.822 118.511 131.742  0.00  0.00    +0.000 A 
ATOM     19  C   UNL     1     135.076 121.945 134.142  0.00  0.00    +0.000 A 
ATOM     20  C   UNL     1     135.488 122.496 135.390  0.00  0.00    +0.000 A 
ATOM     21  C   UNL     1     136.002 122.311 133.097  0.00  0.00    +0.000 C 
ATOM     22  C   UNL     1     136.744 123.251 135.128  0.00  0.00    +0.000 C 
ATOM     23  N   UNL     1     136.937 123.081 133.802  0.00  0.00    +0.000 N 
ATOM     24  H   UNL     1     137.726 123.484 133.316  0.00  0.00    +0.000 HD
ATOM     25  O   UNL     1     136.063 122.080 131.899  0.00  0.00    +0.000 OA
ATOM     26  C   UNL     1     134.938 122.441 137.829  0.00  0.00    +0.000 A 
ATOM     27  C   UNL     1     133.901 121.815 138.619  0.00  0.00    +0.000 A 
ATOM     28  C   UNL     1     135.967 123.134 138.498  0.00  0.00    +0.000 A 
ATOM     29  C   UNL     1     133.950 121.890 140.021  0.00  0.00    +0.000 A 
ATOM     30  C   UNL     1     134.988 122.589 140.637  0.00  0.00    +0.000 A 
ATOM     31  C   UNL     1     135.978 123.208 139.890  0.00  0.00    +0.000 A 
ENDROOT
BRANCH   3  32
ATOM     32  O   UNL     1     133.276 118.494 138.683  0.00  0.00    +0.000 OA
ATOM     33  H   UNL     1     133.767 119.312 138.919  0.00  0.00    +0.000 HD
ENDBRANCH   3  32
BRANCH   3  34
ATOM     34  C   UNL     1     130.947 118.277 139.352  0.00  0.00    +0.000 C 
ATOM     35  O   UNL     1     131.282 118.078 140.523  0.00  0.00    +0.000 OA
BRANCH  34  36
ATOM     36  O   UNL     1     129.755 117.966 138.758  0.00  0.00    +0.000 OA
ATOM     37  C   UNL     1     128.581 118.220 139.481  0.00  0.00    +0.000 C 
ENDBRANCH  34  36
ENDBRANCH   3  34
TORSDOF 3
ENDMDL
MODEL 4
REMARK VINA RESULT:      -7.1     27.745     31.993
REMARK  Name = 3035817_K252a.pdbqt.pdb
REMARK  3 active torsions:
REMARK  status: ('A' for Active; 'I' for Inactive)
REMARK    1  A    between atoms: C_3  and  O_7
REMARK    2  A    between atoms: C_3  and  C_9
REMARK    3  A    between atoms: C_9  and  O_11
REMARK                            x       y       z     vdW  Elec       q    Type
REMARK                         _______ _______ _______ _____ _____    ______ ____
ROOT
ATOM      1  O   UNL     1     145.928 115.362 110.479  0.00  0.00    +0.000 OA
ATOM      2  C   UNL     1     147.038 114.446 110.787  0.00  0.00    +0.000 C 
ATOM      3  C   UNL     1     146.321 113.069 111.125  0.00  0.00    +0.000 C 
ATOM      4  C   UNL     1     145.000 114.561 109.789  0.00  0.00    +0.000 C 
ATOM      5  C   UNL     1     145.089 113.271 110.366  0.00  0.00    +0.000 C 
ATOM      6  C   UNL     1     147.789 115.102 111.992  0.00  0.00    +0.000 C 
ATOM      7  N   UNL     1     147.880 114.383 109.574  0.00  0.00    +0.000 N 
ATOM      8  C   UNL     1     147.560 114.532 108.249  0.00  0.00    +0.000 A 
ATOM      9  C   UNL     1     146.284 114.666 107.700  0.00  0.00    +0.000 A 
ATOM     10  C   UNL     1     148.576 114.465 107.290  0.00  0.00    +0.000 A 
ATOM     11  N   UNL     1     145.125 114.636 108.412  0.00  0.00    +0.000 N 
ATOM     12  C   UNL     1     146.231 114.707 106.303  0.00  0.00    +0.000 A 
ATOM     13  C   UNL     1     144.187 114.606 107.365  0.00  0.00    +0.000 A 
ATOM     14  C   UNL     1     144.838 114.676 106.075  0.00  0.00    +0.000 A 
ATOM     15  C   UNL     1     142.787 114.536 107.463  0.00  0.00    +0.000 A 
ATOM     16  C   UNL     1     144.023 114.659 104.925  0.00  0.00    +0.000 A 
ATOM     17  C   UNL     1     142.636 114.592 105.042  0.00  0.00    +0.000 A 
ATOM     18  C   UNL     1     142.032 114.530 106.290  0.00  0.00    +0.000 A 
ATOM     19  C   UNL     1     147.247 114.660 105.326  0.00  0.00    +0.000 A 
ATOM     20  C   UNL     1     148.549 114.527 105.890  0.00  0.00    +0.000 A 
ATOM     21  C   UNL     1     147.318 114.667 103.884  0.00  0.00    +0.000 C 
ATOM     22  C   UNL     1     149.500 114.440 104.748  0.00  0.00    +0.000 C 
ATOM     23  N   UNL     1     148.696 114.533 103.667  0.00  0.00    +0.000 N 
ATOM     24  H   UNL     1     149.057 114.505 102.723  0.00  0.00    +0.000 HD
ATOM     25  O   UNL     1     146.486 114.758 102.994  0.00  0.00    +0.000 OA
ATOM     26  C   UNL     1     149.705 114.186 108.080  0.00  0.00    +0.000 A 
ATOM     27  C   UNL     1     149.266 114.109 109.456  0.00  0.00    +0.000 A 
ATOM     28  C   UNL     1     151.065 113.948 107.795  0.00  0.00    +0.000 A 
ATOM     29  C   UNL     1     150.187 113.782 110.466  0.00  0.00    +0.000 A 
ATOM     30  C   UNL     1     151.522 113.557 110.133  0.00  0.00    +0.000 A 
ATOM     31  C   UNL     1     151.958 113.643 108.821  0.00  0.00    +0.000 A 
ENDROOT
BRANCH   3  32
ATOM     32  O   UNL     1     146.990 111.901 110.625  0.00  0.00    +0.000 OA
ATOM     33  H   UNL     1     147.839 111.820 111.114  0.00  0.00    +0.000 HD
ENDBRANCH   3  32
BRANCH   3  34
ATOM     34  C   UNL     1     146.045 112.926 112.619  0.00  0.00    +0.000 C 
ATOM     35  O   UNL     1     145.074 113.488 113.133  0.00  0.00    +0.000 OA
BRANCH  34  36
ATOM     36  O   UNL     1     147.008 112.182 113.243  0.00  0.00    +0.000 OA
ATOM     37  C   UNL     1     147.231 112.416 114.607  0.00  0.00    +0.000 C 
ENDBRANCH  34  36
ENDBRANCH   3  34
TORSDOF 3
ENDMDL
MODEL 5
REMARK VINA RESULT:      -7.0     27.215     30.950
REMARK  Name = 3035817_K252a.pdbqt.pdb
REMARK  3 active torsions:
REMARK  status: ('A' for Active; 'I' for Inactive)
REMARK    1  A    between atoms: C_3  and  O_7
REMARK    2  A    between atoms: C_3  and  C_9
REMARK    3  A    between atoms: C_9  and  O_11
REMARK                            x       y       z     vdW  Elec       q    Type
REMARK                         _______ _______ _______ _____ _____    ______ ____
ROOT
ATOM      1  O   UNL     1     148.761 114.986 107.712  0.00  0.00    +0.000 OA
ATOM      2  C   UNL     1     147.840 114.349 106.757  0.00  0.00    +0.000 C 
ATOM      3  C   UNL     1     148.222 112.807 106.820  0.00  0.00    +0.000 C 
ATOM      4  C   UNL     1     148.863 114.059 108.764  0.00  0.00    +0.000 C 
ATOM      5  C   UNL     1     148.785 112.776 108.168  0.00  0.00    +0.000 C 
ATOM      6  C   UNL     1     148.133 115.036 105.383  0.00  0.00    +0.000 C 
ATOM      7  N   UNL     1     146.472 114.631 107.239  0.00  0.00    +0.000 N 
ATOM      8  C   UNL     1     145.991 114.838 108.507  0.00  0.00    +0.000 A 
ATOM      9  C   UNL     1     146.692 114.708 109.706  0.00  0.00    +0.000 A 
ATOM     10  C   UNL     1     144.635 115.133 108.682  0.00  0.00    +0.000 A 
ATOM     11  N   UNL     1     147.990 114.312 109.808  0.00  0.00    +0.000 N 
ATOM     12  C   UNL     1     145.934 114.887 110.869  0.00  0.00    +0.000 A 
ATOM     13  C   UNL     1     148.099 114.163 111.202  0.00  0.00    +0.000 A 
ATOM     14  C   UNL     1     146.868 114.533 111.867  0.00  0.00    +0.000 A 
ATOM     15  C   UNL     1     149.215 113.735 111.939  0.00  0.00    +0.000 A 
ATOM     16  C   UNL     1     146.826 114.439 113.272  0.00  0.00    +0.000 A 
ATOM     17  C   UNL     1     147.945 114.015 113.987  0.00  0.00    +0.000 A 
ATOM     18  C   UNL     1     149.117 113.668 113.329  0.00  0.00    +0.000 A 
ATOM     19  C   UNL     1     144.574 115.202 111.060  0.00  0.00    +0.000 A 
ATOM     20  C   UNL     1     143.861 115.338 109.833  0.00  0.00    +0.000 A 
ATOM     21  C   UNL     1     143.686 115.384 112.184  0.00  0.00    +0.000 C 
ATOM     22  C   UNL     1     142.444 115.617 110.193  0.00  0.00    +0.000 C 
ATOM     23  N   UNL     1     142.462 115.623 111.544  0.00  0.00    +0.000 N 
ATOM     24  H   UNL     1     141.630 115.790 112.093  0.00  0.00    +0.000 HD
ATOM     25  O   UNL     1     143.836 115.360 113.396  0.00  0.00    +0.000 OA
ATOM     26  C   UNL     1     144.148 115.061 107.365  0.00  0.00    +0.000 A 
ATOM     27  C   UNL     1     145.262 114.727 106.506  0.00  0.00    +0.000 A 
ATOM     28  C   UNL     1     142.871 115.202 106.784  0.00  0.00    +0.000 A 
ATOM     29  C   UNL     1     145.051 114.532 105.130  0.00  0.00    +0.000 A 
ATOM     30  C   UNL     1     143.769 114.685 104.603  0.00  0.00    +0.000 A 
ATOM     31  C   UNL     1     142.695 115.021 105.413  0.00  0.00    +0.000 A 
ENDROOT
BRANCH   3  32
ATOM     32  O   UNL     1     147.106 111.906 106.761  0.00  0.00    +0.000 OA
ATOM     33  H   UNL     1     147.469 110.995 106.704  0.00  0.00    +0.000 HD
ENDBRANCH   3  32
BRANCH   3  34
ATOM     34  C   UNL     1     149.262 112.438 105.766  0.00  0.00    +0.000 C 
ATOM     35  O   UNL     1     148.913 111.970 104.679  0.00  0.00    +0.000 OA
BRANCH  34  36
ATOM     36  O   UNL     1     150.536 112.644 106.218  0.00  0.00    +0.000 OA
ATOM     37  C   UNL     1     151.412 113.366 105.395  0.00  0.00    +0.000 C 
ENDBRANCH  34  36
ENDBRANCH   3  34
TORSDOF 3
ENDMDL
MODEL 6
REMARK VINA RESULT:      -6.9     30.780     34.637
REMARK  Name = 3035817_K252a.pdbqt.pdb
REMARK  3 active torsions:
REMARK  status: ('A' for Active; 'I' for Inactive)
REMARK    1  A    between atoms: C_3  and  O_7
REMARK    2  A    between atoms: C_3  and  C_9
REMARK    3  A    between atoms: C_9  and  O_11
REMARK                            x       y       z     vdW  Elec       q    Type
REMARK                         _______ _______ _______ _____ _____    ______ ____
ROOT
ATOM      1  O   UNL     1     150.185 114.713 103.913  0.00  0.00    +0.000 OA
ATOM      2  C   UNL     1     149.007 114.029 103.355  0.00  0.00    +0.000 C 
ATOM      3  C   UNL     1     149.463 112.512 103.233  0.00  0.00    +0.000 C 
ATOM      4  C   UNL     1     150.720 113.789 104.828  0.00  0.00    +0.000 C 
ATOM      5  C   UNL     1     150.491 112.507 104.271  0.00  0.00    +0.000 C 
ATOM      6  C   UNL     1     148.730 114.737 101.989  0.00  0.00    +0.000 C 
ATOM      7  N   UNL     1     147.907 114.231 104.320  0.00  0.00    +0.000 N 
ATOM      8  C   UNL     1     147.925 114.406 105.681  0.00  0.00    +0.000 A 
ATOM      9  C   UNL     1     149.029 114.311 106.528  0.00  0.00    +0.000 A 
ATOM     10  C   UNL     1     146.720 114.622 106.357  0.00  0.00    +0.000 A 
ATOM     11  N   UNL     1     150.290 113.989 106.128  0.00  0.00    +0.000 N 
ATOM     12  C   UNL     1     148.754 114.441 107.893  0.00  0.00    +0.000 A 
ATOM     13  C   UNL     1     150.920 113.839 107.376  0.00  0.00    +0.000 A 
ATOM     14  C   UNL     1     150.010 114.137 108.461  0.00  0.00    +0.000 A 
ATOM     15  C   UNL     1     152.251 113.473 107.632  0.00  0.00    +0.000 A 
ATOM     16  C   UNL     1     150.501 114.034 109.778  0.00  0.00    +0.000 A 
ATOM     17  C   UNL     1     151.827 113.671 110.013  0.00  0.00    +0.000 A 
ATOM     18  C   UNL     1     152.683 113.394 108.956  0.00  0.00    +0.000 A 
ATOM     19  C   UNL     1     147.549 114.678 108.587  0.00  0.00    +0.000 A 
ATOM     20  C   UNL     1     146.424 114.778 107.718  0.00  0.00    +0.000 A 
ATOM     21  C   UNL     1     147.138 114.804 109.965  0.00  0.00    +0.000 C 
ATOM     22  C   UNL     1     145.231 114.975 108.588  0.00  0.00    +0.000 C 
ATOM     23  N   UNL     1     145.754 114.976 109.834  0.00  0.00    +0.000 N 
ATOM     24  H   UNL     1     145.180 115.093 110.658  0.00  0.00    +0.000 HD
ATOM     25  O   UNL     1     147.732 114.784 111.032  0.00  0.00    +0.000 OA
ATOM     26  C   UNL     1     145.779 114.528 105.315  0.00  0.00    +0.000 A 
ATOM     27  C   UNL     1     146.507 114.261 104.095  0.00  0.00    +0.000 A 
ATOM     28  C   UNL     1     144.372 114.599 105.257  0.00  0.00    +0.000 A 
ATOM     29  C   UNL     1     145.807 114.061 102.892  0.00  0.00    +0.000 A 
ATOM     30  C   UNL     1     144.414 114.143 102.886  0.00  0.00    +0.000 A 
ATOM     31  C   UNL     1     143.706 114.414 104.046  0.00  0.00    +0.000 A 
ENDROOT
BRANCH   3  32
ATOM     32  O   UNL     1     148.454 111.549 103.571  0.00  0.00    +0.000 OA
ATOM     33  H   UNL     1     148.815 110.660 103.360  0.00  0.00    +0.000 HD
ENDBRANCH   3  32
BRANCH   3  34
ATOM     34  C   UNL     1     150.051 112.207 101.857  0.00  0.00    +0.000 C 
ATOM     35  O   UNL     1     149.386 111.600 101.013  0.00  0.00    +0.000 OA
BRANCH  34  36
ATOM     36  O   UNL     1     151.346 112.633 101.754  0.00  0.00    +0.000 OA
ATOM     37  C   UNL     1     151.805 113.025 100.489  0.00  0.00    +0.000 C 
ENDBRANCH  34  36
ENDBRANCH   3  34
TORSDOF 3
ENDMDL
MODEL 7
REMARK VINA RESULT:      -6.8     14.870     18.438
REMARK  Name = 3035817_K252a.pdbqt.pdb
REMARK  3 active torsions:
REMARK  status: ('A' for Active; 'I' for Inactive)
REMARK    1  A    between atoms: C_3  and  O_7
REMARK    2  A    between atoms: C_3  and  C_9
REMARK    3  A    between atoms: C_9  and  O_11
REMARK                            x       y       z     vdW  Elec       q    Type
REMARK                         _______ _______ _______ _____ _____    ______ ____
ROOT
ATOM      1  O   UNL     1     146.679 127.136 148.647  0.00  0.00    +0.000 OA
ATOM      2  C   UNL     1     145.786 126.414 147.727  0.00  0.00    +0.000 C 
ATOM      3  C   UNL     1     144.668 127.481 147.356  0.00  0.00    +0.000 C 
ATOM      4  C   UNL     1     146.726 128.442 148.129  0.00  0.00    +0.000 C 
ATOM      5  C   UNL     1     145.440 128.698 147.592  0.00  0.00    +0.000 C 
ATOM      6  C   UNL     1     145.266 125.183 148.540  0.00  0.00    +0.000 C 
ATOM      7  N   UNL     1     146.611 126.008 146.571  0.00  0.00    +0.000 N 
ATOM      8  C   UNL     1     147.725 126.584 146.014  0.00  0.00    +0.000 A 
ATOM      9  C   UNL     1     148.297 127.811 146.353  0.00  0.00    +0.000 A 
ATOM     10  C   UNL     1     148.347 125.958 144.929  0.00  0.00    +0.000 A 
ATOM     11  N   UNL     1     147.805 128.665 147.291  0.00  0.00    +0.000 N 
ATOM     12  C   UNL     1     149.379 128.209 145.561  0.00  0.00    +0.000 A 
ATOM     13  C   UNL     1     148.626 129.784 147.068  0.00  0.00    +0.000 A 
ATOM     14  C   UNL     1     149.607 129.518 146.039  0.00  0.00    +0.000 A 
ATOM     15  C   UNL     1     148.584 131.028 147.719  0.00  0.00    +0.000 A 
ATOM     16  C   UNL     1     150.507 130.550 145.705  0.00  0.00    +0.000 A 
ATOM     17  C   UNL     1     150.452 131.777 146.365  0.00  0.00    +0.000 A 
ATOM     18  C   UNL     1     149.505 132.009 147.352  0.00  0.00    +0.000 A 
ATOM     19  C   UNL     1     150.028 127.581 144.478  0.00  0.00    +0.000 A 
ATOM     20  C   UNL     1     149.443 126.326 144.138  0.00  0.00    +0.000 A 
ATOM     21  C   UNL     1     151.114 127.894 143.580  0.00  0.00    +0.000 C 
ATOM     22  C   UNL     1     150.194 125.814 142.959  0.00  0.00    +0.000 C 
ATOM     23  N   UNL     1     151.114 126.777 142.734  0.00  0.00    +0.000 N 
ATOM     24  H   UNL     1     151.787 126.715 141.982  0.00  0.00    +0.000 HD
ATOM     25  O   UNL     1     151.890 128.832 143.483  0.00  0.00    +0.000 OA
ATOM     26  C   UNL     1     147.506 124.852 144.708  0.00  0.00    +0.000 A 
ATOM     27  C   UNL     1     146.444 124.911 145.688  0.00  0.00    +0.000 A 
ATOM     28  C   UNL     1     147.489 123.809 143.760  0.00  0.00    +0.000 A 
ATOM     29  C   UNL     1     145.418 123.951 145.664  0.00  0.00    +0.000 A 
ATOM     30  C   UNL     1     145.447 122.937 144.706  0.00  0.00    +0.000 A 
ATOM     31  C   UNL     1     146.468 122.861 143.773  0.00  0.00    +0.000 A 
ENDROOT
BRANCH   3  32
ATOM     32  O   UNL     1     144.242 127.457 145.985  0.00  0.00    +0.000 OA
ATOM     33  H   UNL     1     145.042 127.314 145.433  0.00  0.00    +0.000 HD
ENDBRANCH   3  32
BRANCH   3  34
ATOM     34  C   UNL     1     143.464 127.387 148.290  0.00  0.00    +0.000 C 
ATOM     35  O   UNL     1     142.494 126.686 147.993  0.00  0.00    +0.000 OA
BRANCH  34  36
ATOM     36  O   UNL     1     143.611 128.191 149.387  0.00  0.00    +0.000 OA
ATOM     37  C   UNL     1     143.419 127.612 150.649  0.00  0.00    +0.000 C 
ENDBRANCH  34  36
ENDBRANCH   3  34
TORSDOF 3
ENDMDL
MODEL 8
REMARK VINA RESULT:      -6.7      1.824      2.784
REMARK  Name = 3035817_K252a.pdbqt.pdb
REMARK  3 active torsions:
REMARK  status: ('A' for Active; 'I' for Inactive)
REMARK    1  A    between atoms: C_3  and  O_7
REMARK    2  A    between atoms: C_3  and  C_9
REMARK    3  A    between atoms: C_9  and  O_11
REMARK                            x       y       z     vdW  Elec       q    Type
REMARK                         _______ _______ _______ _____ _____    ______ ____
ROOT
ATOM      1  O   UNL     1     134.464 122.871 136.110  0.00  0.00    +0.000 OA
ATOM      2  C   UNL     1     134.812 121.627 135.406  0.00  0.00    +0.000 C 
ATOM      3  C   UNL     1     136.393 121.533 135.547  0.00  0.00    +0.000 C 
ATOM      4  C   UNL     1     135.338 122.902 137.211  0.00  0.00    +0.000 C 
ATOM      5  C   UNL     1     136.551 122.322 136.766  0.00  0.00    +0.000 C 
ATOM      6  C   UNL     1     134.302 121.828 133.941  0.00  0.00    +0.000 C 
ATOM      7  N   UNL     1     134.098 120.536 136.099  0.00  0.00    +0.000 N 
ATOM      8  C   UNL     1     133.705 120.408 137.407  0.00  0.00    +0.000 A 
ATOM      9  C   UNL     1     134.006 121.266 138.465  0.00  0.00    +0.000 A 
ATOM     10  C   UNL     1     132.994 119.268 137.797  0.00  0.00    +0.000 A 
ATOM     11  N   UNL     1     134.785 122.377 138.367  0.00  0.00    +0.000 N 
ATOM     12  C   UNL     1     133.558 120.850 139.724  0.00  0.00    +0.000 A 
ATOM     13  C   UNL     1     134.912 122.717 139.726  0.00  0.00    +0.000 A 
ATOM     14  C   UNL     1     134.151 121.817 140.565  0.00  0.00    +0.000 A 
ATOM     15  C   UNL     1     135.642 123.778 140.285  0.00  0.00    +0.000 A 
ATOM     16  C   UNL     1     134.177 122.035 141.957  0.00  0.00    +0.000 A 
ATOM     17  C   UNL     1     134.905 123.096 142.493  0.00  0.00    +0.000 A 
ATOM     18  C   UNL     1     135.625 123.949 141.669  0.00  0.00    +0.000 A 
ATOM     19  C   UNL     1     132.824 119.716 140.128  0.00  0.00    +0.000 A 
ATOM     20  C   UNL     1     132.515 118.844 139.044  0.00  0.00    +0.000 A 
ATOM     21  C   UNL     1     132.333 119.172 141.372  0.00  0.00    +0.000 C 
ATOM     22  C   UNL     1     131.792 117.680 139.627  0.00  0.00    +0.000 C 
ATOM     23  N   UNL     1     131.744 117.974 140.945  0.00  0.00    +0.000 N 
ATOM     24  H   UNL     1     131.305 117.361 141.618  0.00  0.00    +0.000 HD
ATOM     25  O   UNL     1     132.359 119.551 142.533  0.00  0.00    +0.000 OA
ATOM     26  C   UNL     1     132.956 118.525 136.604  0.00  0.00    +0.000 A 
ATOM     27  C   UNL     1     133.653 119.288 135.593  0.00  0.00    +0.000 A 
ATOM     28  C   UNL     1     132.441 117.260 136.254  0.00  0.00    +0.000 A 
ATOM     29  C   UNL     1     133.820 118.753 134.304  0.00  0.00    +0.000 A 
ATOM     30  C   UNL     1     133.291 117.497 134.007  0.00  0.00    +0.000 A 
ATOM     31  C   UNL     1     132.607 116.763 134.963  0.00  0.00    +0.000 A 
ENDROOT
BRANCH   3  32
ATOM     32  O   UNL     1     136.899 120.210 135.780  0.00  0.00    +0.000 OA
ATOM     33  H   UNL     1     136.591 119.931 136.670  0.00  0.00    +0.000 HD
ENDBRANCH   3  32
BRANCH   3  34
ATOM     34  C   UNL     1     137.107 122.176 134.362  0.00  0.00    +0.000 C 
ATOM     35  O   UNL     1     137.399 121.507 133.368  0.00  0.00    +0.000 OA
BRANCH  34  36
ATOM     36  O   UNL     1     137.394 123.493 134.598  0.00  0.00    +0.000 OA
ATOM     37  C   UNL     1     137.233 124.395 133.537  0.00  0.00    +0.000 C 
ENDBRANCH  34  36
ENDBRANCH   3  34
TORSDOF 3
ENDMDL
MODEL 9
REMARK VINA RESULT:      -6.6     20.235     26.010
REMARK  Name = 3035817_K252a.pdbqt.pdb
REMARK  3 active torsions:
REMARK  status: ('A' for Active; 'I' for Inactive)
REMARK    1  A    between atoms: C_3  and  O_7
REMARK    2  A    between atoms: C_3  and  C_9
REMARK    3  A    between atoms: C_9  and  O_11
REMARK                            x       y       z     vdW  Elec       q    Type
REMARK                         _______ _______ _______ _____ _____    ______ ____
ROOT
ATOM      1  O   UNL     1     150.641 132.760 124.684  0.00  0.00    +0.000 OA
ATOM      2  C   UNL     1     150.259 133.660 125.784  0.00  0.00    +0.000 C 
ATOM      3  C   UNL     1     151.118 133.147 127.019  0.00  0.00    +0.000 C 
ATOM      4  C   UNL     1     152.017 132.541 124.879  0.00  0.00    +0.000 C 
ATOM      5  C   UNL     1     152.219 132.533 126.281  0.00  0.00    +0.000 C 
ATOM      6  C   UNL     1     148.714 133.477 125.946  0.00  0.00    +0.000 C 
ATOM      7  N   UNL     1     150.615 135.027 125.353  0.00  0.00    +0.000 N 
ATOM      8  C   UNL     1     151.600 135.476 124.511  0.00  0.00    +0.000 A 
ATOM      9  C   UNL     1     152.620 134.722 123.929  0.00  0.00    +0.000 A 
ATOM     10  C   UNL     1     151.692 136.845 124.237  0.00  0.00    +0.000 A 
ATOM     11  N   UNL     1     152.820 133.393 124.140  0.00  0.00    +0.000 N 
ATOM     12  C   UNL     1     153.555 135.448 123.183  0.00  0.00    +0.000 A 
ATOM     13  C   UNL     1     154.059 133.219 123.498  0.00  0.00    +0.000 A 
ATOM     14  C   UNL     1     154.509 134.450 122.886  0.00  0.00    +0.000 A 
ATOM     15  C   UNL     1     154.821 132.044 123.397  0.00  0.00    +0.000 A 
ATOM     16  C   UNL     1     155.740 134.432 122.199  0.00  0.00    +0.000 A 
ATOM     17  C   UNL     1     156.481 133.255 122.108  0.00  0.00    +0.000 A 
ATOM     18  C   UNL     1     156.028 132.084 122.699  0.00  0.00    +0.000 A 
ATOM     19  C   UNL     1     153.649 136.822 122.883  0.00  0.00    +0.000 A 
ATOM     20  C   UNL     1     152.603 137.589 123.475  0.00  0.00    +0.000 A 
ATOM     21  C   UNL     1     154.559 137.679 122.161  0.00  0.00    +0.000 C 
ATOM     22  C   UNL     1     152.863 139.010 123.116  0.00  0.00    +0.000 C 
ATOM     23  N   UNL     1     153.988 138.942 122.372  0.00  0.00    +0.000 N 
ATOM     24  H   UNL     1     154.421 139.763 121.974  0.00  0.00    +0.000 HD
ATOM     25  O   UNL     1     155.574 137.482 121.511  0.00  0.00    +0.000 OA
ATOM     26  C   UNL     1     150.666 137.373 125.041  0.00  0.00    +0.000 A 
ATOM     27  C   UNL     1     150.043 136.267 125.734  0.00  0.00    +0.000 A 
ATOM     28  C   UNL     1     150.202 138.678 125.304  0.00  0.00    +0.000 A 
ATOM     29  C   UNL     1     149.014 136.513 126.659  0.00  0.00    +0.000 A 
ATOM     30  C   UNL     1     148.589 137.823 126.883  0.00  0.00    +0.000 A 
ATOM     31  C   UNL     1     149.167 138.889 126.213  0.00  0.00    +0.000 A 
ENDROOT
BRANCH   3  32
ATOM     32  O   UNL     1     151.643 134.185 127.861  0.00  0.00    +0.000 OA
ATOM     33  H   UNL     1     150.980 134.352 128.567  0.00  0.00    +0.000 HD
ENDBRANCH   3  32
BRANCH   3  34
ATOM     34  C   UNL     1     150.356 132.120 127.852  0.00  0.00    +0.000 C 
ATOM     35  O   UNL     1     150.131 132.326 129.048  0.00  0.00    +0.000 OA
BRANCH  34  36
ATOM     36  O   UNL     1     150.045 131.006 127.122  0.00  0.00    +0.000 OA
ATOM     37  C   UNL     1     148.762 130.463 127.276  0.00  0.00    +0.000 C 
ENDBRANCH  34  36
ENDBRANCH   3  34
TORSDOF 3
ENDMDL
