MODEL 1
REMARK VINA RESULT:      -5.5      0.000      0.000
REMARK  Name = 3136_Dimethoxy.pdbqt.pdb
REMARK  2 active torsions:
REMARK  status: ('A' for Active; 'I' for Inactive)
REMARK    1  A    between atoms: C_7  and  O_13
REMARK    2  A    between atoms: C_8  and  O_15
REMARK                            x       y       z     vdW  Elec       q    Type
REMARK                         _______ _______ _______ _____ _____    ______ ____
ROOT
ATOM      1  O   UNL     1     141.902 126.274 101.579  0.00  0.00    +0.000 OA
ATOM      2  O   UNL     1     145.887 123.178  99.866  0.00  0.00    +0.000 OA
ATOM      3  C   UNL     1     142.588 124.558 100.146  0.00  0.00    +0.000 A 
ATOM      4  C   UNL     1     143.631 123.769  99.683  0.00  0.00    +0.000 A 
ATOM      5  C   UNL     1     142.812 125.545 101.208  0.00  0.00    +0.000 C 
ATOM      6  C   UNL     1     144.981 123.910 100.239  0.00  0.00    +0.000 C 
ATOM      7  C   UNL     1     144.171 125.642 101.796  0.00  0.00    +0.000 C 
ATOM      8  C   UNL     1     145.203 124.947 101.276  0.00  0.00    +0.000 C 
ATOM      9  C   UNL     1     141.311 124.417  99.603  0.00  0.00    +0.000 A 
ATOM     10  C   UNL     1     143.404 122.829  98.676  0.00  0.00    +0.000 A 
ATOM     11  C   UNL     1     141.083 123.481  98.598  0.00  0.00    +0.000 A 
ATOM     12  C   UNL     1     142.129 122.687  98.134  0.00  0.00    +0.000 A 
ENDROOT
BRANCH   7  13
ATOM     13  O   UNL     1     144.305 126.557 102.825  0.00  0.00    +0.000 OA
ATOM     14  C   UNL     1     144.105 125.913 104.060  0.00  0.00    +0.000 C 
ENDBRANCH   7  13
BRANCH   8  15
ATOM     15  O   UNL     1     146.507 125.064 101.725  0.00  0.00    +0.000 OA
ATOM     16  C   UNL     1     147.159 126.094 101.021  0.00  0.00    +0.000 C 
ENDBRANCH   8  15
TORSDOF 2
ENDMDL
MODEL 2
REMARK VINA RESULT:      -5.5     32.505     34.906
REMARK  Name = 3136_Dimethoxy.pdbqt.pdb
REMARK  2 active torsions:
REMARK  status: ('A' for Active; 'I' for Inactive)
REMARK    1  A    between atoms: C_7  and  O_13
REMARK    2  A    between atoms: C_8  and  O_15
REMARK                            x       y       z     vdW  Elec       q    Type
REMARK                         _______ _______ _______ _____ _____    ______ ____
ROOT
ATOM      1  O   UNL     1     138.355 121.671 136.780  0.00  0.00    +0.000 OA
ATOM      2  O   UNL     1     135.904 123.702 132.506  0.00  0.00    +0.000 OA
ATOM      3  C   UNL     1     138.565 122.739 134.710  0.00  0.00    +0.000 A 
ATOM      4  C   UNL     1     137.928 123.245 133.586  0.00  0.00    +0.000 A 
ATOM      5  C   UNL     1     137.788 122.163 135.813  0.00  0.00    +0.000 C 
ATOM      6  C   UNL     1     136.466 123.208 133.474  0.00  0.00    +0.000 C 
ATOM      7  C   UNL     1     136.309 122.177 135.709  0.00  0.00    +0.000 C 
ATOM      8  C   UNL     1     135.697 122.577 134.575  0.00  0.00    +0.000 C 
ATOM      9  C   UNL     1     139.956 122.774 134.801  0.00  0.00    +0.000 A 
ATOM     10  C   UNL     1     138.677 123.795 132.546  0.00  0.00    +0.000 A 
ATOM     11  C   UNL     1     140.706 123.322 133.763  0.00  0.00    +0.000 A 
ATOM     12  C   UNL     1     140.067 123.833 132.635  0.00  0.00    +0.000 A 
ENDROOT
BRANCH   7  13
ATOM     13  O   UNL     1     135.634 121.664 136.801  0.00  0.00    +0.000 OA
ATOM     14  C   UNL     1     135.229 122.716 137.644  0.00  0.00    +0.000 C 
ENDBRANCH   7  13
BRANCH   8  15
ATOM     15  O   UNL     1     134.327 122.529 134.387  0.00  0.00    +0.000 OA
ATOM     16  C   UNL     1     133.956 121.247 133.941  0.00  0.00    +0.000 C 
ENDBRANCH   8  15
TORSDOF 2
ENDMDL
MODEL 3
REMARK VINA RESULT:      -5.5     32.523     34.900
REMARK  Name = 3136_Dimethoxy.pdbqt.pdb
REMARK  2 active torsions:
REMARK  status: ('A' for Active; 'I' for Inactive)
REMARK    1  A    between atoms: C_7  and  O_13
REMARK    2  A    between atoms: C_8  and  O_15
REMARK                            x       y       z     vdW  Elec       q    Type
REMARK                         _______ _______ _______ _____ _____    ______ ____
ROOT
ATOM      1  O   UNL     1     135.933 123.739 132.527  0.00  0.00    +0.000 OA
ATOM      2  O   UNL     1     138.369 121.663 136.788  0.00  0.00    +0.000 OA
ATOM      3  C   UNL     1     137.953 123.262 133.605  0.00  0.00    +0.000 A 
ATOM      4  C   UNL     1     138.586 122.744 134.725  0.00  0.00    +0.000 A 
ATOM      5  C   UNL     1     136.490 123.235 133.493  0.00  0.00    +0.000 C 
ATOM      6  C   UNL     1     137.806 122.165 135.825  0.00  0.00    +0.000 C 
ATOM      7  C   UNL     1     135.717 122.602 134.589  0.00  0.00    +0.000 C 
ATOM      8  C   UNL     1     136.327 122.191 135.720  0.00  0.00    +0.000 C 
ATOM      9  C   UNL     1     138.706 123.815 132.569  0.00  0.00    +0.000 A 
ATOM     10  C   UNL     1     139.978 122.770 134.817  0.00  0.00    +0.000 A 
ATOM     11  C   UNL     1     140.096 123.844 132.660  0.00  0.00    +0.000 A 
ATOM     12  C   UNL     1     140.732 123.321 133.783  0.00  0.00    +0.000 A 
ENDROOT
BRANCH   7  13
ATOM     13  O   UNL     1     134.348 122.566 134.402  0.00  0.00    +0.000 OA
ATOM     14  C   UNL     1     133.967 121.293 133.939  0.00  0.00    +0.000 C 
ENDBRANCH   7  13
BRANCH   8  15
ATOM     15  O   UNL     1     135.649 121.676 136.810  0.00  0.00    +0.000 OA
ATOM     16  C   UNL     1     135.255 122.725 137.662  0.00  0.00    +0.000 C 
ENDBRANCH   8  15
TORSDOF 2
ENDMDL
MODEL 4
REMARK VINA RESULT:      -5.4      1.232      3.218
REMARK  Name = 3136_Dimethoxy.pdbqt.pdb
REMARK  2 active torsions:
REMARK  status: ('A' for Active; 'I' for Inactive)
REMARK    1  A    between atoms: C_7  and  O_13
REMARK    2  A    between atoms: C_8  and  O_15
REMARK                            x       y       z     vdW  Elec       q    Type
REMARK                         _______ _______ _______ _____ _____    ______ ____
ROOT
ATOM      1  O   UNL     1     145.194 122.729  99.855  0.00  0.00    +0.000 OA
ATOM      2  O   UNL     1     140.946 125.918 100.290  0.00  0.00    +0.000 OA
ATOM      3  C   UNL     1     143.112 123.366  99.001  0.00  0.00    +0.000 A 
ATOM      4  C   UNL     1     141.995 124.179  99.129  0.00  0.00    +0.000 A 
ATOM      5  C   UNL     1     144.233 123.482  99.940  0.00  0.00    +0.000 C 
ATOM      6  C   UNL     1     141.909 125.167 100.210  0.00  0.00    +0.000 C 
ATOM      7  C   UNL     1     144.154 124.519 100.998  0.00  0.00    +0.000 C 
ATOM      8  C   UNL     1     143.027 125.238 101.181  0.00  0.00    +0.000 C 
ATOM      9  C   UNL     1     143.178 122.426  97.972  0.00  0.00    +0.000 A 
ATOM     10  C   UNL     1     140.938 124.063  98.226  0.00  0.00    +0.000 A 
ATOM     11  C   UNL     1     142.123 122.308  97.070  0.00  0.00    +0.000 A 
ATOM     12  C   UNL     1     141.003 123.126  97.197  0.00  0.00    +0.000 A 
ENDROOT
BRANCH   7  13
ATOM     13  O   UNL     1     145.262 124.610 101.820  0.00  0.00    +0.000 OA
ATOM     14  C   UNL     1     146.219 125.457 101.232  0.00  0.00    +0.000 C 
ENDBRANCH   7  13
BRANCH   8  15
ATOM     15  O   UNL     1     142.863 126.154 102.205  0.00  0.00    +0.000 OA
ATOM     16  C   UNL     1     143.293 127.424 101.777  0.00  0.00    +0.000 C 
ENDBRANCH   8  15
TORSDOF 2
ENDMDL
MODEL 5
REMARK VINA RESULT:      -5.4      1.816      4.019
REMARK  Name = 3136_Dimethoxy.pdbqt.pdb
REMARK  2 active torsions:
REMARK  status: ('A' for Active; 'I' for Inactive)
REMARK    1  A    between atoms: C_7  and  O_13
REMARK    2  A    between atoms: C_8  and  O_15
REMARK                            x       y       z     vdW  Elec       q    Type
REMARK                         _______ _______ _______ _____ _____    ______ ____
ROOT
ATOM      1  O   UNL     1     140.890 123.658  99.019  0.00  0.00    +0.000 OA
ATOM      2  O   UNL     1     145.335 124.854 101.703  0.00  0.00    +0.000 OA
ATOM      3  C   UNL     1     141.924 125.024 100.610  0.00  0.00    +0.000 A 
ATOM      4  C   UNL     1     143.074 125.320 101.327  0.00  0.00    +0.000 A 
ATOM      5  C   UNL     1     141.920 123.949  99.613  0.00  0.00    +0.000 C 
ATOM      6  C   UNL     1     144.309 124.558 101.108  0.00  0.00    +0.000 C 
ATOM      7  C   UNL     1     143.188 123.220  99.366  0.00  0.00    +0.000 C 
ATOM      8  C   UNL     1     144.276 123.441 100.132  0.00  0.00    +0.000 C 
ATOM      9  C   UNL     1     140.755 125.752 100.833  0.00  0.00    +0.000 A 
ATOM     10  C   UNL     1     143.067 126.349 102.269  0.00  0.00    +0.000 A 
ATOM     11  C   UNL     1     140.745 126.779 101.774  0.00  0.00    +0.000 A 
ATOM     12  C   UNL     1     141.901 127.078 102.492  0.00  0.00    +0.000 A 
ENDROOT
BRANCH   7  13
ATOM     13  O   UNL     1     143.131 122.252  98.380  0.00  0.00    +0.000 OA
ATOM     14  C   UNL     1     143.486 122.816  97.141  0.00  0.00    +0.000 C 
ENDBRANCH   7  13
BRANCH   8  15
ATOM     15  O   UNL     1     145.456 122.731 100.008  0.00  0.00    +0.000 OA
ATOM     16  C   UNL     1     146.346 123.434  99.173  0.00  0.00    +0.000 C 
ENDBRANCH   8  15
TORSDOF 2
ENDMDL
MODEL 6
REMARK VINA RESULT:      -5.1      1.658      5.315
REMARK  Name = 3136_Dimethoxy.pdbqt.pdb
REMARK  2 active torsions:
REMARK  status: ('A' for Active; 'I' for Inactive)
REMARK    1  A    between atoms: C_7  and  O_13
REMARK    2  A    between atoms: C_8  and  O_15
REMARK                            x       y       z     vdW  Elec       q    Type
REMARK                         _______ _______ _______ _____ _____    ______ ____
ROOT
ATOM      1  O   UNL     1     145.656 124.890  99.429  0.00  0.00    +0.000 OA
ATOM      2  O   UNL     1     143.227 126.727 103.802  0.00  0.00    +0.000 OA
ATOM      3  C   UNL     1     145.871 125.653 101.629  0.00  0.00    +0.000 A 
ATOM      4  C   UNL     1     145.241 126.154 102.759  0.00  0.00    +0.000 A 
ATOM      5  C   UNL     1     145.093 125.285 100.442  0.00  0.00    +0.000 C 
ATOM      6  C   UNL     1     143.785 126.334 102.788  0.00  0.00    +0.000 C 
ATOM      7  C   UNL     1     143.617 125.424 100.502  0.00  0.00    +0.000 C 
ATOM      8  C   UNL     1     143.018 126.005 101.561  0.00  0.00    +0.000 C 
ATOM      9  C   UNL     1     147.256 125.493 101.614  0.00  0.00    +0.000 A 
ATOM     10  C   UNL     1     145.991 126.495 103.885  0.00  0.00    +0.000 A 
ATOM     11  C   UNL     1     148.007 125.834 102.737  0.00  0.00    +0.000 A 
ATOM     12  C   UNL     1     147.375 126.335 103.873  0.00  0.00    +0.000 A 
ENDROOT
BRANCH   7  13
ATOM     13  O   UNL     1     142.938 125.016  99.368  0.00  0.00    +0.000 OA
ATOM     14  C   UNL     1     142.430 123.719  99.562  0.00  0.00    +0.000 C 
ENDBRANCH   7  13
BRANCH   8  15
ATOM     15  O   UNL     1     141.657 126.243 101.635  0.00  0.00    +0.000 OA
ATOM     16  C   UNL     1     141.369 127.513 101.102  0.00  0.00    +0.000 C 
ENDBRANCH   8  15
TORSDOF 2
ENDMDL
MODEL 7
REMARK VINA RESULT:      -5.1     32.311     34.490
REMARK  Name = 3136_Dimethoxy.pdbqt.pdb
REMARK  2 active torsions:
REMARK  status: ('A' for Active; 'I' for Inactive)
REMARK    1  A    between atoms: C_7  and  O_13
REMARK    2  A    between atoms: C_8  and  O_15
REMARK                            x       y       z     vdW  Elec       q    Type
REMARK                         _______ _______ _______ _____ _____    ______ ____
ROOT
ATOM      1  O   UNL     1     134.682 121.835 136.450  0.00  0.00    +0.000 OA
ATOM      2  O   UNL     1     135.277 121.977 131.156  0.00  0.00    +0.000 OA
ATOM      3  C   UNL     1     134.056 120.962 134.373  0.00  0.00    +0.000 A 
ATOM      4  C   UNL     1     134.193 121.017 132.993  0.00  0.00    +0.000 A 
ATOM      5  C   UNL     1     134.842 121.850 135.237  0.00  0.00    +0.000 C 
ATOM      6  C   UNL     1     135.120 121.967 132.369  0.00  0.00    +0.000 C 
ATOM      7  C   UNL     1     135.812 122.771 134.596  0.00  0.00    +0.000 C 
ATOM      8  C   UNL     1     135.870 122.892 133.254  0.00  0.00    +0.000 C 
ATOM      9  C   UNL     1     133.166 120.058 134.952  0.00  0.00    +0.000 A 
ATOM     10  C   UNL     1     133.444 120.163 132.182  0.00  0.00    +0.000 A 
ATOM     11  C   UNL     1     132.417 119.206 134.144  0.00  0.00    +0.000 A 
ATOM     12  C   UNL     1     132.556 119.258 132.758  0.00  0.00    +0.000 A 
ENDROOT
BRANCH   7  13
ATOM     13  O   UNL     1     136.555 123.546 135.467  0.00  0.00    +0.000 OA
ATOM     14  C   UNL     1     137.661 122.810 135.930  0.00  0.00    +0.000 C 
ENDBRANCH   7  13
BRANCH   8  15
ATOM     15  O   UNL     1     136.690 123.797 132.603  0.00  0.00    +0.000 OA
ATOM     16  C   UNL     1     137.952 123.215 132.378  0.00  0.00    +0.000 C 
ENDBRANCH   8  15
TORSDOF 2
ENDMDL
MODEL 8
REMARK VINA RESULT:      -4.9     32.466     34.823
REMARK  Name = 3136_Dimethoxy.pdbqt.pdb
REMARK  2 active torsions:
REMARK  status: ('A' for Active; 'I' for Inactive)
REMARK    1  A    between atoms: C_7  and  O_13
REMARK    2  A    between atoms: C_8  and  O_15
REMARK                            x       y       z     vdW  Elec       q    Type
REMARK                         _______ _______ _______ _____ _____    ______ ____
ROOT
ATOM      1  O   UNL     1     135.971 122.363 136.795  0.00  0.00    +0.000 OA
ATOM      2  O   UNL     1     135.304 121.846 131.534  0.00  0.00    +0.000 OA
ATOM      3  C   UNL     1     136.834 122.733 134.654  0.00  0.00    +0.000 A 
ATOM      4  C   UNL     1     136.671 122.576 133.285  0.00  0.00    +0.000 A 
ATOM      5  C   UNL     1     135.802 122.269 135.587  0.00  0.00    +0.000 C 
ATOM      6  C   UNL     1     135.468 121.936 132.742  0.00  0.00    +0.000 C 
ATOM      7  C   UNL     1     134.568 121.668 135.022  0.00  0.00    +0.000 C 
ATOM      8  C   UNL     1     134.457 121.426 133.700  0.00  0.00    +0.000 C 
ATOM      9  C   UNL     1     137.985 123.338 135.156  0.00  0.00    +0.000 A 
ATOM     10  C   UNL     1     137.658 123.028 132.407  0.00  0.00    +0.000 A 
ATOM     11  C   UNL     1     138.972 123.788 134.282  0.00  0.00    +0.000 A 
ATOM     12  C   UNL     1     138.808 123.634 132.907  0.00  0.00    +0.000 A 
ENDROOT
BRANCH   7  13
ATOM     13  O   UNL     1     133.614 121.294 135.952  0.00  0.00    +0.000 OA
ATOM     14  C   UNL     1     132.658 122.318 136.085  0.00  0.00    +0.000 C 
ENDBRANCH   7  13
BRANCH   8  15
ATOM     15  O   UNL     1     133.370 120.789 133.128  0.00  0.00    +0.000 OA
ATOM     16  C   UNL     1     133.500 119.396 133.288  0.00  0.00    +0.000 C 
ENDBRANCH   8  15
TORSDOF 2
ENDMDL
MODEL 9
REMARK VINA RESULT:      -4.7      2.064      3.095
REMARK  Name = 3136_Dimethoxy.pdbqt.pdb
REMARK  2 active torsions:
REMARK  status: ('A' for Active; 'I' for Inactive)
REMARK    1  A    between atoms: C_7  and  O_13
REMARK    2  A    between atoms: C_8  and  O_15
REMARK                            x       y       z     vdW  Elec       q    Type
REMARK                         _______ _______ _______ _____ _____    ______ ____
ROOT
ATOM      1  O   UNL     1     145.085 125.945  96.895  0.00  0.00    +0.000 OA
ATOM      2  O   UNL     1     144.259 123.733 101.672  0.00  0.00    +0.000 OA
ATOM      3  C   UNL     1     143.571 124.936  98.365  0.00  0.00    +0.000 A 
ATOM      4  C   UNL     1     143.362 124.338  99.599  0.00  0.00    +0.000 A 
ATOM      5  C   UNL     1     144.892 125.464  98.004  0.00  0.00    +0.000 C 
ATOM      6  C   UNL     1     144.459 124.214 100.566  0.00  0.00    +0.000 C 
ATOM      7  C   UNL     1     145.978 125.376  99.010  0.00  0.00    +0.000 C 
ATOM      8  C   UNL     1     145.800 124.706 100.167  0.00  0.00    +0.000 C 
ATOM      9  C   UNL     1     142.521 125.042  97.453  0.00  0.00    +0.000 A 
ATOM     10  C   UNL     1     142.100 123.845  99.933  0.00  0.00    +0.000 A 
ATOM     11  C   UNL     1     141.261 124.550  97.783  0.00  0.00    +0.000 A 
ATOM     12  C   UNL     1     141.050 123.952  99.024  0.00  0.00    +0.000 A 
ENDROOT
BRANCH   7  13
ATOM     13  O   UNL     1     147.184 125.934  98.627  0.00  0.00    +0.000 OA
ATOM     14  C   UNL     1     147.185 127.309  98.925  0.00  0.00    +0.000 C 
ENDBRANCH   7  13
BRANCH   8  15
ATOM     15  O   UNL     1     146.801 124.515 101.102  0.00  0.00    +0.000 OA
ATOM     16  C   UNL     1     146.840 125.611 101.985  0.00  0.00    +0.000 C 
ENDBRANCH   8  15
TORSDOF 2
ENDMDL
