MODEL 1
REMARK VINA RESULT:      -5.1      0.000      0.000
REMARK  Name = 326_Cuminaldehyde.pdb
REMARK  1 active torsions:
REMARK  status: ('A' for Active; 'I' for Inactive)
REMARK    1  A    between atoms: C_1  and  C_7
REMARK                            x       y       z     vdW  Elec       q    Type
REMARK                         _______ _______ _______ _____ _____    ______ ____
ROOT
ATOM      1  C   UNL     1     140.647 126.761 133.703  0.00  0.00    +0.000 C 
ATOM      2  C   UNL     1     141.122 127.957 134.248  0.00  0.00    +0.000 C 
ATOM      3  C   UNL     1     140.663 125.598 134.477  0.00  0.00    +0.000 C 
ATOM      4  C   UNL     1     141.605 127.989 135.555  0.00  0.00    +0.000 C 
ATOM      5  C   UNL     1     141.147 125.630 135.784  0.00  0.00    +0.000 C 
ATOM      6  C   UNL     1     141.617 126.826 136.321  0.00  0.00    +0.000 C 
ATOM      7  O   UNL     1     142.521 126.886 138.760  0.00  0.00    +0.000 OA
ATOM      8  C   UNL     1     142.113 126.859 137.658  0.00  0.00    +0.000 C 
ENDROOT
BRANCH   1   9
ATOM      9  C   UNL     1     140.140 126.728 132.334  0.00  0.00    +0.000 C 
ATOM     10  C   UNL     1     139.962 125.427 131.591  0.00  0.00    +0.000 C 
ATOM     11  C   UNL     1     139.771 127.992 131.600  0.00  0.00    +0.000 C 
ENDBRANCH   1   9
TORSDOF 1
ENDMDL
MODEL 2
REMARK VINA RESULT:      -5.0     22.632     23.693
REMARK  Name = 326_Cuminaldehyde.pdb
REMARK  1 active torsions:
REMARK  status: ('A' for Active; 'I' for Inactive)
REMARK    1  A    between atoms: C_1  and  C_7
REMARK                            x       y       z     vdW  Elec       q    Type
REMARK                         _______ _______ _______ _____ _____    ______ ____
ROOT
ATOM      1  C   UNL     1     135.885 128.423 111.949  0.00  0.00    +0.000 C 
ATOM      2  C   UNL     1     135.831 129.182 113.121  0.00  0.00    +0.000 C 
ATOM      3  C   UNL     1     134.754 128.335 111.135  0.00  0.00    +0.000 C 
ATOM      4  C   UNL     1     134.659 129.848 113.474  0.00  0.00    +0.000 C 
ATOM      5  C   UNL     1     133.580 129.000 111.488  0.00  0.00    +0.000 C 
ATOM      6  C   UNL     1     133.535 129.755 112.658  0.00  0.00    +0.000 C 
ATOM      7  O   UNL     1     131.344 130.996 113.316  0.00  0.00    +0.000 OA
ATOM      8  C   UNL     1     132.334 130.435 113.018  0.00  0.00    +0.000 C 
ENDROOT
BRANCH   1   9
ATOM      9  C   UNL     1     137.114 127.727 111.580  0.00  0.00    +0.000 C 
ATOM     10  C   UNL     1     137.626 127.731 110.161  0.00  0.00    +0.000 C 
ATOM     11  C   UNL     1     137.929 126.973 112.600  0.00  0.00    +0.000 C 
ENDBRANCH   1   9
TORSDOF 1
ENDMDL
MODEL 3
REMARK VINA RESULT:      -5.0      5.319      6.644
REMARK  Name = 326_Cuminaldehyde.pdb
REMARK  1 active torsions:
REMARK  status: ('A' for Active; 'I' for Inactive)
REMARK    1  A    between atoms: C_1  and  C_7
REMARK                            x       y       z     vdW  Elec       q    Type
REMARK                         _______ _______ _______ _____ _____    ______ ____
ROOT
ATOM      1  C   UNL     1     136.187 123.218 135.428  0.00  0.00    +0.000 C 
ATOM      2  C   UNL     1     137.462 122.772 135.788  0.00  0.00    +0.000 C 
ATOM      3  C   UNL     1     136.015 123.911 134.228  0.00  0.00    +0.000 C 
ATOM      4  C   UNL     1     138.552 123.016 134.955  0.00  0.00    +0.000 C 
ATOM      5  C   UNL     1     137.106 124.157 133.395  0.00  0.00    +0.000 C 
ATOM      6  C   UNL     1     138.373 123.708 133.760  0.00  0.00    +0.000 C 
ATOM      7  O   UNL     1     140.409 124.166 132.206  0.00  0.00    +0.000 OA
ATOM      8  C   UNL     1     139.489 123.959 132.908  0.00  0.00    +0.000 C 
ENDROOT
BRANCH   1   9
ATOM      9  C   UNL     1     135.045 122.961 136.300  0.00  0.00    +0.000 C 
ATOM     10  C   UNL     1     135.215 122.780 137.788  0.00  0.00    +0.000 C 
ATOM     11  C   UNL     1     133.643 122.866 135.753  0.00  0.00    +0.000 C 
ENDBRANCH   1   9
TORSDOF 1
ENDMDL
MODEL 4
REMARK VINA RESULT:      -4.8      4.217      5.762
REMARK  Name = 326_Cuminaldehyde.pdb
REMARK  1 active torsions:
REMARK  status: ('A' for Active; 'I' for Inactive)
REMARK    1  A    between atoms: C_1  and  C_7
REMARK                            x       y       z     vdW  Elec       q    Type
REMARK                         _______ _______ _______ _____ _____    ______ ____
ROOT
ATOM      1  C   UNL     1     137.814 123.513 134.436  0.00  0.00    +0.000 C 
ATOM      2  C   UNL     1     139.137 123.068 134.496  0.00  0.00    +0.000 C 
ATOM      3  C   UNL     1     137.444 124.438 133.457  0.00  0.00    +0.000 C 
ATOM      4  C   UNL     1     140.080 123.542 133.586  0.00  0.00    +0.000 C 
ATOM      5  C   UNL     1     138.386 124.913 132.546  0.00  0.00    +0.000 C 
ATOM      6  C   UNL     1     139.703 124.464 132.612  0.00  0.00    +0.000 C 
ATOM      7  O   UNL     1     141.463 125.351 130.913  0.00  0.00    +0.000 OA
ATOM      8  C   UNL     1     140.668 124.950 131.681  0.00  0.00    +0.000 C 
ENDROOT
BRANCH   1   9
ATOM      9  C   UNL     1     136.826 123.016 135.389  0.00  0.00    +0.000 C 
ATOM     10  C   UNL     1     137.224 122.137 136.549  0.00  0.00    +0.000 C 
ATOM     11  C   UNL     1     135.363 123.358 135.258  0.00  0.00    +0.000 C 
ENDBRANCH   1   9
TORSDOF 1
ENDMDL
MODEL 5
REMARK VINA RESULT:      -4.8      3.880      5.358
REMARK  Name = 326_Cuminaldehyde.pdb
REMARK  1 active torsions:
REMARK  status: ('A' for Active; 'I' for Inactive)
REMARK    1  A    between atoms: C_1  and  C_7
REMARK                            x       y       z     vdW  Elec       q    Type
REMARK                         _______ _______ _______ _____ _____    ______ ____
ROOT
ATOM      1  C   UNL     1     139.526 130.205 133.276  0.00  0.00    +0.000 C 
ATOM      2  C   UNL     1     138.764 129.448 132.382  0.00  0.00    +0.000 C 
ATOM      3  C   UNL     1     140.868 129.876 133.483  0.00  0.00    +0.000 C 
ATOM      4  C   UNL     1     139.337 128.375 131.702  0.00  0.00    +0.000 C 
ATOM      5  C   UNL     1     141.442 128.803 132.804  0.00  0.00    +0.000 C 
ATOM      6  C   UNL     1     140.675 128.053 131.914  0.00  0.00    +0.000 C 
ATOM      7  O   UNL     1     141.747 126.049 130.647  0.00  0.00    +0.000 OA
ATOM      8  C   UNL     1     141.263 126.955 131.220  0.00  0.00    +0.000 C 
ENDROOT
BRANCH   1   9
ATOM      9  C   UNL     1     138.925 131.329 133.987  0.00  0.00    +0.000 C 
ATOM     10  C   UNL     1     137.693 131.154 134.839  0.00  0.00    +0.000 C 
ATOM     11  C   UNL     1     139.509 132.717 133.902  0.00  0.00    +0.000 C 
ENDBRANCH   1   9
TORSDOF 1
ENDMDL
MODEL 6
REMARK VINA RESULT:      -4.8      3.894      4.149
REMARK  Name = 326_Cuminaldehyde.pdb
REMARK  1 active torsions:
REMARK  status: ('A' for Active; 'I' for Inactive)
REMARK    1  A    between atoms: C_1  and  C_7
REMARK                            x       y       z     vdW  Elec       q    Type
REMARK                         _______ _______ _______ _____ _____    ______ ____
ROOT
ATOM      1  C   UNL     1     139.884 125.216 131.895  0.00  0.00    +0.000 C 
ATOM      2  C   UNL     1     140.750 124.272 132.452  0.00  0.00    +0.000 C 
ATOM      3  C   UNL     1     138.594 125.356 132.414  0.00  0.00    +0.000 C 
ATOM      4  C   UNL     1     140.332 123.477 133.519  0.00  0.00    +0.000 C 
ATOM      5  C   UNL     1     138.175 124.561 133.479  0.00  0.00    +0.000 C 
ATOM      6  C   UNL     1     139.045 123.623 134.030  0.00  0.00    +0.000 C 
ATOM      7  O   UNL     1     138.262 122.139 136.019  0.00  0.00    +0.000 OA
ATOM      8  C   UNL     1     138.616 122.809 135.120  0.00  0.00    +0.000 C 
ENDROOT
BRANCH   1   9
ATOM      9  C   UNL     1     140.323 126.049 130.779  0.00  0.00    +0.000 C 
ATOM     10  C   UNL     1     141.659 125.834 130.114  0.00  0.00    +0.000 C 
ATOM     11  C   UNL     1     139.460 127.162 130.241  0.00  0.00    +0.000 C 
ENDBRANCH   1   9
TORSDOF 1
ENDMDL
MODEL 7
REMARK VINA RESULT:      -4.8      4.872      5.977
REMARK  Name = 326_Cuminaldehyde.pdb
REMARK  1 active torsions:
REMARK  status: ('A' for Active; 'I' for Inactive)
REMARK    1  A    between atoms: C_1  and  C_7
REMARK                            x       y       z     vdW  Elec       q    Type
REMARK                         _______ _______ _______ _____ _____    ______ ____
ROOT
ATOM      1  C   UNL     1     138.670 123.887 134.401  0.00  0.00    +0.000 C 
ATOM      2  C   UNL     1     137.648 124.378 133.584  0.00  0.00    +0.000 C 
ATOM      3  C   UNL     1     138.347 123.084 135.498  0.00  0.00    +0.000 C 
ATOM      4  C   UNL     1     136.317 124.068 133.862  0.00  0.00    +0.000 C 
ATOM      5  C   UNL     1     137.017 122.775 135.776  0.00  0.00    +0.000 C 
ATOM      6  C   UNL     1     136.003 123.268 134.957  0.00  0.00    +0.000 C 
ATOM      7  O   UNL     1     133.520 122.691 135.476  0.00  0.00    +0.000 OA
ATOM      8  C   UNL     1     134.642 122.952 135.242  0.00  0.00    +0.000 C 
ENDROOT
BRANCH   1   9
ATOM      9  C   UNL     1     140.063 124.210 134.110  0.00  0.00    +0.000 C 
ATOM     10  C   UNL     1     140.619 124.112 132.711  0.00  0.00    +0.000 C 
ATOM     11  C   UNL     1     141.011 124.657 135.194  0.00  0.00    +0.000 C 
ENDBRANCH   1   9
TORSDOF 1
ENDMDL
MODEL 8
REMARK VINA RESULT:      -4.7     34.288     36.477
REMARK  Name = 326_Cuminaldehyde.pdb
REMARK  1 active torsions:
REMARK  status: ('A' for Active; 'I' for Inactive)
REMARK    1  A    between atoms: C_1  and  C_7
REMARK                            x       y       z     vdW  Elec       q    Type
REMARK                         _______ _______ _______ _____ _____    ______ ____
ROOT
ATOM      1  C   UNL     1     140.793 124.088  99.463  0.00  0.00    +0.000 C 
ATOM      2  C   UNL     1     140.120 123.737  98.290  0.00  0.00    +0.000 C 
ATOM      3  C   UNL     1     142.134 123.728  99.619  0.00  0.00    +0.000 C 
ATOM      4  C   UNL     1     140.781 123.036  97.283  0.00  0.00    +0.000 C 
ATOM      5  C   UNL     1     142.796 123.026  98.612  0.00  0.00    +0.000 C 
ATOM      6  C   UNL     1     142.117 122.681  97.445  0.00  0.00    +0.000 C 
ATOM      7  O   UNL     1     143.351 121.371  95.566  0.00  0.00    +0.000 OA
ATOM      8  C   UNL     1     142.794 121.963  96.415  0.00  0.00    +0.000 C 
ENDROOT
BRANCH   1   9
ATOM      9  C   UNL     1     140.101 124.823 100.517  0.00  0.00    +0.000 C 
ATOM     10  C   UNL     1     140.734 126.012 101.195  0.00  0.00    +0.000 C 
ATOM     11  C   UNL     1     138.720 124.426 100.977  0.00  0.00    +0.000 C 
ENDBRANCH   1   9
TORSDOF 1
ENDMDL
MODEL 9
REMARK VINA RESULT:      -4.6      4.363      6.447
REMARK  Name = 326_Cuminaldehyde.pdb
REMARK  1 active torsions:
REMARK  status: ('A' for Active; 'I' for Inactive)
REMARK    1  A    between atoms: C_1  and  C_7
REMARK                            x       y       z     vdW  Elec       q    Type
REMARK                         _______ _______ _______ _____ _____    ______ ____
ROOT
ATOM      1  C   UNL     1     140.264 126.253 131.446  0.00  0.00    +0.000 C 
ATOM      2  C   UNL     1     141.467 125.585 131.201  0.00  0.00    +0.000 C 
ATOM      3  C   UNL     1     139.574 126.838 130.382  0.00  0.00    +0.000 C 
ATOM      4  C   UNL     1     141.973 125.503 129.904  0.00  0.00    +0.000 C 
ATOM      5  C   UNL     1     140.081 126.757 129.085  0.00  0.00    +0.000 C 
ATOM      6  C   UNL     1     141.280 126.089 128.849  0.00  0.00    +0.000 C 
ATOM      7  O   UNL     1     142.225 125.937 126.429  0.00  0.00    +0.000 OA
ATOM      8  C   UNL     1     141.798 126.006 127.523  0.00  0.00    +0.000 C 
ENDROOT
BRANCH   1   9
ATOM      9  C   UNL     1     139.734 126.338 132.803  0.00  0.00    +0.000 C 
ATOM     10  C   UNL     1     140.448 127.116 133.880  0.00  0.00    +0.000 C 
ATOM     11  C   UNL     1     138.448 125.652 133.190  0.00  0.00    +0.000 C 
ENDBRANCH   1   9
TORSDOF 1
ENDMDL
