MODEL 1
REMARK VINA RESULT:      -5.8      0.000      0.000
REMARK  Name = 3363_5FluorouracilDeoxyriboside.pdbqt.pdb
REMARK  4 active torsions:
REMARK  status: ('A' for Active; 'I' for Inactive)
REMARK    1  A    between atoms: N_4  and  C1*_13
REMARK    2  A    between atoms: C3*_12  and  O3*_16
REMARK    3  A    between atoms: C4*_15  and  C5*_18
REMARK    4  A    between atoms: C5*_18  and  O5*_19
REMARK                            x       y       z     vdW  Elec       q    Type
REMARK                         _______ _______ _______ _____ _____    ______ ____
ROOT
ATOM      1  F   UNL     1     142.725 127.875 102.110  0.00  0.00    +0.000 F 
ATOM      2  O   UNL     1     147.547 125.373 102.109  0.00  0.00    +0.000 OA
ATOM      3  O   UNL     1     143.496 126.072 104.149  0.00  0.00    +0.000 OA
ATOM      4  N   UNL     1     145.933 126.671 100.955  0.00  0.00    +0.000 N 
ATOM      5  N   UNL     1     145.478 125.688 103.041  0.00  0.00    +0.000 N 
ATOM      6  C   UNL     1     146.433 125.874 102.012  0.00  0.00    +0.000 C 
ATOM      7  C   UNL     1     144.667 127.122 101.069  0.00  0.00    +0.000 C 
ATOM      8  C   UNL     1     143.736 127.004 101.954  0.00  0.00    +0.000 C 
ATOM      9  C   UNL     1     144.187 126.222 103.149  0.00  0.00    +0.000 C 
ATOM     10  H   UNL     1     145.803 125.158 103.837  0.00  0.00    +0.000 HD
ENDROOT
BRANCH   4  13
ATOM     11  O4* UNL     1     147.131 128.311  99.641  0.00  0.00    +0.000 OA
ATOM     12  C3* UNL     1     147.788 126.973  97.867  0.00  0.00    +0.000 A 
ATOM     13  C1* UNL     1     146.656 127.010  99.846  0.00  0.00    +0.000 A 
ATOM     14  C2* UNL     1     147.058 126.187  98.776  0.00  0.00    +0.000 A 
ATOM     15  C4* UNL     1     147.829 128.302  98.427  0.00  0.00    +0.000 A 
BRANCH  12  16
ATOM     16  O3* UNL     1     148.800 126.483  97.089  0.00  0.00    +0.000 OA
ATOM     17  H3* UNL     1     149.019 125.560  97.310  0.00  0.00    +0.000 HD
ENDBRANCH  12  16
BRANCH  15  18
ATOM     18  C5* UNL     1     148.610 129.392  97.995  0.00  0.00    +0.000 C 
BRANCH  18  19
ATOM     19  O5* UNL     1     149.362 130.414  97.602  0.00  0.00    +0.000 OA
ATOM     20  H5* UNL     1     150.111 130.544  98.210  0.00  0.00    +0.000 HD
ENDBRANCH  18  19
ENDBRANCH  15  18
ENDBRANCH   4  13
TORSDOF 4
ENDMDL
MODEL 2
REMARK VINA RESULT:      -5.6      3.462      4.638
REMARK  Name = 3363_5FluorouracilDeoxyriboside.pdbqt.pdb
REMARK  4 active torsions:
REMARK  status: ('A' for Active; 'I' for Inactive)
REMARK    1  A    between atoms: N_4  and  C1*_13
REMARK    2  A    between atoms: C3*_12  and  O3*_16
REMARK    3  A    between atoms: C4*_15  and  C5*_18
REMARK    4  A    between atoms: C5*_18  and  O5*_19
REMARK                            x       y       z     vdW  Elec       q    Type
REMARK                         _______ _______ _______ _____ _____    ______ ____
ROOT
ATOM      1  F   UNL     1     141.941 123.135  98.929  0.00  0.00    +0.000 F 
ATOM      2  O   UNL     1     141.285 127.569 101.999  0.00  0.00    +0.000 OA
ATOM      3  O   UNL     1     139.412 123.936  99.911  0.00  0.00    +0.000 OA
ATOM      4  N   UNL     1     142.744 125.991 100.997  0.00  0.00    +0.000 N 
ATOM      5  N   UNL     1     140.412 125.693 101.014  0.00  0.00    +0.000 N 
ATOM      6  C   UNL     1     141.494 126.522 101.397  0.00  0.00    +0.000 C 
ATOM      7  C   UNL     1     142.729 124.817 100.334  0.00  0.00    +0.000 C 
ATOM      8  C   UNL     1     141.808 124.001  99.947  0.00  0.00    +0.000 C 
ATOM      9  C   UNL     1     140.435 124.504 100.274  0.00  0.00    +0.000 C 
ATOM     10  H   UNL     1     139.496 126.052 101.243  0.00  0.00    +0.000 HD
ENDROOT
BRANCH   4  13
ATOM     11  O4* UNL     1     144.758 127.063 100.193  0.00  0.00    +0.000 OA
ATOM     12  C3* UNL     1     145.780 127.523 102.221  0.00  0.00    +0.000 A 
ATOM     13  C1* UNL     1     143.944 126.600 101.234  0.00  0.00    +0.000 A 
ATOM     14  C2* UNL     1     144.554 126.883 102.471  0.00  0.00    +0.000 A 
ATOM     15  C4* UNL     1     145.891 127.633 100.786  0.00  0.00    +0.000 A 
BRANCH  12  16
ATOM     16  O3* UNL     1     146.336 128.446 103.062  0.00  0.00    +0.000 OA
ATOM     17  H3* UNL     1     145.662 128.933 103.570  0.00  0.00    +0.000 HD
ENDBRANCH  12  16
BRANCH  15  18
ATOM     18  C5* UNL     1     146.836 128.376 100.052  0.00  0.00    +0.000 C 
BRANCH  18  19
ATOM     19  O5* UNL     1     147.714 129.078  99.345  0.00  0.00    +0.000 OA
ATOM     20  H5* UNL     1     148.617 128.938  99.680  0.00  0.00    +0.000 HD
ENDBRANCH  18  19
ENDBRANCH  15  18
ENDBRANCH   4  13
TORSDOF 4
ENDMDL
MODEL 3
REMARK VINA RESULT:      -5.5      3.645      5.102
REMARK  Name = 3363_5FluorouracilDeoxyriboside.pdbqt.pdb
REMARK  4 active torsions:
REMARK  status: ('A' for Active; 'I' for Inactive)
REMARK    1  A    between atoms: N_4  and  C1*_13
REMARK    2  A    between atoms: C3*_12  and  O3*_16
REMARK    3  A    between atoms: C4*_15  and  C5*_18
REMARK    4  A    between atoms: C5*_18  and  O5*_19
REMARK                            x       y       z     vdW  Elec       q    Type
REMARK                         _______ _______ _______ _____ _____    ______ ____
ROOT
ATOM      1  F   UNL     1     140.426 123.703  98.811  0.00  0.00    +0.000 F 
ATOM      2  O   UNL     1     140.912 127.305 102.849  0.00  0.00    +0.000 OA
ATOM      3  O   UNL     1     138.373 124.137 100.709  0.00  0.00    +0.000 OA
ATOM      4  N   UNL     1     141.927 126.065 101.101  0.00  0.00    +0.000 N 
ATOM      5  N   UNL     1     139.719 125.654 101.799  0.00  0.00    +0.000 N 
ATOM      6  C   UNL     1     140.888 126.430 101.991  0.00  0.00    +0.000 C 
ATOM      7  C   UNL     1     141.669 125.068 100.231  0.00  0.00    +0.000 C 
ATOM      8  C   UNL     1     140.652 124.313  99.986  0.00  0.00    +0.000 C 
ATOM      9  C   UNL     1     139.471 124.661 100.841  0.00  0.00    +0.000 C 
ATOM     10  H   UNL     1     138.937 125.905 102.385  0.00  0.00    +0.000 HD
ENDROOT
BRANCH   4  13
ATOM     11  O4* UNL     1     143.868 126.950 102.242  0.00  0.00    +0.000 OA
ATOM     12  C3* UNL     1     145.107 127.638 100.408  0.00  0.00    +0.000 A 
ATOM     13  C1* UNL     1     143.153 126.666 101.071  0.00  0.00    +0.000 A 
ATOM     14  C2* UNL     1     143.903 127.073  99.951  0.00  0.00    +0.000 A 
ATOM     15  C4* UNL     1     145.071 127.548 101.848  0.00  0.00    +0.000 A 
BRANCH  12  16
ATOM     16  O3* UNL     1     146.279 127.585  99.708  0.00  0.00    +0.000 OA
ATOM     17  H3* UNL     1     146.924 128.244 100.022  0.00  0.00    +0.000 HD
ENDBRANCH  12  16
BRANCH  15  18
ATOM     18  C5* UNL     1     146.126 127.791 102.749  0.00  0.00    +0.000 C 
BRANCH  18  19
ATOM     19  O5* UNL     1     147.108 128.014 103.616  0.00  0.00    +0.000 OA
ATOM     20  H5* UNL     1     146.754 128.335 104.463  0.00  0.00    +0.000 HD
ENDBRANCH  18  19
ENDBRANCH  15  18
ENDBRANCH   4  13
TORSDOF 4
ENDMDL
MODEL 4
REMARK VINA RESULT:      -5.3      3.245      6.289
REMARK  Name = 3363_5FluorouracilDeoxyriboside.pdbqt.pdb
REMARK  4 active torsions:
REMARK  status: ('A' for Active; 'I' for Inactive)
REMARK    1  A    between atoms: N_4  and  C1*_13
REMARK    2  A    between atoms: C3*_12  and  O3*_16
REMARK    3  A    between atoms: C4*_15  and  C5*_18
REMARK    4  A    between atoms: C5*_18  and  O5*_19
REMARK                            x       y       z     vdW  Elec       q    Type
REMARK                         _______ _______ _______ _____ _____    ______ ____
ROOT
ATOM      1  F   UNL     1     146.300 128.858  96.893  0.00  0.00    +0.000 F 
ATOM      2  O   UNL     1     145.672 127.258 102.046  0.00  0.00    +0.000 OA
ATOM      3  O   UNL     1     148.406 128.964  98.778  0.00  0.00    +0.000 OA
ATOM      4  N   UNL     1     144.693 127.813  99.960  0.00  0.00    +0.000 N 
ATOM      5  N   UNL     1     146.971 128.190 100.404  0.00  0.00    +0.000 N 
ATOM      6  C   UNL     1     145.739 127.707 100.908  0.00  0.00    +0.000 C 
ATOM      7  C   UNL     1     145.005 128.339  98.758  0.00  0.00    +0.000 C 
ATOM      8  C   UNL     1     146.081 128.800  98.217  0.00  0.00    +0.000 C 
ATOM      9  C   UNL     1     147.267 128.679  99.125  0.00  0.00    +0.000 C 
ATOM     10  H   UNL     1     147.756 128.097 101.033  0.00  0.00    +0.000 HD
ENDROOT
BRANCH   4  13
ATOM     11  O4* UNL     1     142.940 126.156  99.774  0.00  0.00    +0.000 OA
ATOM     12  C3* UNL     1     141.231 127.288 100.853  0.00  0.00    +0.000 A 
ATOM     13  C1* UNL     1     143.409 127.409 100.190  0.00  0.00    +0.000 A 
ATOM     14  C2* UNL     1     142.378 128.101 100.855  0.00  0.00    +0.000 A 
ATOM     15  C4* UNL     1     141.602 126.070 100.176  0.00  0.00    +0.000 A 
BRANCH  12  16
ATOM     16  O3* UNL     1     140.291 127.307 101.846  0.00  0.00    +0.000 OA
ATOM     17  H3* UNL     1     140.055 128.215 102.110  0.00  0.00    +0.000 HD
ENDBRANCH  12  16
BRANCH  15  18
ATOM     18  C5* UNL     1     140.865 124.872 100.098  0.00  0.00    +0.000 C 
BRANCH  18  19
ATOM     19  O5* UNL     1     140.154 123.751 100.034  0.00  0.00    +0.000 OA
ATOM     20  H5* UNL     1     140.626 123.019 100.468  0.00  0.00    +0.000 HD
ENDBRANCH  18  19
ENDBRANCH  15  18
ENDBRANCH   4  13
TORSDOF 4
ENDMDL
MODEL 5
REMARK VINA RESULT:      -5.1      2.802      5.994
REMARK  Name = 3363_5FluorouracilDeoxyriboside.pdbqt.pdb
REMARK  4 active torsions:
REMARK  status: ('A' for Active; 'I' for Inactive)
REMARK    1  A    between atoms: N_4  and  C1*_13
REMARK    2  A    between atoms: C3*_12  and  O3*_16
REMARK    3  A    between atoms: C4*_15  and  C5*_18
REMARK    4  A    between atoms: C5*_18  and  O5*_19
REMARK                            x       y       z     vdW  Elec       q    Type
REMARK                         _______ _______ _______ _____ _____    ______ ____
ROOT
ATOM      1  F   UNL     1     146.352 128.533  96.079  0.00  0.00    +0.000 F 
ATOM      2  O   UNL     1     147.023 128.118 101.454  0.00  0.00    +0.000 OA
ATOM      3  O   UNL     1     148.521 129.746  97.432  0.00  0.00    +0.000 OA
ATOM      4  N   UNL     1     145.641 127.817  99.552  0.00  0.00    +0.000 N 
ATOM      5  N   UNL     1     147.680 128.981  99.435  0.00  0.00    +0.000 N 
ATOM      6  C   UNL     1     146.774 128.276 100.265  0.00  0.00    +0.000 C 
ATOM      7  C   UNL     1     145.584 128.105  98.236  0.00  0.00    +0.000 C 
ATOM      8  C   UNL     1     146.348 128.734  97.408  0.00  0.00    +0.000 C 
ATOM      9  C   UNL     1     147.611 129.212  98.055  0.00  0.00    +0.000 C 
ATOM     10  H   UNL     1     148.525 129.293  99.893  0.00  0.00    +0.000 HD
ENDROOT
BRANCH   4  13
ATOM     11  O4* UNL     1     143.844 127.615 101.159  0.00  0.00    +0.000 OA
ATOM     12  C3* UNL     1     143.093 125.489 100.626  0.00  0.00    +0.000 A 
ATOM     13  C1* UNL     1     144.623 127.101 100.115  0.00  0.00    +0.000 A 
ATOM     14  C2* UNL     1     144.167 125.811  99.778  0.00  0.00    +0.000 A 
ATOM     15  C4* UNL     1     142.900 126.633 101.483  0.00  0.00    +0.000 A 
BRANCH  12  16
ATOM     16  O3* UNL     1     142.057 124.678 100.256  0.00  0.00    +0.000 OA
ATOM     17  H3* UNL     1     141.562 125.038  99.498  0.00  0.00    +0.000 HD
ENDBRANCH  12  16
BRANCH  15  18
ATOM     18  C5* UNL     1     141.823 126.879 102.358  0.00  0.00    +0.000 C 
BRANCH  18  19
ATOM     19  O5* UNL     1     140.815 127.130 103.185  0.00  0.00    +0.000 OA
ATOM     20  H5* UNL     1     140.799 126.485 103.914  0.00  0.00    +0.000 HD
ENDBRANCH  18  19
ENDBRANCH  15  18
ENDBRANCH   4  13
TORSDOF 4
ENDMDL
MODEL 6
REMARK VINA RESULT:      -5.1      1.959      2.670
REMARK  Name = 3363_5FluorouracilDeoxyriboside.pdbqt.pdb
REMARK  4 active torsions:
REMARK  status: ('A' for Active; 'I' for Inactive)
REMARK    1  A    between atoms: N_4  and  C1*_13
REMARK    2  A    between atoms: C3*_12  and  O3*_16
REMARK    3  A    between atoms: C4*_15  and  C5*_18
REMARK    4  A    between atoms: C5*_18  and  O5*_19
REMARK                            x       y       z     vdW  Elec       q    Type
REMARK                         _______ _______ _______ _____ _____    ______ ____
ROOT
ATOM      1  F   UNL     1     141.648 128.657  99.207  0.00  0.00    +0.000 F 
ATOM      2  O   UNL     1     145.688 127.075 102.477  0.00  0.00    +0.000 OA
ATOM      3  O   UNL     1     141.192 127.750 101.848  0.00  0.00    +0.000 OA
ATOM      4  N   UNL     1     144.948 127.663 100.302  0.00  0.00    +0.000 N 
ATOM      5  N   UNL     1     143.446 127.345 102.084  0.00  0.00    +0.000 N 
ATOM      6  C   UNL     1     144.801 127.337 101.672  0.00  0.00    +0.000 C 
ATOM      7  C   UNL     1     143.821 127.922  99.608  0.00  0.00    +0.000 C 
ATOM      8  C   UNL     1     142.563 127.952  99.892  0.00  0.00    +0.000 C 
ATOM      9  C   UNL     1     142.304 127.676 101.342  0.00  0.00    +0.000 C 
ATOM     10  H   UNL     1     143.296 127.158 103.065  0.00  0.00    +0.000 HD
ENDROOT
BRANCH   4  13
ATOM     11  O4* UNL     1     146.548 126.775  98.720  0.00  0.00    +0.000 OA
ATOM     12  C3* UNL     1     148.208 128.379  98.917  0.00  0.00    +0.000 A 
ATOM     13  C1* UNL     1     146.150 127.736  99.659  0.00  0.00    +0.000 A 
ATOM     14  C2* UNL     1     147.150 128.720  99.778  0.00  0.00    +0.000 A 
ATOM     15  C4* UNL     1     147.812 127.159  98.257  0.00  0.00    +0.000 A 
BRANCH  12  16
ATOM     16  O3* UNL     1     149.015 129.301  98.311  0.00  0.00    +0.000 OA
ATOM     17  H3* UNL     1     149.319 129.988  98.932  0.00  0.00    +0.000 HD
ENDBRANCH  12  16
BRANCH  15  18
ATOM     18  C5* UNL     1     148.438 126.534  97.160  0.00  0.00    +0.000 C 
BRANCH  18  19
ATOM     19  O5* UNL     1     149.040 125.934  96.139  0.00  0.00    +0.000 OA
ATOM     20  H5* UNL     1     150.007 125.997  96.225  0.00  0.00    +0.000 HD
ENDBRANCH  18  19
ENDBRANCH  15  18
ENDBRANCH   4  13
TORSDOF 4
ENDMDL
MODEL 7
REMARK VINA RESULT:      -5.1     34.294     36.363
REMARK  Name = 3363_5FluorouracilDeoxyriboside.pdbqt.pdb
REMARK  4 active torsions:
REMARK  status: ('A' for Active; 'I' for Inactive)
REMARK    1  A    between atoms: N_4  and  C1*_13
REMARK    2  A    between atoms: C3*_12  and  O3*_16
REMARK    3  A    between atoms: C4*_15  and  C5*_18
REMARK    4  A    between atoms: C5*_18  and  O5*_19
REMARK                            x       y       z     vdW  Elec       q    Type
REMARK                         _______ _______ _______ _____ _____    ______ ____
ROOT
ATOM      1  F   UNL     1     132.926 118.225 134.101  0.00  0.00    +0.000 F 
ATOM      2  O   UNL     1     135.884 122.118 131.734  0.00  0.00    +0.000 OA
ATOM      3  O   UNL     1     132.426 119.112 131.462  0.00  0.00    +0.000 OA
ATOM      4  N   UNL     1     135.283 120.937 133.700  0.00  0.00    +0.000 N 
ATOM      5  N   UNL     1     134.113 120.665 131.679  0.00  0.00    +0.000 N 
ATOM      6  C   UNL     1     135.177 121.323 132.343  0.00  0.00    +0.000 C 
ATOM      7  C   UNL     1     134.391 120.034 134.154  0.00  0.00    +0.000 C 
ATOM      8  C   UNL     1     133.401 119.391 133.634  0.00  0.00    +0.000 C 
ATOM      9  C   UNL     1     133.240 119.687 132.174  0.00  0.00    +0.000 C 
ATOM     10  H   UNL     1     134.023 120.879 130.696  0.00  0.00    +0.000 HD
ENDROOT
BRANCH   4  13
ATOM     11  O4* UNL     1     136.019 121.472 135.942  0.00  0.00    +0.000 OA
ATOM     12  C3* UNL     1     138.139 122.276 135.466  0.00  0.00    +0.000 A 
ATOM     13  C1* UNL     1     136.232 121.416 134.559  0.00  0.00    +0.000 A 
ATOM     14  C2* UNL     1     137.522 121.896 134.261  0.00  0.00    +0.000 A 
ATOM     15  C4* UNL     1     137.185 121.999 136.511  0.00  0.00    +0.000 A 
BRANCH  12  16
ATOM     16  O3* UNL     1     139.487 122.205 135.678  0.00  0.00    +0.000 OA
ATOM     17  H3* UNL     1     139.702 121.853 136.561  0.00  0.00    +0.000 HD
ENDBRANCH  12  16
BRANCH  15  18
ATOM     18  C5* UNL     1     137.406 122.017 137.902  0.00  0.00    +0.000 C 
BRANCH  18  19
ATOM     19  O5* UNL     1     137.622 122.015 139.213  0.00  0.00    +0.000 OA
ATOM     20  H5* UNL     1     137.144 122.747 139.642  0.00  0.00    +0.000 HD
ENDBRANCH  18  19
ENDBRANCH  15  18
ENDBRANCH   4  13
TORSDOF 4
ENDMDL
MODEL 8
REMARK VINA RESULT:      -5.0      3.487      6.586
REMARK  Name = 3363_5FluorouracilDeoxyriboside.pdbqt.pdb
REMARK  4 active torsions:
REMARK  status: ('A' for Active; 'I' for Inactive)
REMARK    1  A    between atoms: N_4  and  C1*_13
REMARK    2  A    between atoms: C3*_12  and  O3*_16
REMARK    3  A    between atoms: C4*_15  and  C5*_18
REMARK    4  A    between atoms: C5*_18  and  O5*_19
REMARK                            x       y       z     vdW  Elec       q    Type
REMARK                         _______ _______ _______ _____ _____    ______ ____
ROOT
ATOM      1  F   UNL     1     148.631 125.524  94.758  0.00  0.00    +0.000 F 
ATOM      2  O   UNL     1     147.508 129.268  98.530  0.00  0.00    +0.000 OA
ATOM      3  O   UNL     1     148.763 128.299  94.224  0.00  0.00    +0.000 OA
ATOM      4  N   UNL     1     147.461 126.999  97.846  0.00  0.00    +0.000 N 
ATOM      5  N   UNL     1     148.045 128.732  96.368  0.00  0.00    +0.000 N 
ATOM      6  C   UNL     1     147.646 128.392  97.684  0.00  0.00    +0.000 C 
ATOM      7  C   UNL     1     147.679 126.220  96.766  0.00  0.00    +0.000 C 
ATOM      8  C   UNL     1     148.037 126.435  95.546  0.00  0.00    +0.000 C 
ATOM      9  C   UNL     1     148.317 127.884  95.286  0.00  0.00    +0.000 C 
ATOM     10  H   UNL     1     148.229 129.713  96.216  0.00  0.00    +0.000 HD
ENDROOT
BRANCH   4  13
ATOM     11  O4* UNL     1     145.915 125.649  99.127  0.00  0.00    +0.000 OA
ATOM     12  C3* UNL     1     146.996 125.674 101.176  0.00  0.00    +0.000 A 
ATOM     13  C1* UNL     1     147.087 126.408  99.019  0.00  0.00    +0.000 A 
ATOM     14  C2* UNL     1     147.755 126.422 100.259  0.00  0.00    +0.000 A 
ATOM     15  C4* UNL     1     145.848 125.191 100.448  0.00  0.00    +0.000 A 
BRANCH  12  16
ATOM     16  O3* UNL     1     147.544 124.971 102.213  0.00  0.00    +0.000 OA
ATOM     17  H3* UNL     1     146.873 124.469 102.711  0.00  0.00    +0.000 HD
ENDBRANCH  12  16
BRANCH  15  18
ATOM     18  C5* UNL     1     144.904 124.235 100.870  0.00  0.00    +0.000 C 
BRANCH  18  19
ATOM     19  O5* UNL     1     144.001 123.348 101.277  0.00  0.00    +0.000 OA
ATOM     20  H5* UNL     1     144.404 122.700 101.881  0.00  0.00    +0.000 HD
ENDBRANCH  18  19
ENDBRANCH  15  18
ENDBRANCH   4  13
TORSDOF 4
ENDMDL
MODEL 9
REMARK VINA RESULT:      -4.9      2.013      2.271
REMARK  Name = 3363_5FluorouracilDeoxyriboside.pdbqt.pdb
REMARK  4 active torsions:
REMARK  status: ('A' for Active; 'I' for Inactive)
REMARK    1  A    between atoms: N_4  and  C1*_13
REMARK    2  A    between atoms: C3*_12  and  O3*_16
REMARK    3  A    between atoms: C4*_15  and  C5*_18
REMARK    4  A    between atoms: C5*_18  and  O5*_19
REMARK                            x       y       z     vdW  Elec       q    Type
REMARK                         _______ _______ _______ _____ _____    ______ ____
ROOT
ATOM      1  F   UNL     1     141.322 128.773 100.927  0.00  0.00    +0.000 F 
ATOM      2  O   UNL     1     144.831 124.864 102.314  0.00  0.00    +0.000 OA
ATOM      3  O   UNL     1     140.939 127.130 103.198  0.00  0.00    +0.000 OA
ATOM      4  N   UNL     1     144.074 126.437 100.709  0.00  0.00    +0.000 N 
ATOM      5  N   UNL     1     142.852 125.966 102.662  0.00  0.00    +0.000 N 
ATOM      6  C   UNL     1     144.014 125.681 101.904  0.00  0.00    +0.000 C 
ATOM      7  C   UNL     1     143.055 127.287 100.467  0.00  0.00    +0.000 C 
ATOM      8  C   UNL     1     141.971 127.608 101.088  0.00  0.00    +0.000 C 
ATOM      9  C   UNL     1     141.841 126.901 102.403  0.00  0.00    +0.000 C 
ATOM     10  H   UNL     1     142.786 125.480 103.544  0.00  0.00    +0.000 HD
ENDROOT
BRANCH   4  13
ATOM     11  O4* UNL     1     146.291 127.069  99.976  0.00  0.00    +0.000 OA
ATOM     12  C3* UNL     1     146.413 125.832  98.020  0.00  0.00    +0.000 A 
ATOM     13  C1* UNL     1     145.096 126.359  99.806  0.00  0.00    +0.000 A 
ATOM     14  C2* UNL     1     145.165 125.597  98.623  0.00  0.00    +0.000 A 
ATOM     15  C4* UNL     1     147.110 126.753  98.885  0.00  0.00    +0.000 A 
BRANCH  12  16
ATOM     16  O3* UNL     1     147.075 124.901  97.270  0.00  0.00    +0.000 OA
ATOM     17  H3* UNL     1     147.652 124.334  97.813  0.00  0.00    +0.000 HD
ENDBRANCH  12  16
BRANCH  15  18
ATOM     18  C5* UNL     1     148.465 127.132  98.822  0.00  0.00    +0.000 C 
BRANCH  18  19
ATOM     19  O5* UNL     1     149.748 127.472  98.752  0.00  0.00    +0.000 OA
ATOM     20  H5* UNL     1     150.070 127.409  97.836  0.00  0.00    +0.000 HD
ENDBRANCH  18  19
ENDBRANCH  15  18
ENDBRANCH   4  13
TORSDOF 4
ENDMDL
