MODEL 1
REMARK VINA RESULT:      -4.2      0.000      0.000
REMARK  Name = 3385_5Fluorouracil.pdbqt.pdb
REMARK  0 active torsions:
REMARK  status: ('A' for Active; 'I' for Inactive)
REMARK                            x       y       z     vdW  Elec       q    Type
REMARK                         _______ _______ _______ _____ _____    ______ ____
ROOT
ATOM      1  F   UNL     1     147.223 128.129 101.548  0.00  0.00    +0.000 F 
ATOM      2  O   UNL     1     146.793 125.331 101.454  0.00  0.00    +0.000 OA
ATOM      3  O   UNL     1     143.414 125.717 104.572  0.00  0.00    +0.000 OA
ATOM      4  N   UNL     1     145.155 125.523 103.061  0.00  0.00    +0.000 N 
ATOM      5  N   UNL     1     144.665 127.574 104.032  0.00  0.00    +0.000 N 
ATOM      6  C   UNL     1     146.196 126.027 102.268  0.00  0.00    +0.000 C 
ATOM      7  C   UNL     1     144.332 126.230 103.948  0.00  0.00    +0.000 C 
ATOM      8  C   UNL     1     146.506 127.482 102.481  0.00  0.00    +0.000 C 
ATOM      9  C   UNL     1     145.688 128.046 103.304  0.00  0.00    +0.000 C 
ATOM     10  H   UNL     1     144.932 124.547 102.934  0.00  0.00    +0.000 HD
ATOM     11  H   UNL     1     144.126 128.174 104.642  0.00  0.00    +0.000 HD
ENDROOT
TORSDOF 0
ENDMDL
MODEL 2
REMARK VINA RESULT:      -4.2     31.325     32.204
REMARK  Name = 3385_5Fluorouracil.pdbqt.pdb
REMARK  0 active torsions:
REMARK  status: ('A' for Active; 'I' for Inactive)
REMARK                            x       y       z     vdW  Elec       q    Type
REMARK                         _______ _______ _______ _____ _____    ______ ____
ROOT
ATOM      1  F   UNL     1     136.419 123.249 134.661  0.00  0.00    +0.000 F 
ATOM      2  O   UNL     1     137.783 123.861 132.256  0.00  0.00    +0.000 OA
ATOM      3  O   UNL     1     141.718 122.251 134.045  0.00  0.00    +0.000 OA
ATOM      4  N   UNL     1     139.757 123.120 133.180  0.00  0.00    +0.000 N 
ATOM      5  N   UNL     1     139.847 122.389 135.381  0.00  0.00    +0.000 N 
ATOM      6  C   UNL     1     138.398 123.463 133.238  0.00  0.00    +0.000 C 
ATOM      7  C   UNL     1     140.545 122.561 134.195  0.00  0.00    +0.000 C 
ATOM      8  C   UNL     1     137.759 123.287 134.586  0.00  0.00    +0.000 C 
ATOM      9  C   UNL     1     138.560 122.756 135.448  0.00  0.00    +0.000 C 
ATOM     10  H   UNL     1     140.206 123.233 132.283  0.00  0.00    +0.000 HD
ATOM     11  H   UNL     1     140.327 121.986 136.176  0.00  0.00    +0.000 HD
ENDROOT
TORSDOF 0
ENDMDL
MODEL 3
REMARK VINA RESULT:      -4.1      2.136      3.049
REMARK  Name = 3385_5Fluorouracil.pdbqt.pdb
REMARK  0 active torsions:
REMARK  status: ('A' for Active; 'I' for Inactive)
REMARK                            x       y       z     vdW  Elec       q    Type
REMARK                         _______ _______ _______ _____ _____    ______ ____
ROOT
ATOM      1  F   UNL     1     145.060 128.553 103.791  0.00  0.00    +0.000 F 
ATOM      2  O   UNL     1     142.453 127.636 103.172  0.00  0.00    +0.000 OA
ATOM      3  O   UNL     1     144.191 123.658 101.611  0.00  0.00    +0.000 OA
ATOM      4  N   UNL     1     143.333 125.682 102.331  0.00  0.00    +0.000 N 
ATOM      5  N   UNL     1     145.628 125.344 102.243  0.00  0.00    +0.000 N 
ATOM      6  C   UNL     1     143.437 126.981 102.851  0.00  0.00    +0.000 C 
ATOM      7  C   UNL     1     144.374 124.795 102.022  0.00  0.00    +0.000 C 
ATOM      8  C   UNL     1     144.842 127.493 102.996  0.00  0.00    +0.000 C 
ATOM      9  C   UNL     1     145.727 126.601 102.700  0.00  0.00    +0.000 C 
ATOM     10  H   UNL     1     142.398 125.320 102.224  0.00  0.00    +0.000 HD
ATOM     11  H   UNL     1     146.448 124.781 102.056  0.00  0.00    +0.000 HD
ENDROOT
TORSDOF 0
ENDMDL
MODEL 4
REMARK VINA RESULT:      -4.1     30.547     31.299
REMARK  Name = 3385_5Fluorouracil.pdbqt.pdb
REMARK  0 active torsions:
REMARK  status: ('A' for Active; 'I' for Inactive)
REMARK                            x       y       z     vdW  Elec       q    Type
REMARK                         _______ _______ _______ _____ _____    ______ ____
ROOT
ATOM      1  F   UNL     1     140.039 124.066 134.931  0.00  0.00    +0.000 F 
ATOM      2  O   UNL     1     140.187 124.231 132.107  0.00  0.00    +0.000 OA
ATOM      3  O   UNL     1     136.105 122.112 131.741  0.00  0.00    +0.000 OA
ATOM      4  N   UNL     1     138.183 123.111 131.931  0.00  0.00    +0.000 N 
ATOM      5  N   UNL     1     137.078 122.331 133.818  0.00  0.00    +0.000 N 
ATOM      6  C   UNL     1     139.279 123.612 132.649  0.00  0.00    +0.000 C 
ATOM      7  C   UNL     1     137.039 122.481 132.439  0.00  0.00    +0.000 C 
ATOM      8  C   UNL     1     139.241 123.344 134.127  0.00  0.00    +0.000 C 
ATOM      9  C   UNL     1     138.146 122.772 134.499  0.00  0.00    +0.000 C 
ATOM     10  H   UNL     1     138.189 123.279 130.936  0.00  0.00    +0.000 HD
ATOM     11  H   UNL     1     136.295 121.891 134.284  0.00  0.00    +0.000 HD
ENDROOT
TORSDOF 0
ENDMDL
MODEL 5
REMARK VINA RESULT:      -4.0      2.291      3.177
REMARK  Name = 3385_5Fluorouracil.pdbqt.pdb
REMARK  0 active torsions:
REMARK  status: ('A' for Active; 'I' for Inactive)
REMARK                            x       y       z     vdW  Elec       q    Type
REMARK                         _______ _______ _______ _____ _____    ______ ____
ROOT
ATOM      1  F   UNL     1     142.818 127.980 103.093  0.00  0.00    +0.000 F 
ATOM      2  O   UNL     1     143.444 125.634 104.552  0.00  0.00    +0.000 OA
ATOM      3  O   UNL     1     147.924 126.726 104.441  0.00  0.00    +0.000 OA
ATOM      4  N   UNL     1     145.684 126.150 104.432  0.00  0.00    +0.000 N 
ATOM      5  N   UNL     1     146.421 128.018 103.267  0.00  0.00    +0.000 N 
ATOM      6  C   UNL     1     144.335 126.346 104.104  0.00  0.00    +0.000 C 
ATOM      7  C   UNL     1     146.779 126.948 104.074  0.00  0.00    +0.000 C 
ATOM      8  C   UNL     1     144.070 127.502 103.182  0.00  0.00    +0.000 C 
ATOM      9  C   UNL     1     145.136 128.181 102.920  0.00  0.00    +0.000 C 
ATOM     10  H   UNL     1     145.884 125.378 105.050  0.00  0.00    +0.000 HD
ATOM     11  H   UNL     1     147.140 128.659 102.958  0.00  0.00    +0.000 HD
ENDROOT
TORSDOF 0
ENDMDL
MODEL 6
REMARK VINA RESULT:      -4.0      4.868      5.559
REMARK  Name = 3385_5Fluorouracil.pdbqt.pdb
REMARK  0 active torsions:
REMARK  status: ('A' for Active; 'I' for Inactive)
REMARK                            x       y       z     vdW  Elec       q    Type
REMARK                         _______ _______ _______ _____ _____    ______ ____
ROOT
ATOM      1  F   UNL     1     140.007 126.051 101.068  0.00  0.00    +0.000 F 
ATOM      2  O   UNL     1     140.106 123.672  99.533  0.00  0.00    +0.000 OA
ATOM      3  O   UNL     1     144.594 123.207 100.492  0.00  0.00    +0.000 OA
ATOM      4  N   UNL     1     142.361 123.485  99.959  0.00  0.00    +0.000 N 
ATOM      5  N   UNL     1     143.486 125.105 101.182  0.00  0.00    +0.000 N 
ATOM      6  C   UNL     1     141.130 124.156 100.000  0.00  0.00    +0.000 C 
ATOM      7  C   UNL     1     143.574 123.878 100.540  0.00  0.00    +0.000 C 
ATOM      8  C   UNL     1     141.166 125.500 100.672  0.00  0.00    +0.000 C 
ATOM      9  C   UNL     1     142.320 125.766 101.184  0.00  0.00    +0.000 C 
ATOM     10  H   UNL     1     142.359 122.581  99.510  0.00  0.00    +0.000 HD
ATOM     11  H   UNL     1     144.309 125.477 101.640  0.00  0.00    +0.000 HD
ENDROOT
TORSDOF 0
ENDMDL
MODEL 7
REMARK VINA RESULT:      -4.0     31.732     32.478
REMARK  Name = 3385_5Fluorouracil.pdbqt.pdb
REMARK  0 active torsions:
REMARK  status: ('A' for Active; 'I' for Inactive)
REMARK                            x       y       z     vdW  Elec       q    Type
REMARK                         _______ _______ _______ _____ _____    ______ ____
ROOT
ATOM      1  F   UNL     1     137.097 122.877 135.938  0.00  0.00    +0.000 F 
ATOM      2  O   UNL     1     136.403 124.639 133.831  0.00  0.00    +0.000 OA
ATOM      3  O   UNL     1     134.796 121.093 131.357  0.00  0.00    +0.000 OA
ATOM      4  N   UNL     1     135.667 122.856 132.575  0.00  0.00    +0.000 N 
ATOM      5  N   UNL     1     135.853 120.680 133.361  0.00  0.00    +0.000 N 
ATOM      6  C   UNL     1     136.295 123.426 133.692  0.00  0.00    +0.000 C 
ATOM      7  C   UNL     1     135.390 121.502 132.344  0.00  0.00    +0.000 C 
ATOM      8  C   UNL     1     136.806 122.439 134.703  0.00  0.00    +0.000 C 
ATOM      9  C   UNL     1     136.491 121.222 134.408  0.00  0.00    +0.000 C 
ATOM     10  H   UNL     1     135.318 123.502 131.883  0.00  0.00    +0.000 HD
ATOM     11  H   UNL     1     135.698 119.682 133.293  0.00  0.00    +0.000 HD
ENDROOT
TORSDOF 0
ENDMDL
MODEL 8
REMARK VINA RESULT:      -4.0      5.154      5.770
REMARK  Name = 3385_5Fluorouracil.pdbqt.pdb
REMARK  0 active torsions:
REMARK  status: ('A' for Active; 'I' for Inactive)
REMARK                            x       y       z     vdW  Elec       q    Type
REMARK                         _______ _______ _______ _____ _____    ______ ____
ROOT
ATOM      1  F   UNL     1     145.793 122.724  99.341  0.00  0.00    +0.000 F 
ATOM      2  O   UNL     1     144.546 124.241 101.382  0.00  0.00    +0.000 OA
ATOM      3  O   UNL     1     140.410 123.402  99.520  0.00  0.00    +0.000 OA
ATOM      4  N   UNL     1     142.493 123.876 100.408  0.00  0.00    +0.000 N 
ATOM      5  N   UNL     1     142.306 122.697  98.417  0.00  0.00    +0.000 N 
ATOM      6  C   UNL     1     143.893 123.807 100.441  0.00  0.00    +0.000 C 
ATOM      7  C   UNL     1     141.629 123.331  99.448  0.00  0.00    +0.000 C 
ATOM      8  C   UNL     1     144.522 123.147  99.246  0.00  0.00    +0.000 C 
ATOM      9  C   UNL     1     143.646 122.668  98.428  0.00  0.00    +0.000 C 
ATOM     10  H   UNL     1     142.050 124.317 101.200  0.00  0.00    +0.000 HD
ATOM     11  H   UNL     1     141.771 122.265  97.674  0.00  0.00    +0.000 HD
ENDROOT
TORSDOF 0
ENDMDL
MODEL 9
REMARK VINA RESULT:      -3.9      2.593      3.645
REMARK  Name = 3385_5Fluorouracil.pdbqt.pdb
REMARK  0 active torsions:
REMARK  status: ('A' for Active; 'I' for Inactive)
REMARK                            x       y       z     vdW  Elec       q    Type
REMARK                         _______ _______ _______ _____ _____    ______ ____
ROOT
ATOM      1  F   UNL     1     142.460 125.288 101.288  0.00  0.00    +0.000 F 
ATOM      2  O   UNL     1     142.099 127.356 103.190  0.00  0.00    +0.000 OA
ATOM      3  O   UNL     1     146.615 127.319 104.129  0.00  0.00    +0.000 OA
ATOM      4  N   UNL     1     144.342 127.283 103.703  0.00  0.00    +0.000 N 
ATOM      5  N   UNL     1     145.749 125.733 102.701  0.00  0.00    +0.000 N 
ATOM      6  C   UNL     1     143.188 126.810 103.061  0.00  0.00    +0.000 C 
ATOM      7  C   UNL     1     145.656 126.817 103.561  0.00  0.00    +0.000 C 
ATOM      8  C   UNL     1     143.398 125.598 102.197  0.00  0.00    +0.000 C 
ATOM      9  C   UNL     1     144.639 125.254 102.121  0.00  0.00    +0.000 C 
ATOM     10  H   UNL     1     144.223 128.096 104.290  0.00  0.00    +0.000 HD
ATOM     11  H   UNL     1     146.658 125.324 102.527  0.00  0.00    +0.000 HD
ENDROOT
TORSDOF 0
ENDMDL
