MODEL 1
REMARK VINA RESULT:      -6.8      0.000      0.000
REMARK  Name = 342374_SipholenolA.pdbqt.pdb
REMARK  5 active torsions:
REMARK  status: ('A' for Active; 'I' for Inactive)
REMARK    1  A    between atoms: C_3  and  C_20
REMARK    2  A    between atoms: C_4  and  O_16
REMARK    3  A    between atoms: C_13  and  O_18
REMARK    4  A    between atoms: C_21  and  C_25
REMARK    5  A    between atoms: C_26  and  O_36
REMARK                            x       y       z     vdW  Elec       q    Type
REMARK                         _______ _______ _______ _____ _____    ______ ____
ROOT
ATOM      1  O   UNL     1     143.878 126.747  91.365  0.00  0.00    +0.000 OA
ATOM      2  C   UNL     1     145.324 126.207  93.472  0.00  0.00    +0.000 C 
ATOM      3  C   UNL     1     146.614 126.574  94.211  0.00  0.00    +0.000 C 
ATOM      4  C   UNL     1     147.899 126.789  93.429  0.00  0.00    +0.000 C 
ATOM      5  C   UNL     1     145.104 126.850  92.032  0.00  0.00    +0.000 C 
ATOM      6  C   UNL     1     144.155 126.722  94.200  0.00  0.00    +0.000 C 
ATOM      7  C   UNL     1     147.565 127.055  92.044  0.00  0.00    +0.000 C 
ATOM      8  C   UNL     1     146.275 127.119  91.297  0.00  0.00    +0.000 C 
ATOM      9  C   UNL     1     145.235 124.664  93.322  0.00  0.00    +0.000 C 
ATOM     10  C   UNL     1     142.823 127.394  93.969  0.00  0.00    +0.000 C 
ATOM     11  C   UNL     1     142.919 127.850  91.462  0.00  0.00    +0.000 C 
ATOM     12  C   UNL     1     148.729 127.930  94.036  0.00  0.00    +0.000 C 
ATOM     13  C   UNL     1     142.151 127.859  92.818  0.00  0.00    +0.000 C 
ATOM     14  C   UNL     1     143.604 129.236  91.275  0.00  0.00    +0.000 C 
ATOM     15  C   UNL     1     141.862 127.637  90.338  0.00  0.00    +0.000 C 
ENDROOT
BRANCH   4  16
ATOM     16  O   UNL     1     148.707 125.643  93.515  0.00  0.00    +0.000 OA
ATOM     17  H   UNL     1     149.008 125.553  92.593  0.00  0.00    +0.000 HD
ENDBRANCH   4  16
BRANCH  13  18
ATOM     18  O   UNL     1     140.834 128.291  92.935  0.00  0.00    +0.000 OA
ATOM     19  H   UNL     1     140.213 127.535  92.992  0.00  0.00    +0.000 HD
ENDBRANCH  13  18
BRANCH   3  20
ATOM     20  C   UNL     1     146.663 126.483  95.648  0.00  0.00    +0.000 C 
ATOM     21  C   UNL     1     146.699 126.393  97.176  0.00  0.00    +0.000 C 
BRANCH  21  25
ATOM     22  C   UNL     1     144.571 125.737  99.998  0.00  0.00    +0.000 C 
ATOM     23  C   UNL     1     145.918 125.253  99.395  0.00  0.00    +0.000 C 
ATOM     24  C   UNL     1     144.414 126.861 100.981  0.00  0.00    +0.000 C 
ATOM     25  C   UNL     1     146.725 126.313  98.609  0.00  0.00    +0.000 C 
ATOM     26  C   UNL     1     143.067 126.844 101.694  0.00  0.00    +0.000 C 
ATOM     27  C   UNL     1     143.350 125.001 100.058  0.00  0.00    +0.000 C 
ATOM     28  C   UNL     1     142.467 125.667 101.077  0.00  0.00    +0.000 C 
ATOM     29  C   UNL     1     145.477 127.776 101.084  0.00  0.00    +0.000 C 
ATOM     30  C   UNL     1     147.420 127.376  99.336  0.00  0.00    +0.000 C 
ATOM     31  C   UNL     1     145.604 124.051  98.427  0.00  0.00    +0.000 C 
ATOM     32  C   UNL     1     146.792 124.668 100.557  0.00  0.00    +0.000 C 
ATOM     33  C   UNL     1     146.767 127.910 100.320  0.00  0.00    +0.000 C 
ATOM     34  C   UNL     1     142.296 128.143 101.510  0.00  0.00    +0.000 C 
ATOM     35  C   UNL     1     148.574 128.163  98.773  0.00  0.00    +0.000 C 
BRANCH  26  36
ATOM     36  O   UNL     1     143.248 126.657 103.073  0.00  0.00    +0.000 OA
ATOM     37  H   UNL     1     143.080 125.701 103.153  0.00  0.00    +0.000 HD
ENDBRANCH  26  36
ENDBRANCH  21  25
ENDBRANCH   3  20
TORSDOF 5
ENDMDL
MODEL 2
REMARK VINA RESULT:      -6.6     18.407     22.054
REMARK  Name = 342374_SipholenolA.pdbqt.pdb
REMARK  5 active torsions:
REMARK  status: ('A' for Active; 'I' for Inactive)
REMARK    1  A    between atoms: C_3  and  C_20
REMARK    2  A    between atoms: C_4  and  O_16
REMARK    3  A    between atoms: C_13  and  O_18
REMARK    4  A    between atoms: C_21  and  C_25
REMARK    5  A    between atoms: C_26  and  O_36
REMARK                            x       y       z     vdW  Elec       q    Type
REMARK                         _______ _______ _______ _____ _____    ______ ____
ROOT
ATOM      1  O   UNL     1     154.916 118.527 113.295  0.00  0.00    +0.000 OA
ATOM      2  C   UNL     1     154.637 120.836 114.483  0.00  0.00    +0.000 C 
ATOM      3  C   UNL     1     154.917 121.599 115.780  0.00  0.00    +0.000 C 
ATOM      4  C   UNL     1     154.684 120.923 117.120  0.00  0.00    +0.000 C 
ATOM      5  C   UNL     1     154.940 119.273 114.479  0.00  0.00    +0.000 C 
ATOM      6  C   UNL     1     155.529 121.306 113.411  0.00  0.00    +0.000 C 
ATOM      7  C   UNL     1     154.665 119.487 116.923  0.00  0.00    +0.000 C 
ATOM      8  C   UNL     1     154.791 118.619 115.717  0.00  0.00    +0.000 C 
ATOM      9  C   UNL     1     153.150 121.032 114.077  0.00  0.00    +0.000 C 
ATOM     10  C   UNL     1     156.367 120.795 112.266  0.00  0.00    +0.000 C 
ATOM     11  C   UNL     1     156.173 118.273 112.586  0.00  0.00    +0.000 C 
ATOM     12  C   UNL     1     155.757 121.335 118.140  0.00  0.00    +0.000 C 
ATOM     13  C   UNL     1     156.658 119.506 111.768  0.00  0.00    +0.000 C 
ATOM     14  C   UNL     1     157.313 117.846 113.557  0.00  0.00    +0.000 C 
ATOM     15  C   UNL     1     155.900 117.126 111.569  0.00  0.00    +0.000 C 
ENDROOT
BRANCH   4  16
ATOM     16  O   UNL     1     153.459 121.348 117.663  0.00  0.00    +0.000 OA
ATOM     17  H   UNL     1     153.701 122.224 118.015  0.00  0.00    +0.000 HD
ENDBRANCH   4  16
BRANCH  13  18
ATOM     18  O   UNL     1     157.352 119.388 110.568  0.00  0.00    +0.000 OA
ATOM     19  H   UNL     1     157.141 118.544 110.115  0.00  0.00    +0.000 HD
ENDBRANCH  13  18
BRANCH   3  20
ATOM     20  C   UNL     1     155.170 123.016 115.733  0.00  0.00    +0.000 C 
ATOM     21  C   UNL     1     155.448 124.521 115.668  0.00  0.00    +0.000 C 
BRANCH  21  25
ATOM     22  C   UNL     1     154.341 127.516 114.017  0.00  0.00    +0.000 C 
ATOM     23  C   UNL     1     154.585 126.979 115.454  0.00  0.00    +0.000 C 
ATOM     24  C   UNL     1     155.362 128.216 113.168  0.00  0.00    +0.000 C 
ATOM     25  C   UNL     1     155.713 125.930 115.600  0.00  0.00    +0.000 C 
ATOM     26  C   UNL     1     154.744 128.977 112.001  0.00  0.00    +0.000 C 
ATOM     27  C   UNL     1     153.079 127.804 113.417  0.00  0.00    +0.000 C 
ATOM     28  C   UNL     1     153.333 128.681 112.221  0.00  0.00    +0.000 C 
ATOM     29  C   UNL     1     156.713 128.052 113.522  0.00  0.00    +0.000 C 
ATOM     30  C   UNL     1     157.110 126.355 115.511  0.00  0.00    +0.000 C 
ATOM     31  C   UNL     1     153.239 126.334 115.957  0.00  0.00    +0.000 C 
ATOM     32  C   UNL     1     154.867 128.202 116.392  0.00  0.00    +0.000 C 
ATOM     33  C   UNL     1     157.381 127.217 114.582  0.00  0.00    +0.000 C 
ATOM     34  C   UNL     1     155.302 128.532 110.656  0.00  0.00    +0.000 C 
ATOM     35  C   UNL     1     158.264 125.570 116.075  0.00  0.00    +0.000 C 
BRANCH  26  36
ATOM     36  O   UNL     1     154.998 130.352 112.124  0.00  0.00    +0.000 OA
ATOM     37  H   UNL     1     154.099 130.714 112.038  0.00  0.00    +0.000 HD
ENDBRANCH  26  36
ENDBRANCH  21  25
ENDBRANCH   3  20
TORSDOF 5
ENDMDL
MODEL 3
REMARK VINA RESULT:      -6.5     14.586     17.871
REMARK  Name = 342374_SipholenolA.pdbqt.pdb
REMARK  5 active torsions:
REMARK  status: ('A' for Active; 'I' for Inactive)
REMARK    1  A    between atoms: C_3  and  C_20
REMARK    2  A    between atoms: C_4  and  O_16
REMARK    3  A    between atoms: C_13  and  O_18
REMARK    4  A    between atoms: C_21  and  C_25
REMARK    5  A    between atoms: C_26  and  O_36
REMARK                            x       y       z     vdW  Elec       q    Type
REMARK                         _______ _______ _______ _____ _____    ______ ____
ROOT
ATOM      1  O   UNL     1     145.065 113.831 105.764  0.00  0.00    +0.000 OA
ATOM      2  C   UNL     1     142.702 113.232 104.828  0.00  0.00    +0.000 C 
ATOM      3  C   UNL     1     141.532 112.253 104.963  0.00  0.00    +0.000 C 
ATOM      4  C   UNL     1     141.805 110.767 105.123  0.00  0.00    +0.000 C 
ATOM      5  C   UNL     1     144.023 112.903 105.654  0.00  0.00    +0.000 C 
ATOM      6  C   UNL     1     142.335 114.545 105.382  0.00  0.00    +0.000 C 
ATOM      7  C   UNL     1     143.168 110.588 105.583  0.00  0.00    +0.000 C 
ATOM      8  C   UNL     1     144.281 111.536 105.875  0.00  0.00    +0.000 C 
ATOM      9  C   UNL     1     143.098 113.364 103.332  0.00  0.00    +0.000 C 
ATOM     10  C   UNL     1     142.893 115.670 106.219  0.00  0.00    +0.000 C 
ATOM     11  C   UNL     1     145.131 114.691 106.948  0.00  0.00    +0.000 C 
ATOM     12  C   UNL     1     140.797 110.124 106.088  0.00  0.00    +0.000 C 
ATOM     13  C   UNL     1     144.120 115.875 106.885  0.00  0.00    +0.000 C 
ATOM     14  C   UNL     1     144.876 113.896 108.262  0.00  0.00    +0.000 C 
ATOM     15  C   UNL     1     146.560 115.310 106.985  0.00  0.00    +0.000 C 
ENDROOT
BRANCH   4  16
ATOM     16  O   UNL     1     141.625 110.113 103.893  0.00  0.00    +0.000 OA
ATOM     17  H   UNL     1     141.212 110.817 103.361  0.00  0.00    +0.000 HD
ENDBRANCH   4  16
BRANCH  13  18
ATOM     18  O   UNL     1     144.384 117.121 107.444  0.00  0.00    +0.000 OA
ATOM     19  H   UNL     1     144.010 117.844 106.897  0.00  0.00    +0.000 HD
ENDBRANCH  13  18
BRANCH   3  20
ATOM     20  C   UNL     1     140.190 112.706 104.701  0.00  0.00    +0.000 C 
ATOM     21  C   UNL     1     138.762 113.193 104.438  0.00  0.00    +0.000 C 
BRANCH  21  25
ATOM     22  C   UNL     1     136.276 113.400 101.850  0.00  0.00    +0.000 C 
ATOM     23  C   UNL     1     136.429 112.874 103.304  0.00  0.00    +0.000 C 
ATOM     24  C   UNL     1     135.834 114.783 101.470  0.00  0.00    +0.000 C 
ATOM     25  C   UNL     1     137.423 113.650 104.201  0.00  0.00    +0.000 C 
ATOM     26  C   UNL     1     135.390 114.887 100.016  0.00  0.00    +0.000 C 
ATOM     27  C   UNL     1     136.132 112.612 100.669  0.00  0.00    +0.000 C 
ATOM     28  C   UNL     1     135.597 113.509  99.587  0.00  0.00    +0.000 C 
ATOM     29  C   UNL     1     135.923 115.780 102.458  0.00  0.00    +0.000 C 
ATOM     30  C   UNL     1     137.057 114.974 104.706  0.00  0.00    +0.000 C 
ATOM     31  C   UNL     1     136.902 111.374 103.222  0.00  0.00    +0.000 C 
ATOM     32  C   UNL     1     135.010 112.856 103.969  0.00  0.00    +0.000 C 
ATOM     33  C   UNL     1     136.467 115.760 103.861  0.00  0.00    +0.000 C 
ATOM     34  C   UNL     1     136.174 115.937  99.241  0.00  0.00    +0.000 C 
ATOM     35  C   UNL     1     137.688 115.616 105.913  0.00  0.00    +0.000 C 
BRANCH  26  36
ATOM     36  O   UNL     1     134.033 115.241  99.943  0.00  0.00    +0.000 OA
ATOM     37  H   UNL     1     133.943 115.432  98.993  0.00  0.00    +0.000 HD
ENDBRANCH  26  36
ENDBRANCH  21  25
ENDBRANCH   3  20
TORSDOF 5
ENDMDL
MODEL 4
REMARK VINA RESULT:      -6.5     15.097     18.315
REMARK  Name = 342374_SipholenolA.pdbqt.pdb
REMARK  5 active torsions:
REMARK  status: ('A' for Active; 'I' for Inactive)
REMARK    1  A    between atoms: C_3  and  C_20
REMARK    2  A    between atoms: C_4  and  O_16
REMARK    3  A    between atoms: C_13  and  O_18
REMARK    4  A    between atoms: C_21  and  C_25
REMARK    5  A    between atoms: C_26  and  O_36
REMARK                            x       y       z     vdW  Elec       q    Type
REMARK                         _______ _______ _______ _____ _____    ______ ____
ROOT
ATOM      1  O   UNL     1     148.104 114.408 105.786  0.00  0.00    +0.000 OA
ATOM      2  C   UNL     1     145.981 115.322 107.002  0.00  0.00    +0.000 C 
ATOM      3  C   UNL     1     144.462 115.167 107.119  0.00  0.00    +0.000 C 
ATOM      4  C   UNL     1     143.622 114.988 105.866  0.00  0.00    +0.000 C 
ATOM      5  C   UNL     1     146.709 114.499 105.849  0.00  0.00    +0.000 C 
ATOM      6  C   UNL     1     146.642 114.784 108.202  0.00  0.00    +0.000 C 
ATOM      7  C   UNL     1     144.479 114.534 104.788  0.00  0.00    +0.000 C 
ATOM      8  C   UNL     1     145.943 114.262 104.692  0.00  0.00    +0.000 C 
ATOM      9  C   UNL     1     146.336 116.822 106.812  0.00  0.00    +0.000 C 
ATOM     10  C   UNL     1     147.838 113.965 108.622  0.00  0.00    +0.000 C 
ATOM     11  C   UNL     1     148.768 113.236 106.363  0.00  0.00    +0.000 C 
ATOM     12  C   UNL     1     142.465 114.009 106.113  0.00  0.00    +0.000 C 
ATOM     13  C   UNL     1     148.869 113.310 107.916  0.00  0.00    +0.000 C 
ATOM     14  C   UNL     1     148.048 111.910 105.979  0.00  0.00    +0.000 C 
ATOM     15  C   UNL     1     150.223 113.216 105.809  0.00  0.00    +0.000 C 
ENDROOT
BRANCH   4  16
ATOM     16  O   UNL     1     143.020 116.209 105.516  0.00  0.00    +0.000 OA
ATOM     17  H   UNL     1     143.263 116.766 106.277  0.00  0.00    +0.000 HD
ENDBRANCH   4  16
BRANCH  13  18
ATOM     18  O   UNL     1     149.936 112.769 108.627  0.00  0.00    +0.000 OA
ATOM     19  H   UNL     1     149.735 111.861 108.936  0.00  0.00    +0.000 HD
ENDBRANCH  13  18
BRANCH   3  20
ATOM     20  C   UNL     1     143.814 115.427 108.379  0.00  0.00    +0.000 C 
ATOM     21  C   UNL     1     143.120 115.688 109.719  0.00  0.00    +0.000 C 
BRANCH  21  25
ATOM     22  C   UNL     1     140.592 114.318 111.876  0.00  0.00    +0.000 C 
ATOM     23  C   UNL     1     142.076 114.773 111.933  0.00  0.00    +0.000 C 
ATOM     24  C   UNL     1     139.404 115.197 112.139  0.00  0.00    +0.000 C 
ATOM     25  C   UNL     1     142.466 115.923 110.974  0.00  0.00    +0.000 C 
ATOM     26  C   UNL     1     138.128 114.407 112.410  0.00  0.00    +0.000 C 
ATOM     27  C   UNL     1     140.107 112.979 111.963  0.00  0.00    +0.000 C 
ATOM     28  C   UNL     1     138.640 113.047 112.289  0.00  0.00    +0.000 C 
ATOM     29  C   UNL     1     139.604 116.587 112.065  0.00  0.00    +0.000 C 
ATOM     30  C   UNL     1     142.025 117.287 111.266  0.00  0.00    +0.000 C 
ATOM     31  C   UNL     1     142.973 113.522 111.599  0.00  0.00    +0.000 C 
ATOM     32  C   UNL     1     142.407 115.173 113.412  0.00  0.00    +0.000 C 
ATOM     33  C   UNL     1     140.804 117.411 111.682  0.00  0.00    +0.000 C 
ATOM     34  C   UNL     1     137.005 114.770 111.449  0.00  0.00    +0.000 C 
ATOM     35  C   UNL     1     142.688 118.521 110.712  0.00  0.00    +0.000 C 
BRANCH  26  36
ATOM     36  O   UNL     1     137.664 114.660 113.710  0.00  0.00    +0.000 OA
ATOM     37  H   UNL     1     137.545 115.626 113.679  0.00  0.00    +0.000 HD
ENDBRANCH  26  36
ENDBRANCH  21  25
ENDBRANCH   3  20
TORSDOF 5
ENDMDL
MODEL 5
REMARK VINA RESULT:      -6.3     15.263     18.999
REMARK  Name = 342374_SipholenolA.pdbqt.pdb
REMARK  5 active torsions:
REMARK  status: ('A' for Active; 'I' for Inactive)
REMARK    1  A    between atoms: C_3  and  C_20
REMARK    2  A    between atoms: C_4  and  O_16
REMARK    3  A    between atoms: C_13  and  O_18
REMARK    4  A    between atoms: C_21  and  C_25
REMARK    5  A    between atoms: C_26  and  O_36
REMARK                            x       y       z     vdW  Elec       q    Type
REMARK                         _______ _______ _______ _____ _____    ______ ____
ROOT
ATOM      1  O   UNL     1     145.709 114.337 105.079  0.00  0.00    +0.000 OA
ATOM      2  C   UNL     1     143.459 114.168 106.394  0.00  0.00    +0.000 C 
ATOM      3  C   UNL     1     142.584 113.228 107.228  0.00  0.00    +0.000 C 
ATOM      4  C   UNL     1     142.395 111.785 106.791  0.00  0.00    +0.000 C 
ATOM      5  C   UNL     1     144.738 113.534 105.688  0.00  0.00    +0.000 C 
ATOM      6  C   UNL     1     144.081 115.185 107.257  0.00  0.00    +0.000 C 
ATOM      7  C   UNL     1     143.467 111.426 105.884  0.00  0.00    +0.000 C 
ATOM      8  C   UNL     1     144.623 112.180 105.318  0.00  0.00    +0.000 C 
ATOM      9  C   UNL     1     142.594 114.842 105.295  0.00  0.00    +0.000 C 
ATOM     10  C   UNL     1     145.388 115.907 107.475  0.00  0.00    +0.000 C 
ATOM     11  C   UNL     1     146.914 114.693 105.833  0.00  0.00    +0.000 C 
ATOM     12  C   UNL     1     142.347 110.844 108.004  0.00  0.00    +0.000 C 
ATOM     13  C   UNL     1     146.659 115.830 106.867  0.00  0.00    +0.000 C 
ATOM     14  C   UNL     1     147.513 113.468 106.586  0.00  0.00    +0.000 C 
ATOM     15  C   UNL     1     147.954 115.231 104.806  0.00  0.00    +0.000 C 
ENDROOT
BRANCH   4  16
ATOM     16  O   UNL     1     141.154 111.641 106.147  0.00  0.00    +0.000 OA
ATOM     17  H   UNL     1     141.435 111.446 105.235  0.00  0.00    +0.000 HD
ENDBRANCH   4  16
BRANCH  13  18
ATOM     18  O   UNL     1     147.625 116.774 107.201  0.00  0.00    +0.000 OA
ATOM     19  H   UNL     1     148.191 116.995 106.432  0.00  0.00    +0.000 HD
ENDBRANCH  13  18
BRANCH   3  20
ATOM     20  C   UNL     1     141.760 113.767 108.279  0.00  0.00    +0.000 C 
ATOM     21  C   UNL     1     140.875 114.325 109.398  0.00  0.00    +0.000 C 
BRANCH  21  25
ATOM     22  C   UNL     1     140.811 114.819 112.958  0.00  0.00    +0.000 C 
ATOM     23  C   UNL     1     140.613 115.630 111.647  0.00  0.00    +0.000 C 
ATOM     24  C   UNL     1     139.726 114.098 113.703  0.00  0.00    +0.000 C 
ATOM     25  C   UNL     1     140.041 114.841 110.446  0.00  0.00    +0.000 C 
ATOM     26  C   UNL     1     140.119 113.745 115.133  0.00  0.00    +0.000 C 
ATOM     27  C   UNL     1     141.898 114.931 113.875  0.00  0.00    +0.000 C 
ATOM     28  C   UNL     1     141.470 114.295 115.168  0.00  0.00    +0.000 C 
ATOM     29  C   UNL     1     138.542 113.814 112.999  0.00  0.00    +0.000 C 
ATOM     30  C   UNL     1     138.627 114.463 110.437  0.00  0.00    +0.000 C 
ATOM     31  C   UNL     1     142.015 116.217 111.233  0.00  0.00    +0.000 C 
ATOM     32  C   UNL     1     139.696 116.859 111.967  0.00  0.00    +0.000 C 
ATOM     33  C   UNL     1     138.151 114.027 111.561  0.00  0.00    +0.000 C 
ATOM     34  C   UNL     1     140.014 112.253 115.414  0.00  0.00    +0.000 C 
ATOM     35  C   UNL     1     137.856 114.125 109.189  0.00  0.00    +0.000 C 
BRANCH  26  36
ATOM     36  O   UNL     1     139.281 114.403 116.047  0.00  0.00    +0.000 OA
ATOM     37  H   UNL     1     138.581 113.738 116.167  0.00  0.00    +0.000 HD
ENDBRANCH  26  36
ENDBRANCH  21  25
ENDBRANCH   3  20
TORSDOF 5
ENDMDL
MODEL 6
REMARK VINA RESULT:      -6.2      3.386      5.618
REMARK  Name = 342374_SipholenolA.pdbqt.pdb
REMARK  5 active torsions:
REMARK  status: ('A' for Active; 'I' for Inactive)
REMARK    1  A    between atoms: C_3  and  C_20
REMARK    2  A    between atoms: C_4  and  O_16
REMARK    3  A    between atoms: C_13  and  O_18
REMARK    4  A    between atoms: C_21  and  C_25
REMARK    5  A    between atoms: C_26  and  O_36
REMARK                            x       y       z     vdW  Elec       q    Type
REMARK                         _______ _______ _______ _____ _____    ______ ____
ROOT
ATOM      1  O   UNL     1     146.818 120.834  91.574  0.00  0.00    +0.000 OA
ATOM      2  C   UNL     1     146.172 122.665  93.321  0.00  0.00    +0.000 C 
ATOM      3  C   UNL     1     145.289 123.894  93.553  0.00  0.00    +0.000 C 
ATOM      4  C   UNL     1     145.147 124.939  92.459  0.00  0.00    +0.000 C 
ATOM      5  C   UNL     1     146.213 122.066  91.847  0.00  0.00    +0.000 C 
ATOM      6  C   UNL     1     145.658 121.517  94.085  0.00  0.00    +0.000 C 
ATOM      7  C   UNL     1     145.527 124.346  91.192  0.00  0.00    +0.000 C 
ATOM      8  C   UNL     1     146.027 122.996  90.805  0.00  0.00    +0.000 C 
ATOM      9  C   UNL     1     147.632 122.989  93.743  0.00  0.00    +0.000 C 
ATOM     10  C   UNL     1     145.418 120.032  93.963  0.00  0.00    +0.000 C 
ATOM     11  C   UNL     1     145.986 119.630  91.510  0.00  0.00    +0.000 C 
ATOM     12  C   UNL     1     143.717 125.497  92.412  0.00  0.00    +0.000 C 
ATOM     13  C   UNL     1     145.595 119.097  92.921  0.00  0.00    +0.000 C 
ATOM     14  C   UNL     1     144.681 119.866  90.694  0.00  0.00    +0.000 C 
ATOM     15  C   UNL     1     146.837 118.523  90.821  0.00  0.00    +0.000 C 
ENDROOT
BRANCH   4  16
ATOM     16  O   UNL     1     145.976 126.039  92.740  0.00  0.00    +0.000 OA
ATOM     17  H   UNL     1     145.610 126.342  93.590  0.00  0.00    +0.000 HD
ENDBRANCH   4  16
BRANCH  13  18
ATOM     18  O   UNL     1     145.428 117.743  93.194  0.00  0.00    +0.000 OA
ATOM     19  H   UNL     1     145.755 117.516  94.090  0.00  0.00    +0.000 HD
ENDBRANCH  13  18
BRANCH   3  20
ATOM     20  C   UNL     1     144.791 124.175  94.875  0.00  0.00    +0.000 C 
ATOM     21  C   UNL     1     144.259 124.457  96.283  0.00  0.00    +0.000 C 
BRANCH  21  25
ATOM     22  C   UNL     1     144.984 126.354  99.248  0.00  0.00    +0.000 C 
ATOM     23  C   UNL     1     143.816 126.116  98.253  0.00  0.00    +0.000 C 
ATOM     24  C   UNL     1     145.239 125.557 100.495  0.00  0.00    +0.000 C 
ATOM     25  C   UNL     1     143.759 124.713  97.603  0.00  0.00    +0.000 C 
ATOM     26  C   UNL     1     146.184 126.256 101.465  0.00  0.00    +0.000 C 
ATOM     27  C   UNL     1     145.752 127.549  99.392  0.00  0.00    +0.000 C 
ATOM     28  C   UNL     1     146.455 127.480 100.720  0.00  0.00    +0.000 C 
ATOM     29  C   UNL     1     144.627 124.294 100.585  0.00  0.00    +0.000 C 
ATOM     30  C   UNL     1     143.328 123.565  98.401  0.00  0.00    +0.000 C 
ATOM     31  C   UNL     1     143.938 127.189  97.107  0.00  0.00    +0.000 C 
ATOM     32  C   UNL     1     142.470 126.416  98.999  0.00  0.00    +0.000 C 
ATOM     33  C   UNL     1     143.792 123.509  99.610  0.00  0.00    +0.000 C 
ATOM     34  C   UNL     1     147.405 125.411 101.798  0.00  0.00    +0.000 C 
ATOM     35  C   UNL     1     142.795 122.286  97.812  0.00  0.00    +0.000 C 
BRANCH  26  36
ATOM     36  O   UNL     1     145.526 126.534 102.673  0.00  0.00    +0.000 OA
ATOM     37  H   UNL     1     146.273 126.816 103.230  0.00  0.00    +0.000 HD
ENDBRANCH  26  36
ENDBRANCH  21  25
ENDBRANCH   3  20
TORSDOF 5
ENDMDL
MODEL 7
REMARK VINA RESULT:      -6.2      2.723      4.763
REMARK  Name = 342374_SipholenolA.pdbqt.pdb
REMARK  5 active torsions:
REMARK  status: ('A' for Active; 'I' for Inactive)
REMARK    1  A    between atoms: C_3  and  C_20
REMARK    2  A    between atoms: C_4  and  O_16
REMARK    3  A    between atoms: C_13  and  O_18
REMARK    4  A    between atoms: C_21  and  C_25
REMARK    5  A    between atoms: C_26  and  O_36
REMARK                            x       y       z     vdW  Elec       q    Type
REMARK                         _______ _______ _______ _____ _____    ______ ____
ROOT
ATOM      1  O   UNL     1     139.639 129.985  90.632  0.00  0.00    +0.000 OA
ATOM      2  C   UNL     1     140.948 128.651  92.457  0.00  0.00    +0.000 C 
ATOM      3  C   UNL     1     142.300 128.012  92.788  0.00  0.00    +0.000 C 
ATOM      4  C   UNL     1     143.039 127.215  91.727  0.00  0.00    +0.000 C 
ATOM      5  C   UNL     1     140.749 129.205  90.977  0.00  0.00    +0.000 C 
ATOM      6  C   UNL     1     140.754 129.874  93.251  0.00  0.00    +0.000 C 
ATOM      7  C   UNL     1     142.532 127.589  90.421  0.00  0.00    +0.000 C 
ATOM      8  C   UNL     1     141.464 128.528  89.970  0.00  0.00    +0.000 C 
ATOM      9  C   UNL     1     139.811 127.632  92.740  0.00  0.00    +0.000 C 
ATOM     10  C   UNL     1     140.236 131.286  93.134  0.00  0.00    +0.000 C 
ATOM     11  C   UNL     1     139.766 131.444  90.632  0.00  0.00    +0.000 C 
ATOM     12  C   UNL     1     144.556 127.441  91.825  0.00  0.00    +0.000 C 
ATOM     13  C   UNL     1     139.713 132.049  92.067  0.00  0.00    +0.000 C 
ATOM     14  C   UNL     1     141.084 131.915  89.949  0.00  0.00    +0.000 C 
ATOM     15  C   UNL     1     138.545 132.010  89.850  0.00  0.00    +0.000 C 
ENDROOT
BRANCH   4  16
ATOM     16  O   UNL     1     142.844 125.840  91.941  0.00  0.00    +0.000 OA
ATOM     17  H   UNL     1     143.498 125.661  92.640  0.00  0.00    +0.000 HD
ENDBRANCH   4  16
BRANCH  13  18
ATOM     18  O   UNL     1     139.161 133.297  92.338  0.00  0.00    +0.000 OA
ATOM     19  H   UNL     1     139.306 133.558  93.272  0.00  0.00    +0.000 HD
ENDBRANCH  13  18
BRANCH   3  20
ATOM     20  C   UNL     1     142.751 127.967  94.155  0.00  0.00    +0.000 C 
ATOM     21  C   UNL     1     143.226 127.934  95.611  0.00  0.00    +0.000 C 
BRANCH  21  25
ATOM     22  C   UNL     1     145.264 126.030  97.877  0.00  0.00    +0.000 C 
ATOM     23  C   UNL     1     145.104 127.490  97.373  0.00  0.00    +0.000 C 
ATOM     24  C   UNL     1     144.557 125.438  99.061  0.00  0.00    +0.000 C 
ATOM     25  C   UNL     1     143.670 127.913  96.975  0.00  0.00    +0.000 C 
ATOM     26  C   UNL     1     145.200 124.148  99.556  0.00  0.00    +0.000 C 
ATOM     27  C   UNL     1     146.345 125.142  97.593  0.00  0.00    +0.000 C 
ATOM     28  C   UNL     1     146.300 124.031  98.605  0.00  0.00    +0.000 C 
ATOM     29  C   UNL     1     143.407 126.106  99.522  0.00  0.00    +0.000 C 
ATOM     30  C   UNL     1     142.673 128.153  98.019  0.00  0.00    +0.000 C 
ATOM     31  C   UNL     1     146.040 127.667  96.118  0.00  0.00    +0.000 C 
ATOM     32  C   UNL     1     145.660 128.452  98.478  0.00  0.00    +0.000 C 
ATOM     33  C   UNL     1     142.663 127.304  98.998  0.00  0.00    +0.000 C 
ATOM     34  C   UNL     1     144.223 122.980  99.572  0.00  0.00    +0.000 C 
ATOM     35  C   UNL     1     141.434 128.985  97.820  0.00  0.00    +0.000 C 
BRANCH  26  36
ATOM     36  O   UNL     1     145.678 124.311 100.865  0.00  0.00    +0.000 OA
ATOM     37  H   UNL     1     145.074 123.726 101.356  0.00  0.00    +0.000 HD
ENDBRANCH  26  36
ENDBRANCH  21  25
ENDBRANCH   3  20
TORSDOF 5
ENDMDL
MODEL 8
REMARK VINA RESULT:      -6.1     19.511     24.974
REMARK  Name = 342374_SipholenolA.pdbqt.pdb
REMARK  5 active torsions:
REMARK  status: ('A' for Active; 'I' for Inactive)
REMARK    1  A    between atoms: C_3  and  C_20
REMARK    2  A    between atoms: C_4  and  O_16
REMARK    3  A    between atoms: C_13  and  O_18
REMARK    4  A    between atoms: C_21  and  C_25
REMARK    5  A    between atoms: C_26  and  O_36
REMARK                            x       y       z     vdW  Elec       q    Type
REMARK                         _______ _______ _______ _____ _____    ______ ____
ROOT
ATOM      1  O   UNL     1     158.802 120.803 119.841  0.00  0.00    +0.000 OA
ATOM      2  C   UNL     1     157.685 122.419 118.120  0.00  0.00    +0.000 C 
ATOM      3  C   UNL     1     156.365 122.760 117.423  0.00  0.00    +0.000 C 
ATOM      4  C   UNL     1     155.478 121.645 116.897  0.00  0.00    +0.000 C 
ATOM      5  C   UNL     1     157.719 121.095 119.004  0.00  0.00    +0.000 C 
ATOM      6  C   UNL     1     158.013 123.444 119.123  0.00  0.00    +0.000 C 
ATOM      7  C   UNL     1     155.834 120.408 117.565  0.00  0.00    +0.000 C 
ATOM      8  C   UNL     1     156.866 120.056 118.581  0.00  0.00    +0.000 C 
ATOM      9  C   UNL     1     158.817 122.313 117.062  0.00  0.00    +0.000 C 
ATOM     10  C   UNL     1     158.556 123.592 120.523  0.00  0.00    +0.000 C 
ATOM     11  C   UNL     1     158.721 121.157 121.261  0.00  0.00    +0.000 C 
ATOM     12  C   UNL     1     153.993 121.983 117.095  0.00  0.00    +0.000 C 
ATOM     13  C   UNL     1     158.968 122.675 121.513  0.00  0.00    +0.000 C 
ATOM     14  C   UNL     1     157.345 120.773 121.880  0.00  0.00    +0.000 C 
ATOM     15  C   UNL     1     159.855 120.380 121.992  0.00  0.00    +0.000 C 
ENDROOT
BRANCH   4  16
ATOM     16  O   UNL     1     155.656 121.508 115.510  0.00  0.00    +0.000 OA
ATOM     17  H   UNL     1     156.212 122.283 115.311  0.00  0.00    +0.000 HD
ENDBRANCH   4  16
BRANCH  13  18
ATOM     18  O   UNL     1     159.587 123.155 122.663  0.00  0.00    +0.000 OA
ATOM     19  H   UNL     1     159.850 122.424 123.260  0.00  0.00    +0.000 HD
ENDBRANCH  13  18
BRANCH   3  20
ATOM     20  C   UNL     1     156.083 124.125 117.060  0.00  0.00    +0.000 C 
ATOM     21  C   UNL     1     155.800 125.579 116.672  0.00  0.00    +0.000 C 
BRANCH  21  25
ATOM     22  C   UNL     1     154.177 127.563 114.152  0.00  0.00    +0.000 C 
ATOM     23  C   UNL     1     154.198 127.399 115.696  0.00  0.00    +0.000 C 
ATOM     24  C   UNL     1     155.064 128.483 113.365  0.00  0.00    +0.000 C 
ATOM     25  C   UNL     1     155.544 126.944 116.309  0.00  0.00    +0.000 C 
ATOM     26  C   UNL     1     154.556 128.735 111.951  0.00  0.00    +0.000 C 
ATOM     27  C   UNL     1     153.112 127.210 113.271  0.00  0.00    +0.000 C 
ATOM     28  C   UNL     1     153.346 127.921 111.966  0.00  0.00    +0.000 C 
ATOM     29  C   UNL     1     156.232 128.947 113.999  0.00  0.00    +0.000 C 
ATOM     30  C   UNL     1     156.659 127.888 116.383  0.00  0.00    +0.000 C 
ATOM     31  C   UNL     1     153.096 126.341 116.079  0.00  0.00    +0.000 C 
ATOM     32  C   UNL     1     153.750 128.757 116.338  0.00  0.00    +0.000 C 
ATOM     33  C   UNL     1     156.841 128.633 115.339  0.00  0.00    +0.000 C 
ATOM     34  C   UNL     1     155.581 128.361 110.889  0.00  0.00    +0.000 C 
ATOM     35  C   UNL     1     157.819 127.745 117.332  0.00  0.00    +0.000 C 
BRANCH  26  36
ATOM     36  O   UNL     1     154.250 130.094 111.776  0.00  0.00    +0.000 OA
ATOM     37  H   UNL     1     153.801 130.072 110.913  0.00  0.00    +0.000 HD
ENDBRANCH  26  36
ENDBRANCH  21  25
ENDBRANCH   3  20
TORSDOF 5
ENDMDL
MODEL 9
REMARK VINA RESULT:      -6.1     38.033     43.920
REMARK  Name = 342374_SipholenolA.pdbqt.pdb
REMARK  5 active torsions:
REMARK  status: ('A' for Active; 'I' for Inactive)
REMARK    1  A    between atoms: C_3  and  C_20
REMARK    2  A    between atoms: C_4  and  O_16
REMARK    3  A    between atoms: C_13  and  O_18
REMARK    4  A    between atoms: C_21  and  C_25
REMARK    5  A    between atoms: C_26  and  O_36
REMARK                            x       y       z     vdW  Elec       q    Type
REMARK                         _______ _______ _______ _____ _____    ______ ____
ROOT
ATOM      1  O   UNL     1     137.130 121.776 134.844  0.00  0.00    +0.000 OA
ATOM      2  C   UNL     1     135.310 121.380 136.675  0.00  0.00    +0.000 C 
ATOM      3  C   UNL     1     134.743 121.921 137.991  0.00  0.00    +0.000 C 
ATOM      4  C   UNL     1     135.688 122.390 139.084  0.00  0.00    +0.000 C 
ATOM      5  C   UNL     1     136.646 122.051 136.129  0.00  0.00    +0.000 C 
ATOM      6  C   UNL     1     134.378 121.652 135.569  0.00  0.00    +0.000 C 
ATOM      7  C   UNL     1     136.984 122.668 138.496  0.00  0.00    +0.000 C 
ATOM      8  C   UNL     1     137.524 122.551 137.110  0.00  0.00    +0.000 C 
ATOM      9  C   UNL     1     135.564 119.854 136.809  0.00  0.00    +0.000 C 
ATOM     10  C   UNL     1     134.357 122.100 134.128  0.00  0.00    +0.000 C 
ATOM     11  C   UNL     1     136.807 122.695 133.750  0.00  0.00    +0.000 C 
ATOM     12  C   UNL     1     135.125 123.622 139.808  0.00  0.00    +0.000 C 
ATOM     13  C   UNL     1     135.356 122.504 133.216  0.00  0.00    +0.000 C 
ATOM     14  C   UNL     1     136.986 124.185 134.167  0.00  0.00    +0.000 C 
ATOM     15  C   UNL     1     137.775 122.365 132.575  0.00  0.00    +0.000 C 
ENDROOT
BRANCH   4  16
ATOM     16  O   UNL     1     135.812 121.394 140.067  0.00  0.00    +0.000 OA
ATOM     17  H   UNL     1     136.644 120.964 139.799  0.00  0.00    +0.000 HD
ENDBRANCH   4  16
BRANCH  13  18
ATOM     18  O   UNL     1     135.012 122.701 131.883  0.00  0.00    +0.000 OA
ATOM     19  H   UNL     1     134.197 122.210 131.647  0.00  0.00    +0.000 HD
ENDBRANCH  13  18
BRANCH   3  20
ATOM     20  C   UNL     1     133.341 121.765 138.281  0.00  0.00    +0.000 C 
ATOM     21  C   UNL     1     131.847 121.608 138.576  0.00  0.00    +0.000 C 
BRANCH  21  25
ATOM     22  C   UNL     1     128.899 123.555 139.238  0.00  0.00    +0.000 C 
ATOM     23  C   UNL     1     129.388 122.441 138.272  0.00  0.00    +0.000 C 
ATOM     24  C   UNL     1     128.241 123.323 140.567  0.00  0.00    +0.000 C 
ATOM     25  C   UNL     1     130.444 121.467 138.846  0.00  0.00    +0.000 C 
ATOM     26  C   UNL     1     127.514 124.555 141.095  0.00  0.00    +0.000 C 
ATOM     27  C   UNL     1     128.618 124.913 138.902  0.00  0.00    +0.000 C 
ATOM     28  C   UNL     1     127.786 125.494 140.013  0.00  0.00    +0.000 C 
ATOM     29  C   UNL     1     128.408 122.056 141.154  0.00  0.00    +0.000 C 
ATOM     30  C   UNL     1     130.038 120.456 139.823  0.00  0.00    +0.000 C 
ATOM     31  C   UNL     1     130.000 123.145 137.003  0.00  0.00    +0.000 C 
ATOM     32  C   UNL     1     128.136 121.642 137.774  0.00  0.00    +0.000 C 
ATOM     33  C   UNL     1     129.212 120.853 140.739  0.00  0.00    +0.000 C 
ATOM     34  C   UNL     1     128.012 124.980 142.469  0.00  0.00    +0.000 C 
ATOM     35  C   UNL     1     130.816 119.197 140.101  0.00  0.00    +0.000 C 
BRANCH  26  36
ATOM     36  O   UNL     1     126.139 124.299 141.209  0.00  0.00    +0.000 OA
ATOM     37  H   UNL     1     126.115 123.782 142.034  0.00  0.00    +0.000 HD
ENDBRANCH  26  36
ENDBRANCH  21  25
ENDBRANCH   3  20
TORSDOF 5
ENDMDL
