MODEL 1
REMARK VINA RESULT:      -4.2      0.000      0.000
REMARK  Name = 43806_Diaminocyclohexane.pdbqt.pdb
REMARK  2 active torsions:
REMARK  status: ('A' for Active; 'I' for Inactive)
REMARK    1  A    between atoms: C_1  and  N_7
REMARK    2  A    between atoms: C_2  and  N_10
REMARK                            x       y       z     vdW  Elec       q    Type
REMARK                         _______ _______ _______ _____ _____    ______ ____
ROOT
ATOM      1  C   UNL     1     137.656 123.058 133.151  0.00  0.00    +0.000 A 
ATOM      2  C   UNL     1     138.364 122.647 134.382  0.00  0.00    +0.000 A 
ATOM      3  C   UNL     1     136.284 123.431 133.331  0.00  0.00    +0.000 A 
ATOM      4  C   UNL     1     137.585 122.712 135.584  0.00  0.00    +0.000 A 
ATOM      5  C   UNL     1     135.387 123.515 134.576  0.00  0.00    +0.000 A 
ATOM      6  C   UNL     1     136.125 123.110 135.853  0.00  0.00    +0.000 A 
ENDROOT
BRANCH   1   7
ATOM      7  N   UNL     1     138.300 123.155 131.895  0.00  0.00    +0.000 N 
ATOM      8  H   UNL     1     138.419 124.111 131.573  0.00  0.00    +0.000 HD
ATOM      9  H   UNL     1     137.916 122.550 131.176  0.00  0.00    +0.000 HD
ENDBRANCH   1   7
BRANCH   2  10
ATOM     10  N   UNL     1     139.688 122.148 134.373  0.00  0.00    +0.000 N 
ATOM     11  H   UNL     1     140.371 122.803 134.740  0.00  0.00    +0.000 HD
ATOM     12  H   UNL     1     139.979 121.742 133.490  0.00  0.00    +0.000 HD
ENDBRANCH   2  10
TORSDOF 2
ENDMDL
MODEL 2
REMARK VINA RESULT:      -4.2      1.664      2.621
REMARK  Name = 43806_Diaminocyclohexane.pdbqt.pdb
REMARK  2 active torsions:
REMARK  status: ('A' for Active; 'I' for Inactive)
REMARK    1  A    between atoms: C_1  and  N_7
REMARK    2  A    between atoms: C_2  and  N_10
REMARK                            x       y       z     vdW  Elec       q    Type
REMARK                         _______ _______ _______ _____ _____    ______ ____
ROOT
ATOM      1  C   UNL     1     136.726 121.354 134.320  0.00  0.00    +0.000 A 
ATOM      2  C   UNL     1     136.653 122.474 133.356  0.00  0.00    +0.000 A 
ATOM      3  C   UNL     1     136.098 121.596 135.585  0.00  0.00    +0.000 A 
ATOM      4  C   UNL     1     135.936 123.627 133.815  0.00  0.00    +0.000 A 
ATOM      5  C   UNL     1     135.327 122.802 136.147  0.00  0.00    +0.000 A 
ATOM      6  C   UNL     1     135.233 123.952 135.142  0.00  0.00    +0.000 A 
ENDROOT
BRANCH   1   7
ATOM      7  N   UNL     1     137.303 120.103 133.997  0.00  0.00    +0.000 N 
ATOM      8  H   UNL     1     138.315 120.094 134.066  0.00  0.00    +0.000 HD
ATOM      9  H   UNL     1     136.971 119.699 133.127  0.00  0.00    +0.000 HD
ENDBRANCH   1   7
BRANCH   2  10
ATOM     10  N   UNL     1     137.307 122.447 132.102  0.00  0.00    +0.000 N 
ATOM     11  H   UNL     1     137.842 121.600 131.942  0.00  0.00    +0.000 HD
ATOM     12  H   UNL     1     137.838 123.285 131.886  0.00  0.00    +0.000 HD
ENDBRANCH   2  10
TORSDOF 2
ENDMDL
MODEL 3
REMARK VINA RESULT:      -4.1      2.142      2.670
REMARK  Name = 43806_Diaminocyclohexane.pdbqt.pdb
REMARK  2 active torsions:
REMARK  status: ('A' for Active; 'I' for Inactive)
REMARK    1  A    between atoms: C_1  and  N_7
REMARK    2  A    between atoms: C_2  and  N_10
REMARK                            x       y       z     vdW  Elec       q    Type
REMARK                         _______ _______ _______ _____ _____    ______ ____
ROOT
ATOM      1  C   UNL     1     135.309 122.338 132.898  0.00  0.00    +0.000 A 
ATOM      2  C   UNL     1     136.020 123.556 133.345  0.00  0.00    +0.000 A 
ATOM      3  C   UNL     1     134.413 121.767 133.858  0.00  0.00    +0.000 A 
ATOM      4  C   UNL     1     135.684 124.007 134.664  0.00  0.00    +0.000 A 
ATOM      5  C   UNL     1     134.014 122.186 135.283  0.00  0.00    +0.000 A 
ATOM      6  C   UNL     1     134.733 123.457 135.738  0.00  0.00    +0.000 A 
ENDROOT
BRANCH   1   7
ATOM      7  N   UNL     1     135.439 121.815 131.589  0.00  0.00    +0.000 N 
ATOM      8  H   UNL     1     134.620 121.969 131.008  0.00  0.00    +0.000 HD
ATOM      9  H   UNL     1     135.765 120.854 131.550  0.00  0.00    +0.000 HD
ENDBRANCH   1   7
BRANCH   2  10
ATOM     10  N   UNL     1     137.017 124.189 132.567  0.00  0.00    +0.000 N 
ATOM     11  H   UNL     1     137.002 123.916 131.589  0.00  0.00    +0.000 HD
ATOM     12  H   UNL     1     137.950 124.149 132.964  0.00  0.00    +0.000 HD
ENDBRANCH   2  10
TORSDOF 2
ENDMDL
MODEL 4
REMARK VINA RESULT:      -4.1     33.720     35.072
REMARK  Name = 43806_Diaminocyclohexane.pdbqt.pdb
REMARK  2 active torsions:
REMARK  status: ('A' for Active; 'I' for Inactive)
REMARK    1  A    between atoms: C_1  and  N_7
REMARK    2  A    between atoms: C_2  and  N_10
REMARK                            x       y       z     vdW  Elec       q    Type
REMARK                         _______ _______ _______ _____ _____    ______ ____
ROOT
ATOM      1  C   UNL     1     142.567 134.816 101.902  0.00  0.00    +0.000 A 
ATOM      2  C   UNL     1     142.812 136.004 101.055  0.00  0.00    +0.000 A 
ATOM      3  C   UNL     1     142.729 135.027 103.310  0.00  0.00    +0.000 A 
ATOM      4  C   UNL     1     143.144 137.203 101.768  0.00  0.00    +0.000 A 
ATOM      5  C   UNL     1     143.090 136.270 104.139  0.00  0.00    +0.000 A 
ATOM      6  C   UNL     1     143.323 137.504 103.265  0.00  0.00    +0.000 A 
ENDROOT
BRANCH   1   7
ATOM      7  N   UNL     1     142.127 133.579 101.374  0.00  0.00    +0.000 N 
ATOM      8  H   UNL     1     141.690 132.977 102.065  0.00  0.00    +0.000 HD
ATOM      9  H   UNL     1     142.820 133.089 100.817  0.00  0.00    +0.000 HD
ENDBRANCH   1   7
BRANCH   2  10
ATOM     10  N   UNL     1     142.801 135.951  99.642  0.00  0.00    +0.000 N 
ATOM     11  H   UNL     1     142.499 135.056  99.272  0.00  0.00    +0.000 HD
ATOM     12  H   UNL     1     143.652 136.284  99.201  0.00  0.00    +0.000 HD
ENDBRANCH   2  10
TORSDOF 2
ENDMDL
MODEL 5
REMARK VINA RESULT:      -4.1     33.720     35.025
REMARK  Name = 43806_Diaminocyclohexane.pdbqt.pdb
REMARK  2 active torsions:
REMARK  status: ('A' for Active; 'I' for Inactive)
REMARK    1  A    between atoms: C_1  and  N_7
REMARK    2  A    between atoms: C_2  and  N_10
REMARK                            x       y       z     vdW  Elec       q    Type
REMARK                         _______ _______ _______ _____ _____    ______ ____
ROOT
ATOM      1  C   UNL     1     142.813 136.005 101.056  0.00  0.00    +0.000 A 
ATOM      2  C   UNL     1     142.567 134.817 101.902  0.00  0.00    +0.000 A 
ATOM      3  C   UNL     1     143.143 137.204 101.768  0.00  0.00    +0.000 A 
ATOM      4  C   UNL     1     142.728 135.029 103.311  0.00  0.00    +0.000 A 
ATOM      5  C   UNL     1     143.321 137.506 103.265  0.00  0.00    +0.000 A 
ATOM      6  C   UNL     1     143.088 136.272 104.139  0.00  0.00    +0.000 A 
ENDROOT
BRANCH   1   7
ATOM      7  N   UNL     1     142.802 135.952  99.642  0.00  0.00    +0.000 N 
ATOM      8  H   UNL     1     143.061 135.044  99.269  0.00  0.00    +0.000 HD
ATOM      9  H   UNL     1     143.297 136.713  99.188  0.00  0.00    +0.000 HD
ENDBRANCH   1   7
BRANCH   2  10
ATOM     10  N   UNL     1     142.128 133.580 101.375  0.00  0.00    +0.000 N 
ATOM     11  H   UNL     1     142.866 132.887 101.297  0.00  0.00    +0.000 HD
ATOM     12  H   UNL     1     141.579 133.655 100.525  0.00  0.00    +0.000 HD
ENDBRANCH   2  10
TORSDOF 2
ENDMDL
MODEL 6
REMARK VINA RESULT:      -4.0     33.785     35.155
REMARK  Name = 43806_Diaminocyclohexane.pdbqt.pdb
REMARK  2 active torsions:
REMARK  status: ('A' for Active; 'I' for Inactive)
REMARK    1  A    between atoms: C_1  and  N_7
REMARK    2  A    between atoms: C_2  and  N_10
REMARK                            x       y       z     vdW  Elec       q    Type
REMARK                         _______ _______ _______ _____ _____    ______ ____
ROOT
ATOM      1  C   UNL     1     143.049 135.654 103.089  0.00  0.00    +0.000 A 
ATOM      2  C   UNL     1     142.655 135.141 101.758  0.00  0.00    +0.000 A 
ATOM      3  C   UNL     1     143.512 137.009 103.108  0.00  0.00    +0.000 A 
ATOM      4  C   UNL     1     142.761 136.086 100.685  0.00  0.00    +0.000 A 
ATOM      5  C   UNL     1     143.662 138.070 102.005  0.00  0.00    +0.000 A 
ATOM      6  C   UNL     1     143.234 137.547 100.632  0.00  0.00    +0.000 A 
ENDROOT
BRANCH   1   7
ATOM      7  N   UNL     1     142.908 134.893 104.273  0.00  0.00    +0.000 N 
ATOM      8  H   UNL     1     142.295 134.091 104.169  0.00  0.00    +0.000 HD
ATOM      9  H   UNL     1     142.694 135.439 105.102  0.00  0.00    +0.000 HD
ENDBRANCH   1   7
BRANCH   2  10
ATOM     10  N   UNL     1     142.276 133.796 101.538  0.00  0.00    +0.000 N 
ATOM     11  H   UNL     1     143.063 133.164 101.438  0.00  0.00    +0.000 HD
ATOM     12  H   UNL     1     141.582 133.667 100.809  0.00  0.00    +0.000 HD
ENDBRANCH   2  10
TORSDOF 2
ENDMDL
MODEL 7
REMARK VINA RESULT:      -3.9      2.314      2.423
REMARK  Name = 43806_Diaminocyclohexane.pdbqt.pdb
REMARK  2 active torsions:
REMARK  status: ('A' for Active; 'I' for Inactive)
REMARK    1  A    between atoms: C_1  and  N_7
REMARK    2  A    between atoms: C_2  and  N_10
REMARK                            x       y       z     vdW  Elec       q    Type
REMARK                         _______ _______ _______ _____ _____    ______ ____
ROOT
ATOM      1  C   UNL     1     136.520 120.979 134.712  0.00  0.00    +0.000 A 
ATOM      2  C   UNL     1     137.137 121.925 135.668  0.00  0.00    +0.000 A 
ATOM      3  C   UNL     1     135.138 121.219 134.423  0.00  0.00    +0.000 A 
ATOM      4  C   UNL     1     136.272 122.965 136.141  0.00  0.00    +0.000 A 
ATOM      5  C   UNL     1     134.151 122.298 134.897  0.00  0.00    +0.000 A 
ATOM      6  C   UNL     1     134.795 123.289 135.869  0.00  0.00    +0.000 A 
ENDROOT
BRANCH   1   7
ATOM      7  N   UNL     1     137.256 119.958 134.066  0.00  0.00    +0.000 N 
ATOM      8  H   UNL     1     137.465 119.167 134.667  0.00  0.00    +0.000 HD
ATOM      9  H   UNL     1     138.071 120.284 133.556  0.00  0.00    +0.000 HD
ENDBRANCH   1   7
BRANCH   2  10
ATOM     10  N   UNL     1     138.460 121.775 136.147  0.00  0.00    +0.000 N 
ATOM     11  H   UNL     1     139.169 121.977 135.449  0.00  0.00    +0.000 HD
ATOM     12  H   UNL     1     138.636 120.902 136.633  0.00  0.00    +0.000 HD
ENDBRANCH   2  10
TORSDOF 2
ENDMDL
MODEL 8
REMARK VINA RESULT:      -3.9      1.957      2.851
REMARK  Name = 43806_Diaminocyclohexane.pdbqt.pdb
REMARK  2 active torsions:
REMARK  status: ('A' for Active; 'I' for Inactive)
REMARK    1  A    between atoms: C_1  and  N_7
REMARK    2  A    between atoms: C_2  and  N_10
REMARK                            x       y       z     vdW  Elec       q    Type
REMARK                         _______ _______ _______ _____ _____    ______ ____
ROOT
ATOM      1  C   UNL     1     138.328 122.569 135.369  0.00  0.00    +0.000 A 
ATOM      2  C   UNL     1     139.629 122.763 134.690  0.00  0.00    +0.000 A 
ATOM      3  C   UNL     1     137.224 123.267 134.781  0.00  0.00    +0.000 A 
ATOM      4  C   UNL     1     139.589 123.593 133.523  0.00  0.00    +0.000 A 
ATOM      5  C   UNL     1     137.109 124.176 133.547  0.00  0.00    +0.000 A 
ATOM      6  C   UNL     1     138.449 124.359 132.832  0.00  0.00    +0.000 A 
ENDROOT
BRANCH   1   7
ATOM      7  N   UNL     1     138.164 121.698 136.472  0.00  0.00    +0.000 N 
ATOM      8  H   UNL     1     137.218 121.686 136.841  0.00  0.00    +0.000 HD
ATOM      9  H   UNL     1     138.862 121.805 137.201  0.00  0.00    +0.000 HD
ENDBRANCH   1   7
BRANCH   2  10
ATOM     10  N   UNL     1     140.841 122.235 135.195  0.00  0.00    +0.000 N 
ATOM     11  H   UNL     1     141.025 122.494 136.159  0.00  0.00    +0.000 HD
ATOM     12  H   UNL     1     141.646 122.381 134.595  0.00  0.00    +0.000 HD
ENDBRANCH   2  10
TORSDOF 2
ENDMDL
MODEL 9
REMARK VINA RESULT:      -3.7     32.012     33.263
REMARK  Name = 43806_Diaminocyclohexane.pdbqt.pdb
REMARK  2 active torsions:
REMARK  status: ('A' for Active; 'I' for Inactive)
REMARK    1  A    between atoms: C_1  and  N_7
REMARK    2  A    between atoms: C_2  and  N_10
REMARK                            x       y       z     vdW  Elec       q    Type
REMARK                         _______ _______ _______ _____ _____    ______ ____
ROOT
ATOM      1  C   UNL     1     146.888 126.473 103.498  0.00  0.00    +0.000 A 
ATOM      2  C   UNL     1     146.129 127.694 103.148  0.00  0.00    +0.000 A 
ATOM      3  C   UNL     1     147.566 125.842 102.405  0.00  0.00    +0.000 A 
ATOM      4  C   UNL     1     146.208 128.087 101.772  0.00  0.00    +0.000 A 
ATOM      5  C   UNL     1     147.685 126.197 100.913  0.00  0.00    +0.000 A 
ATOM      6  C   UNL     1     146.918 127.471 100.556  0.00  0.00    +0.000 A 
ENDROOT
BRANCH   1   7
ATOM      7  N   UNL     1     147.007 126.002 104.827  0.00  0.00    +0.000 N 
ATOM      8  H   UNL     1     147.225 126.732 105.497  0.00  0.00    +0.000 HD
ATOM      9  H   UNL     1     147.605 125.188 104.933  0.00  0.00    +0.000 HD
ENDBRANCH   1   7
BRANCH   2  10
ATOM     10  N   UNL     1     145.318 128.383 104.080  0.00  0.00    +0.000 N 
ATOM     11  H   UNL     1     145.194 127.886 104.956  0.00  0.00    +0.000 HD
ATOM     12  H   UNL     1     144.440 128.724 103.702  0.00  0.00    +0.000 HD
ENDBRANCH   2  10
TORSDOF 2
ENDMDL
