MODEL 1
REMARK VINA RESULT:      -6.6      0.000      0.000
REMARK  Name = 44234954_SipholenolL.pdbqt.pdb
REMARK  5 active torsions:
REMARK  status: ('A' for Active; 'I' for Inactive)
REMARK    1  A    between atoms: C_3  and  C_20
REMARK    2  A    between atoms: C_4  and  O_16
REMARK    3  A    between atoms: C_13  and  O_18
REMARK    4  A    between atoms: C_21  and  C_25
REMARK    5  A    between atoms: C_26  and  O_36
REMARK                            x       y       z     vdW  Elec       q    Type
REMARK                         _______ _______ _______ _____ _____    ______ ____
ROOT
ATOM      1  O   UNL     1     137.869 122.181 133.799  0.00  0.00    +0.000 OA
ATOM      2  C   UNL     1     136.178 121.439 135.637  0.00  0.00    +0.000 C 
ATOM      3  C   UNL     1     134.735 121.616 136.115  0.00  0.00    +0.000 C 
ATOM      4  C   UNL     1     133.599 121.530 135.112  0.00  0.00    +0.000 C 
ATOM      5  C   UNL     1     136.543 122.100 134.236  0.00  0.00    +0.000 C 
ATOM      6  C   UNL     1     137.119 122.136 136.528  0.00  0.00    +0.000 C 
ATOM      7  C   UNL     1     134.116 121.868 133.799  0.00  0.00    +0.000 C 
ATOM      8  C   UNL     1     135.491 122.164 133.300  0.00  0.00    +0.000 C 
ATOM      9  C   UNL     1     136.528 119.930 135.572  0.00  0.00    +0.000 C 
ATOM     10  C   UNL     1     138.341 123.018 136.484  0.00  0.00    +0.000 C 
ATOM     11  C   UNL     1     138.620 123.436 133.978  0.00  0.00    +0.000 C 
ATOM     12  C   UNL     1     132.880 120.186 135.175  0.00  0.00    +0.000 C 
ATOM     13  C   UNL     1     139.099 123.625 135.456  0.00  0.00    +0.000 C 
ATOM     14  C   UNL     1     139.864 123.312 133.057  0.00  0.00    +0.000 C 
ATOM     15  C   UNL     1     137.756 124.669 133.570  0.00  0.00    +0.000 C 
ENDROOT
BRANCH   4  16
ATOM     16  O   UNL     1     132.616 122.485 135.456  0.00  0.00    +0.000 OA
ATOM     17  H   UNL     1     131.898 122.235 134.845  0.00  0.00    +0.000 HD
ENDBRANCH   4  16
BRANCH  13  18
ATOM     18  O   UNL     1     140.090 124.536 135.797  0.00  0.00    +0.000 OA
ATOM     19  H   UNL     1     140.984 124.154 135.736  0.00  0.00    +0.000 HD
ENDBRANCH  13  18
BRANCH   3  20
ATOM     20  C   UNL     1     134.438 121.801 137.509  0.00  0.00    +0.000 C 
ATOM     21  C   UNL     1     134.137 122.029 138.994  0.00  0.00    +0.000 C 
BRANCH  21  25
ATOM     22  C   UNL     1     132.654 121.630 141.070  0.00  0.00    +0.000 A 
ATOM     23  C   UNL     1     132.392 121.915 142.599  0.00  0.00    +0.000 A 
ATOM     24  C   UNL     1     131.696 120.697 140.219  0.00  0.00    +0.000 C 
ATOM     25  C   UNL     1     133.862 122.292 140.372  0.00  0.00    +0.000 A 
ATOM     26  C   UNL     1     131.269 121.345 143.497  0.00  0.00    +0.000 C 
ATOM     27  C   UNL     1     130.654 120.268 141.158  0.00  0.00    +0.000 C 
ATOM     28  C   UNL     1     130.435 120.545 142.621  0.00  0.00    +0.000 C 
ATOM     29  C   UNL     1     133.342 122.851 143.104  0.00  0.00    +0.000 A 
ATOM     30  C   UNL     1     134.782 123.233 141.069  0.00  0.00    +0.000 A 
ATOM     31  C   UNL     1     132.480 119.457 139.724  0.00  0.00    +0.000 C 
ATOM     32  C   UNL     1     131.046 121.508 139.078  0.00  0.00    +0.000 C 
ATOM     33  C   UNL     1     134.469 123.441 142.308  0.00  0.00    +0.000 A 
ATOM     34  C   UNL     1     131.841 120.563 144.671  0.00  0.00    +0.000 C 
ATOM     35  C   UNL     1     136.049 123.812 140.510  0.00  0.00    +0.000 C 
BRANCH  26  36
ATOM     36  O   UNL     1     130.514 122.401 144.033  0.00  0.00    +0.000 OA
ATOM     37  H   UNL     1     131.120 123.152 143.892  0.00  0.00    +0.000 HD
ENDBRANCH  26  36
ENDBRANCH  21  25
ENDBRANCH   3  20
TORSDOF 5
ENDMDL
MODEL 2
REMARK VINA RESULT:      -6.6     27.771     30.416
REMARK  Name = 44234954_SipholenolL.pdbqt.pdb
REMARK  5 active torsions:
REMARK  status: ('A' for Active; 'I' for Inactive)
REMARK    1  A    between atoms: C_3  and  C_20
REMARK    2  A    between atoms: C_4  and  O_16
REMARK    3  A    between atoms: C_13  and  O_18
REMARK    4  A    between atoms: C_21  and  C_25
REMARK    5  A    between atoms: C_26  and  O_36
REMARK                            x       y       z     vdW  Elec       q    Type
REMARK                         _______ _______ _______ _____ _____    ______ ____
ROOT
ATOM      1  O   UNL     1     144.077 114.463 107.533  0.00  0.00    +0.000 OA
ATOM      2  C   UNL     1     144.171 113.775 110.045  0.00  0.00    +0.000 C 
ATOM      3  C   UNL     1     144.321 114.334 111.462  0.00  0.00    +0.000 C 
ATOM      4  C   UNL     1     143.504 115.543 111.879  0.00  0.00    +0.000 C 
ATOM      5  C   UNL     1     144.014 114.845 108.877  0.00  0.00    +0.000 C 
ATOM      6  C   UNL     1     145.394 113.075 109.620  0.00  0.00    +0.000 C 
ATOM      7  C   UNL     1     143.158 116.299 110.690  0.00  0.00    +0.000 C 
ATOM      8  C   UNL     1     143.371 116.047 109.234  0.00  0.00    +0.000 C 
ATOM      9  C   UNL     1     142.960 112.808 109.988  0.00  0.00    +0.000 C 
ATOM     10  C   UNL     1     146.309 112.931 108.431  0.00  0.00    +0.000 C 
ATOM     11  C   UNL     1     145.336 114.629 106.786  0.00  0.00    +0.000 C 
ATOM     12  C   UNL     1     142.309 115.155 112.745  0.00  0.00    +0.000 C 
ATOM     13  C   UNL     1     146.381 113.520 107.148  0.00  0.00    +0.000 C 
ATOM     14  C   UNL     1     144.954 114.491 105.288  0.00  0.00    +0.000 C 
ATOM     15  C   UNL     1     145.973 116.026 107.064  0.00  0.00    +0.000 C 
ENDROOT
BRANCH   4  16
ATOM     16  O   UNL     1     144.301 116.366 112.706  0.00  0.00    +0.000 OA
ATOM     17  H   UNL     1     144.468 117.118 112.108  0.00  0.00    +0.000 HD
ENDBRANCH   4  16
BRANCH  13  18
ATOM     18  O   UNL     1     147.489 113.266 106.349  0.00  0.00    +0.000 OA
ATOM     19  H   UNL     1     148.297 113.690 106.688  0.00  0.00    +0.000 HD
ENDBRANCH  13  18
BRANCH   3  20
ATOM     20  C   UNL     1     145.179 113.692 112.420  0.00  0.00    +0.000 C 
ATOM     21  C   UNL     1     146.078 112.977 113.434  0.00  0.00    +0.000 C 
BRANCH  21  25
ATOM     22  C   UNL     1     148.355 112.727 114.625  0.00  0.00    +0.000 A 
ATOM     23  C   UNL     1     149.236 111.940 115.671  0.00  0.00    +0.000 A 
ATOM     24  C   UNL     1     148.925 113.968 113.821  0.00  0.00    +0.000 C 
ATOM     25  C   UNL     1     146.905 112.266 114.357  0.00  0.00    +0.000 A 
ATOM     26  C   UNL     1     150.689 112.238 116.110  0.00  0.00    +0.000 C 
ATOM     27  C   UNL     1     150.309 114.114 114.281  0.00  0.00    +0.000 C 
ATOM     28  C   UNL     1     151.123 113.356 115.294  0.00  0.00    +0.000 C 
ATOM     29  C   UNL     1     148.521 110.819 116.185  0.00  0.00    +0.000 A 
ATOM     30  C   UNL     1     146.302 111.074 115.015  0.00  0.00    +0.000 A 
ATOM     31  C   UNL     1     148.126 115.241 114.192  0.00  0.00    +0.000 C 
ATOM     32  C   UNL     1     148.922 113.663 112.308  0.00  0.00    +0.000 C 
ATOM     33  C   UNL     1     147.108 110.466 115.826  0.00  0.00    +0.000 A 
ATOM     34  C   UNL     1     150.771 112.511 117.605  0.00  0.00    +0.000 C 
ATOM     35  C   UNL     1     144.870 110.638 114.917  0.00  0.00    +0.000 C 
BRANCH  26  36
ATOM     36  O   UNL     1     151.497 111.120 115.849  0.00  0.00    +0.000 OA
ATOM     37  H   UNL     1     151.987 111.046 116.689  0.00  0.00    +0.000 HD
ENDBRANCH  26  36
ENDBRANCH  21  25
ENDBRANCH   3  20
TORSDOF 5
ENDMDL
MODEL 3
REMARK VINA RESULT:      -6.5     26.900     31.940
REMARK  Name = 44234954_SipholenolL.pdbqt.pdb
REMARK  5 active torsions:
REMARK  status: ('A' for Active; 'I' for Inactive)
REMARK    1  A    between atoms: C_3  and  C_20
REMARK    2  A    between atoms: C_4  and  O_16
REMARK    3  A    between atoms: C_13  and  O_18
REMARK    4  A    between atoms: C_21  and  C_25
REMARK    5  A    between atoms: C_26  and  O_36
REMARK                            x       y       z     vdW  Elec       q    Type
REMARK                         _______ _______ _______ _____ _____    ______ ____
ROOT
ATOM      1  O   UNL     1     145.022 115.717 112.710  0.00  0.00    +0.000 OA
ATOM      2  C   UNL     1     142.845 115.725 111.278  0.00  0.00    +0.000 C 
ATOM      3  C   UNL     1     141.439 115.126 111.185  0.00  0.00    +0.000 C 
ATOM      4  C   UNL     1     140.560 115.086 112.422  0.00  0.00    +0.000 C 
ATOM      5  C   UNL     1     143.663 115.401 112.604  0.00  0.00    +0.000 C 
ATOM      6  C   UNL     1     143.732 115.151 110.255  0.00  0.00    +0.000 C 
ATOM      7  C   UNL     1     141.414 115.094 113.595  0.00  0.00    +0.000 C 
ATOM      8  C   UNL     1     142.891 115.228 113.770  0.00  0.00    +0.000 C 
ATOM      9  C   UNL     1     142.771 117.265 111.112  0.00  0.00    +0.000 C 
ATOM     10  C   UNL     1     145.131 114.614 110.083  0.00  0.00    +0.000 C 
ATOM     11  C   UNL     1     146.033 114.673 112.474  0.00  0.00    +0.000 C 
ATOM     12  C   UNL     1     139.502 116.186 112.409  0.00  0.00    +0.000 C 
ATOM     13  C   UNL     1     146.224 114.380 110.948  0.00  0.00    +0.000 C 
ATOM     14  C   UNL     1     147.360 115.241 113.047  0.00  0.00    +0.000 C 
ATOM     15  C   UNL     1     145.648 113.344 113.195  0.00  0.00    +0.000 C 
ENDROOT
BRANCH   4  16
ATOM     16  O   UNL     1     139.829 113.877 112.420  0.00  0.00    +0.000 OA
ATOM     17  H   UNL     1     140.295 113.381 113.119  0.00  0.00    +0.000 HD
ENDBRANCH   4  16
BRANCH  13  18
ATOM     18  O   UNL     1     147.334 113.698 110.463  0.00  0.00    +0.000 OA
ATOM     19  H   UNL     1     147.655 113.020 111.084  0.00  0.00    +0.000 HD
ENDBRANCH  13  18
BRANCH   3  20
ATOM     20  C   UNL     1     140.918 114.659 109.929  0.00  0.00    +0.000 C 
ATOM     21  C   UNL     1     140.396 114.153 108.581  0.00  0.00    +0.000 C 
BRANCH  21  25
ATOM     22  C   UNL     1     140.930 112.910 106.382  0.00  0.00    +0.000 A 
ATOM     23  C   UNL     1     140.406 112.344 105.006  0.00  0.00    +0.000 A 
ATOM     24  C   UNL     1     142.445 112.758 106.823  0.00  0.00    +0.000 C 
ATOM     25  C   UNL     1     139.952 113.653 107.318  0.00  0.00    +0.000 A 
ATOM     26  C   UNL     1     141.195 111.553 103.937  0.00  0.00    +0.000 C 
ATOM     27  C   UNL     1     143.092 112.049 105.714  0.00  0.00    +0.000 C 
ATOM     28  C   UNL     1     142.563 111.505 104.415  0.00  0.00    +0.000 C 
ATOM     29  C   UNL     1     139.036 112.689 104.812  0.00  0.00    +0.000 A 
ATOM     30  C   UNL     1     138.527 113.902 106.964  0.00  0.00    +0.000 A 
ATOM     31  C   UNL     1     142.531 111.893 108.103  0.00  0.00    +0.000 C 
ATOM     32  C   UNL     1     143.091 114.151 106.979  0.00  0.00    +0.000 C 
ATOM     33  C   UNL     1     138.193 113.439 105.802  0.00  0.00    +0.000 A 
ATOM     34  C   UNL     1     140.586 110.178 103.701  0.00  0.00    +0.000 C 
ATOM     35  C   UNL     1     137.480 114.491 107.864  0.00  0.00    +0.000 C 
BRANCH  26  36
ATOM     36  O   UNL     1     141.146 112.241 102.713  0.00  0.00    +0.000 OA
ATOM     37  H   UNL     1     141.021 113.158 103.020  0.00  0.00    +0.000 HD
ENDBRANCH  26  36
ENDBRANCH  21  25
ENDBRANCH   3  20
TORSDOF 5
ENDMDL
MODEL 4
REMARK VINA RESULT:      -6.5     38.014     42.145
REMARK  Name = 44234954_SipholenolL.pdbqt.pdb
REMARK  5 active torsions:
REMARK  status: ('A' for Active; 'I' for Inactive)
REMARK    1  A    between atoms: C_3  and  C_20
REMARK    2  A    between atoms: C_4  and  O_16
REMARK    3  A    between atoms: C_13  and  O_18
REMARK    4  A    between atoms: C_21  and  C_25
REMARK    5  A    between atoms: C_26  and  O_36
REMARK                            x       y       z     vdW  Elec       q    Type
REMARK                         _______ _______ _______ _____ _____    ______ ____
ROOT
ATOM      1  O   UNL     1     142.543 138.401 102.826  0.00  0.00    +0.000 OA
ATOM      2  C   UNL     1     140.803 138.632 100.900  0.00  0.00    +0.000 C 
ATOM      3  C   UNL     1     139.302 138.640 100.602  0.00  0.00    +0.000 C 
ATOM      4  C   UNL     1     138.372 139.469 101.468  0.00  0.00    +0.000 C 
ATOM      5  C   UNL     1     141.217 138.617 102.437  0.00  0.00    +0.000 C 
ATOM      6  C   UNL     1     141.429 137.386 100.430  0.00  0.00    +0.000 C 
ATOM      7  C   UNL     1     138.989 139.648 102.769  0.00  0.00    +0.000 C 
ATOM      8  C   UNL     1     140.325 139.266 103.315  0.00  0.00    +0.000 C 
ATOM      9  C   UNL     1     141.479 139.853 100.224  0.00  0.00    +0.000 C 
ATOM     10  C   UNL     1     142.422 136.337 100.861  0.00  0.00    +0.000 C 
ATOM     11  C   UNL     1     142.968 137.056 103.253  0.00  0.00    +0.000 C 
ATOM     12  C   UNL     1     137.961 140.771 100.786  0.00  0.00    +0.000 C 
ATOM     13  C   UNL     1     143.172 136.094 102.035  0.00  0.00    +0.000 C 
ATOM     14  C   UNL     1     144.330 137.257 103.970  0.00  0.00    +0.000 C 
ATOM     15  C   UNL     1     141.925 136.420 104.224  0.00  0.00    +0.000 C 
ENDROOT
BRANCH   4  16
ATOM     16  O   UNL     1     137.165 138.757 101.650  0.00  0.00    +0.000 OA
ATOM     17  H   UNL     1     137.196 138.149 100.888  0.00  0.00    +0.000 HD
ENDBRANCH   4  16
BRANCH  13  18
ATOM     18  O   UNL     1     143.880 134.904 102.149  0.00  0.00    +0.000 OA
ATOM     19  H   UNL     1     143.312 134.121 102.036  0.00  0.00    +0.000 HD
ENDBRANCH  13  18
BRANCH   3  20
ATOM     20  C   UNL     1     138.771 137.923  99.475  0.00  0.00    +0.000 C 
ATOM     21  C   UNL     1     138.172 137.168  98.284  0.00  0.00    +0.000 C 
BRANCH  21  25
ATOM     22  C   UNL     1     136.118 135.977  97.270  0.00  0.00    +0.000 A 
ATOM     23  C   UNL     1     135.470 135.259  96.023  0.00  0.00    +0.000 A 
ATOM     24  C   UNL     1     135.325 136.163  98.630  0.00  0.00    +0.000 C 
ATOM     25  C   UNL     1     137.571 136.492  97.177  0.00  0.00    +0.000 A 
ATOM     26  C   UNL     1     134.038 134.693  95.886  0.00  0.00    +0.000 C 
ATOM     27  C   UNL     1     134.017 135.545  98.392  0.00  0.00    +0.000 C 
ATOM     28  C   UNL     1     133.418 134.878  97.184  0.00  0.00    +0.000 C 
ATOM     29  C   UNL     1     136.419 135.141  94.965  0.00  0.00    +0.000 A 
ATOM     30  C   UNL     1     138.418 136.307  95.966  0.00  0.00    +0.000 A 
ATOM     31  C   UNL     1     135.133 137.672  98.918  0.00  0.00    +0.000 C 
ATOM     32  C   UNL     1     136.044 135.409  99.768  0.00  0.00    +0.000 C 
ATOM     33  C   UNL     1     137.821 135.674  95.008  0.00  0.00    +0.000 A 
ATOM     34  C   UNL     1     133.281 135.368  94.751  0.00  0.00    +0.000 C 
ATOM     35  C   UNL     1     139.783 136.890  95.742  0.00  0.00    +0.000 C 
BRANCH  26  36
ATOM     36  O   UNL     1     134.101 133.323  95.583  0.00  0.00    +0.000 OA
ATOM     37  H   UNL     1     134.602 132.987  96.349  0.00  0.00    +0.000 HD
ENDBRANCH  26  36
ENDBRANCH  21  25
ENDBRANCH   3  20
TORSDOF 5
ENDMDL
MODEL 5
REMARK VINA RESULT:      -6.4     29.087     32.979
REMARK  Name = 44234954_SipholenolL.pdbqt.pdb
REMARK  5 active torsions:
REMARK  status: ('A' for Active; 'I' for Inactive)
REMARK    1  A    between atoms: C_3  and  C_20
REMARK    2  A    between atoms: C_4  and  O_16
REMARK    3  A    between atoms: C_13  and  O_18
REMARK    4  A    between atoms: C_21  and  C_25
REMARK    5  A    between atoms: C_26  and  O_36
REMARK                            x       y       z     vdW  Elec       q    Type
REMARK                         _______ _______ _______ _____ _____    ______ ____
ROOT
ATOM      1  O   UNL     1     144.812 114.757 105.654  0.00  0.00    +0.000 OA
ATOM      2  C   UNL     1     146.875 114.796 107.245  0.00  0.00    +0.000 C 
ATOM      3  C   UNL     1     148.030 113.941 107.772  0.00  0.00    +0.000 C 
ATOM      4  C   UNL     1     148.865 113.129 106.798  0.00  0.00    +0.000 C 
ATOM      5  C   UNL     1     146.008 114.163 106.070  0.00  0.00    +0.000 C 
ATOM      6  C   UNL     1     145.846 114.989 108.279  0.00  0.00    +0.000 C 
ATOM      7  C   UNL     1     148.064 112.858 105.618  0.00  0.00    +0.000 C 
ATOM      8  C   UNL     1     146.700 113.297 105.200  0.00  0.00    +0.000 C 
ATOM      9  C   UNL     1     147.414 116.170 106.770  0.00  0.00    +0.000 C 
ATOM     10  C   UNL     1     144.349 114.983 108.459  0.00  0.00    +0.000 C 
ATOM     11  C   UNL     1     143.528 114.239 106.155  0.00  0.00    +0.000 C 
ATOM     12  C   UNL     1     150.208 113.791 106.504  0.00  0.00    +0.000 C 
ATOM     13  C   UNL     1     143.244 114.702 107.623  0.00  0.00    +0.000 C 
ATOM     14  C   UNL     1     142.442 114.837 105.219  0.00  0.00    +0.000 C 
ATOM     15  C   UNL     1     143.495 112.680 106.107  0.00  0.00    +0.000 C 
ENDROOT
BRANCH   4  16
ATOM     16  O   UNL     1     149.192 111.894 107.400  0.00  0.00    +0.000 OA
ATOM     17  H   UNL     1     148.354 111.684 107.852  0.00  0.00    +0.000 HD
ENDBRANCH   4  16
BRANCH  13  18
ATOM     18  O   UNL     1     141.975 114.630 108.185  0.00  0.00    +0.000 OA
ATOM     19  H   UNL     1     141.410 113.971 107.743  0.00  0.00    +0.000 HD
ENDBRANCH  13  18
BRANCH   3  20
ATOM     20  C   UNL     1     148.373 113.945 109.168  0.00  0.00    +0.000 C 
ATOM     21  C   UNL     1     148.740 113.985 110.655  0.00  0.00    +0.000 C 
BRANCH  21  25
ATOM     22  C   UNL     1     150.434 113.568 112.558  0.00  0.00    +0.000 A 
ATOM     23  C   UNL     1     150.780 113.701 114.091  0.00  0.00    +0.000 A 
ATOM     24  C   UNL     1     151.443 112.908 111.529  0.00  0.00    +0.000 C 
ATOM     25  C   UNL     1     149.067 114.070 112.043  0.00  0.00    +0.000 A 
ATOM     26  C   UNL     1     152.084 113.292 114.814  0.00  0.00    +0.000 C 
ATOM     27  C   UNL     1     152.604 112.518 112.336  0.00  0.00    +0.000 C 
ATOM     28  C   UNL     1     152.915 112.671 113.801  0.00  0.00    +0.000 C 
ATOM     29  C   UNL     1     149.674 114.244 114.809  0.00  0.00    +0.000 A 
ATOM     30  C   UNL     1     148.028 114.646 112.941  0.00  0.00    +0.000 A 
ATOM     31  C   UNL     1     151.880 113.959 110.481  0.00  0.00    +0.000 C 
ATOM     32  C   UNL     1     150.812 111.645 110.906  0.00  0.00    +0.000 C 
ATOM     33  C   UNL     1     148.380 114.680 114.187  0.00  0.00    +0.000 A 
ATOM     34  C   UNL     1     152.743 114.487 115.488  0.00  0.00    +0.000 C 
ATOM     35  C   UNL     1     146.736 115.278 112.511  0.00  0.00    +0.000 C 
BRANCH  26  36
ATOM     36  O   UNL     1     151.791 112.359 115.822  0.00  0.00    +0.000 OA
ATOM     37  H   UNL     1     151.017 111.908 115.437  0.00  0.00    +0.000 HD
ENDBRANCH  26  36
ENDBRANCH  21  25
ENDBRANCH   3  20
TORSDOF 5
ENDMDL
MODEL 6
REMARK VINA RESULT:      -6.4     20.421     25.067
REMARK  Name = 44234954_SipholenolL.pdbqt.pdb
REMARK  5 active torsions:
REMARK  status: ('A' for Active; 'I' for Inactive)
REMARK    1  A    between atoms: C_3  and  C_20
REMARK    2  A    between atoms: C_4  and  O_16
REMARK    3  A    between atoms: C_13  and  O_18
REMARK    4  A    between atoms: C_21  and  C_25
REMARK    5  A    between atoms: C_26  and  O_36
REMARK                            x       y       z     vdW  Elec       q    Type
REMARK                         _______ _______ _______ _____ _____    ______ ____
ROOT
ATOM      1  O   UNL     1     139.097 112.473 120.909  0.00  0.00    +0.000 OA
ATOM      2  C   UNL     1     138.354 114.026 118.952  0.00  0.00    +0.000 C 
ATOM      3  C   UNL     1     137.427 114.104 117.737  0.00  0.00    +0.000 C 
ATOM      4  C   UNL     1     135.978 113.673 117.873  0.00  0.00    +0.000 C 
ATOM      5  C   UNL     1     138.176 112.756 119.895  0.00  0.00    +0.000 C 
ATOM      6  C   UNL     1     139.757 113.871 118.537  0.00  0.00    +0.000 C 
ATOM      7  C   UNL     1     135.879 112.727 118.969  0.00  0.00    +0.000 C 
ATOM      8  C   UNL     1     136.871 112.228 119.967  0.00  0.00    +0.000 C 
ATOM      9  C   UNL     1     138.195 115.303 119.817  0.00  0.00    +0.000 C 
ATOM     10  C   UNL     1     141.001 113.090 118.877  0.00  0.00    +0.000 C 
ATOM     11  C   UNL     1     140.158 111.479 120.673  0.00  0.00    +0.000 C 
ATOM     12  C   UNL     1     135.033 114.866 117.988  0.00  0.00    +0.000 C 
ATOM     13  C   UNL     1     141.313 112.055 119.788  0.00  0.00    +0.000 C 
ATOM     14  C   UNL     1     140.724 111.132 122.077  0.00  0.00    +0.000 C 
ATOM     15  C   UNL     1     139.586 110.202 119.982  0.00  0.00    +0.000 C 
ENDROOT
BRANCH   4  16
ATOM     16  O   UNL     1     135.587 113.012 116.687  0.00  0.00    +0.000 OA
ATOM     17  H   UNL     1     134.761 112.585 116.980  0.00  0.00    +0.000 HD
ENDBRANCH   4  16
BRANCH  13  18
ATOM     18  O   UNL     1     142.557 111.440 119.710  0.00  0.00    +0.000 OA
ATOM     19  H   UNL     1     143.133 111.671 120.460  0.00  0.00    +0.000 HD
ENDBRANCH  13  18
BRANCH   3  20
ATOM     20  C   UNL     1     137.894 114.638 116.487  0.00  0.00    +0.000 C 
ATOM     21  C   UNL     1     138.421 115.220 115.171  0.00  0.00    +0.000 C 
BRANCH  21  25
ATOM     22  C   UNL     1     140.409 115.442 113.540  0.00  0.00    +0.000 A 
ATOM     23  C   UNL     1     140.968 116.031 112.187  0.00  0.00    +0.000 A 
ATOM     24  C   UNL     1     141.305 114.546 114.492  0.00  0.00    +0.000 C 
ATOM     25  C   UNL     1     138.959 115.762 113.963  0.00  0.00    +0.000 A 
ATOM     26  C   UNL     1     142.366 115.821 111.561  0.00  0.00    +0.000 C 
ATOM     27  C   UNL     1     142.607 114.468 113.823  0.00  0.00    +0.000 C 
ATOM     28  C   UNL     1     143.111 115.029 112.521  0.00  0.00    +0.000 C 
ATOM     29  C   UNL     1     139.996 116.870 111.567  0.00  0.00    +0.000 A 
ATOM     30  C   UNL     1     138.061 116.645 113.168  0.00  0.00    +0.000 A 
ATOM     31  C   UNL     1     140.697 113.127 114.597  0.00  0.00    +0.000 C 
ATOM     32  C   UNL     1     141.479 115.241 115.860  0.00  0.00    +0.000 C 
ATOM     33  C   UNL     1     138.614 117.116 112.096  0.00  0.00    +0.000 A 
ATOM     34  C   UNL     1     142.268 115.173 110.187  0.00  0.00    +0.000 C 
ATOM     35  C   UNL     1     136.606 116.899 113.433  0.00  0.00    +0.000 C 
BRANCH  26  36
ATOM     36  O   UNL     1     142.995 117.065 111.387  0.00  0.00    +0.000 OA
ATOM     37  H   UNL     1     142.235 117.670 111.472  0.00  0.00    +0.000 HD
ENDBRANCH  26  36
ENDBRANCH  21  25
ENDBRANCH   3  20
TORSDOF 5
ENDMDL
MODEL 7
REMARK VINA RESULT:      -6.2     23.745     27.661
REMARK  Name = 44234954_SipholenolL.pdbqt.pdb
REMARK  5 active torsions:
REMARK  status: ('A' for Active; 'I' for Inactive)
REMARK    1  A    between atoms: C_3  and  C_20
REMARK    2  A    between atoms: C_4  and  O_16
REMARK    3  A    between atoms: C_13  and  O_18
REMARK    4  A    between atoms: C_21  and  C_25
REMARK    5  A    between atoms: C_26  and  O_36
REMARK                            x       y       z     vdW  Elec       q    Type
REMARK                         _______ _______ _______ _____ _____    ______ ____
ROOT
ATOM      1  O   UNL     1     148.808 112.264 113.484  0.00  0.00    +0.000 OA
ATOM      2  C   UNL     1     150.142 112.642 115.691  0.00  0.00    +0.000 C 
ATOM      3  C   UNL     1     150.155 112.310 117.185  0.00  0.00    +0.000 C 
ATOM      4  C   UNL     1     149.921 110.880 117.635  0.00  0.00    +0.000 C 
ATOM      5  C   UNL     1     149.049 111.891 114.810  0.00  0.00    +0.000 C 
ATOM      6  C   UNL     1     149.767 114.046 115.464  0.00  0.00    +0.000 C 
ATOM      7  C   UNL     1     149.159 110.192 116.610  0.00  0.00    +0.000 C 
ATOM      8  C   UNL     1     148.694 110.600 115.251  0.00  0.00    +0.000 C 
ATOM      9  C   UNL     1     151.540 112.361 115.079  0.00  0.00    +0.000 C 
ATOM     10  C   UNL     1     148.901 114.899 114.571  0.00  0.00    +0.000 C 
ATOM     11  C   UNL     1     147.673 113.148 113.171  0.00  0.00    +0.000 C 
ATOM     12  C   UNL     1     151.220 110.181 118.025  0.00  0.00    +0.000 C 
ATOM     13  C   UNL     1     147.977 114.641 113.533  0.00  0.00    +0.000 C 
ATOM     14  C   UNL     1     147.466 113.034 111.636  0.00  0.00    +0.000 C 
ATOM     15  C   UNL     1     146.386 112.701 113.933  0.00  0.00    +0.000 C 
ENDROOT
BRANCH   4  16
ATOM     16  O   UNL     1     149.148 110.897 118.819  0.00  0.00    +0.000 OA
ATOM     17  H   UNL     1     149.851 110.886 119.495  0.00  0.00    +0.000 HD
ENDBRANCH   4  16
BRANCH  13  18
ATOM     18  O   UNL     1     147.216 115.689 113.031  0.00  0.00    +0.000 OA
ATOM     19  H   UNL     1     147.502 116.554 113.375  0.00  0.00    +0.000 HD
ENDBRANCH  13  18
BRANCH   3  20
ATOM     20  C   UNL     1     150.448 113.323 118.162  0.00  0.00    +0.000 C 
ATOM     21  C   UNL     1     150.772 114.377 119.225  0.00  0.00    +0.000 C 
BRANCH  21  25
ATOM     22  C   UNL     1     152.453 116.084 120.188  0.00  0.00    +0.000 A 
ATOM     23  C   UNL     1     152.784 117.149 121.304  0.00  0.00    +0.000 A 
ATOM     24  C   UNL     1     153.476 115.749 119.025  0.00  0.00    +0.000 C 
ATOM     25  C   UNL     1     151.107 115.328 120.238  0.00  0.00    +0.000 A 
ATOM     26  C   UNL     1     154.046 118.032 121.435  0.00  0.00    +0.000 C 
ATOM     27  C   UNL     1     154.640 116.601 119.288  0.00  0.00    +0.000 C 
ATOM     28  C   UNL     1     154.925 117.623 120.356  0.00  0.00    +0.000 C 
ATOM     29  C   UNL     1     151.742 117.196 122.276  0.00  0.00    +0.000 A 
ATOM     30  C   UNL     1     150.109 115.527 121.325  0.00  0.00    +0.000 A 
ATOM     31  C   UNL     1     152.858 116.135 117.660  0.00  0.00    +0.000 C 
ATOM     32  C   UNL     1     153.903 114.268 119.108  0.00  0.00    +0.000 C 
ATOM     33  C   UNL     1     150.479 116.388 122.219  0.00  0.00    +0.000 A 
ATOM     34  C   UNL     1     153.694 119.513 121.400  0.00  0.00    +0.000 C 
ATOM     35  C   UNL     1     148.729 114.940 121.379  0.00  0.00    +0.000 C 
BRANCH  26  36
ATOM     36  O   UNL     1     154.668 117.784 122.670  0.00  0.00    +0.000 OA
ATOM     37  H   UNL     1     153.977 117.267 123.124  0.00  0.00    +0.000 HD
ENDBRANCH  26  36
ENDBRANCH  21  25
ENDBRANCH   3  20
TORSDOF 5
ENDMDL
MODEL 8
REMARK VINA RESULT:      -6.2     36.641     41.930
REMARK  Name = 44234954_SipholenolL.pdbqt.pdb
REMARK  5 active torsions:
REMARK  status: ('A' for Active; 'I' for Inactive)
REMARK    1  A    between atoms: C_3  and  C_20
REMARK    2  A    between atoms: C_4  and  O_16
REMARK    3  A    between atoms: C_13  and  O_18
REMARK    4  A    between atoms: C_21  and  C_25
REMARK    5  A    between atoms: C_26  and  O_36
REMARK                            x       y       z     vdW  Elec       q    Type
REMARK                         _______ _______ _______ _____ _____    ______ ____
ROOT
ATOM      1  O   UNL     1     135.921 113.399 102.813  0.00  0.00    +0.000 OA
ATOM      2  C   UNL     1     137.107 112.756 100.583  0.00  0.00    +0.000 C 
ATOM      3  C   UNL     1     138.468 112.734  99.883  0.00  0.00    +0.000 C 
ATOM      4  C   UNL     1     139.679 112.193 100.620  0.00  0.00    +0.000 C 
ATOM      5  C   UNL     1     137.113 113.146 102.126  0.00  0.00    +0.000 C 
ATOM      6  C   UNL     1     136.246 113.814 100.031  0.00  0.00    +0.000 C 
ATOM      7  C   UNL     1     139.450 112.326 102.046  0.00  0.00    +0.000 C 
ATOM      8  C   UNL     1     138.271 112.779 102.842  0.00  0.00    +0.000 C 
ATOM      9  C   UNL     1     136.416 111.376 100.430  0.00  0.00    +0.000 C 
ATOM     10  C   UNL     1     135.291 114.896 100.469  0.00  0.00    +0.000 C 
ATOM     11  C   UNL     1     135.478 114.789 103.016  0.00  0.00    +0.000 C 
ATOM     12  C   UNL     1     140.036 110.778 100.173  0.00  0.00    +0.000 C 
ATOM     13  C   UNL     1     134.855 115.399 101.716  0.00  0.00    +0.000 C 
ATOM     14  C   UNL     1     134.383 114.721 104.115  0.00  0.00    +0.000 C 
ATOM     15  C   UNL     1     136.663 115.694 103.476  0.00  0.00    +0.000 C 
ENDROOT
BRANCH   4  16
ATOM     16  O   UNL     1     140.805 112.977 100.281  0.00  0.00    +0.000 OA
ATOM     17  H   UNL     1     141.518 112.316 100.362  0.00  0.00    +0.000 HD
ENDBRANCH   4  16
BRANCH  13  18
ATOM     18  O   UNL     1     134.075 116.549 101.744  0.00  0.00    +0.000 OA
ATOM     19  H   UNL     1     133.404 116.525 102.449  0.00  0.00    +0.000 HD
ENDBRANCH  13  18
BRANCH   3  20
ATOM     20  C   UNL     1     138.601 113.162  98.517  0.00  0.00    +0.000 C 
ATOM     21  C   UNL     1     138.734 113.585  97.051  0.00  0.00    +0.000 C 
BRANCH  21  25
ATOM     22  C   UNL     1     137.676 113.613  94.696  0.00  0.00    +0.000 A 
ATOM     23  C   UNL     1     137.796 114.042  93.182  0.00  0.00    +0.000 A 
ATOM     24  C   UNL     1     136.408 112.835  95.243  0.00  0.00    +0.000 C 
ATOM     25  C   UNL     1     138.829 113.939  95.669  0.00  0.00    +0.000 A 
ATOM     26  C   UNL     1     136.763 113.843  92.049  0.00  0.00    +0.000 C 
ATOM     27  C   UNL     1     135.538 112.661  94.076  0.00  0.00    +0.000 C 
ATOM     28  C   UNL     1     135.671 113.095  92.641  0.00  0.00    +0.000 C 
ATOM     29  C   UNL     1     139.064 114.644  92.932  0.00  0.00    +0.000 A 
ATOM     30  C   UNL     1     140.087 114.610  95.236  0.00  0.00    +0.000 A 
ATOM     31  C   UNL     1     135.681 113.700  96.300  0.00  0.00    +0.000 C 
ATOM     32  C   UNL     1     136.830 111.447  95.772  0.00  0.00    +0.000 C 
ATOM     33  C   UNL     1     140.117 114.889  93.973  0.00  0.00    +0.000 A 
ATOM     34  C   UNL     1     136.330 115.175  91.452  0.00  0.00    +0.000 C 
ATOM     35  C   UNL     1     141.193 115.082  96.134  0.00  0.00    +0.000 C 
BRANCH  26  36
ATOM     36  O   UNL     1     137.341 113.094  91.011  0.00  0.00    +0.000 OA
ATOM     37  H   UNL     1     136.736 112.331  90.974  0.00  0.00    +0.000 HD
ENDBRANCH  26  36
ENDBRANCH  21  25
ENDBRANCH   3  20
TORSDOF 5
ENDMDL
MODEL 9
REMARK VINA RESULT:      -6.1     40.035     45.622
REMARK  Name = 44234954_SipholenolL.pdbqt.pdb
REMARK  5 active torsions:
REMARK  status: ('A' for Active; 'I' for Inactive)
REMARK    1  A    between atoms: C_3  and  C_20
REMARK    2  A    between atoms: C_4  and  O_16
REMARK    3  A    between atoms: C_13  and  O_18
REMARK    4  A    between atoms: C_21  and  C_25
REMARK    5  A    between atoms: C_26  and  O_36
REMARK                            x       y       z     vdW  Elec       q    Type
REMARK                         _______ _______ _______ _____ _____    ______ ____
ROOT
ATOM      1  O   UNL     1     143.529 128.889  89.643  0.00  0.00    +0.000 OA
ATOM      2  C   UNL     1     144.197 126.934  91.231  0.00  0.00    +0.000 C 
ATOM      3  C   UNL     1     144.065 125.423  91.433  0.00  0.00    +0.000 C 
ATOM      4  C   UNL     1     144.315 124.487  90.265  0.00  0.00    +0.000 C 
ATOM      5  C   UNL     1     143.651 127.512  89.852  0.00  0.00    +0.000 C 
ATOM      6  C   UNL     1     143.363 127.671  92.193  0.00  0.00    +0.000 C 
ATOM      7  C   UNL     1     144.071 125.212  89.032  0.00  0.00    +0.000 C 
ATOM      8  C   UNL     1     143.740 126.640  88.748  0.00  0.00    +0.000 C 
ATOM      9  C   UNL     1     145.682 127.356  91.384  0.00  0.00    +0.000 C 
ATOM     10  C   UNL     1     142.416 128.842  92.268  0.00  0.00    +0.000 C 
ATOM     11  C   UNL     1     142.220 129.540  89.817  0.00  0.00    +0.000 C 
ATOM     12  C   UNL     1     145.689 123.828  90.343  0.00  0.00    +0.000 C 
ATOM     13  C   UNL     1     141.863 129.741  91.328  0.00  0.00    +0.000 C 
ATOM     14  C   UNL     1     142.353 130.932  89.141  0.00  0.00    +0.000 C 
ATOM     15  C   UNL     1     141.085 128.708  89.141  0.00  0.00    +0.000 C 
ENDROOT
BRANCH   4  16
ATOM     16  O   UNL     1     143.394 123.417  90.335  0.00  0.00    +0.000 OA
ATOM     17  H   UNL     1     142.884 123.668  91.127  0.00  0.00    +0.000 HD
ENDBRANCH   4  16
BRANCH  13  18
ATOM     18  O   UNL     1     140.864 130.616  91.738  0.00  0.00    +0.000 OA
ATOM     19  H   UNL     1     140.010 130.432  91.309  0.00  0.00    +0.000 HD
ENDBRANCH  13  18
BRANCH   3  20
ATOM     20  C   UNL     1     143.769 124.876  92.730  0.00  0.00    +0.000 C 
ATOM     21  C   UNL     1     143.475 124.266  94.104  0.00  0.00    +0.000 C 
BRANCH  21  25
ATOM     22  C   UNL     1     142.761 124.531  96.571  0.00  0.00    +0.000 A 
ATOM     23  C   UNL     1     142.486 123.841  97.964  0.00  0.00    +0.000 A 
ATOM     24  C   UNL     1     142.579 126.091  96.363  0.00  0.00    +0.000 C 
ATOM     25  C   UNL     1     143.243 123.671  95.382  0.00  0.00    +0.000 A 
ATOM     26  C   UNL     1     141.979 124.497  99.269  0.00  0.00    +0.000 C 
ATOM     27  C   UNL     1     142.154 126.600  97.670  0.00  0.00    +0.000 C 
ATOM     28  C   UNL     1     141.883 125.916  98.983  0.00  0.00    +0.000 C 
ATOM     29  C   UNL     1     142.810 122.454  97.908  0.00  0.00    +0.000 A 
ATOM     30  C   UNL     1     143.505 122.209  95.496  0.00  0.00    +0.000 A 
ATOM     31  C   UNL     1     141.461 126.351  95.324  0.00  0.00    +0.000 C 
ATOM     32  C   UNL     1     143.930 126.734  95.983  0.00  0.00    +0.000 C 
ATOM     33  C   UNL     1     143.292 121.735  96.682  0.00  0.00    +0.000 A 
ATOM     34  C   UNL     1     140.664 123.881  99.725  0.00  0.00    +0.000 C 
ATOM     35  C   UNL     1     143.842 121.278  94.368  0.00  0.00    +0.000 C 
BRANCH  26  36
ATOM     36  O   UNL     1     142.913 124.284 100.296  0.00  0.00    +0.000 OA
ATOM     37  H   UNL     1     142.339 124.332 101.082  0.00  0.00    +0.000 HD
ENDBRANCH  26  36
ENDBRANCH  21  25
ENDBRANCH   3  20
TORSDOF 5
ENDMDL
