MODEL 1
REMARK VINA RESULT:      -6.0      0.000      0.000
REMARK  Name = 442793_6gingerol.pdbqt.pdb
REMARK  7 active torsions:
REMARK  status: ('A' for Active; 'I' for Inactive)
REMARK    1  A    between atoms: C_1  and  C_3
REMARK    2  A    between atoms: C_5  and  O_6
REMARK    3  A    between atoms: C_5  and  C_8
REMARK    4  A    between atoms: C_9  and  C_10
REMARK    5  A    between atoms: C_13  and  C_14
REMARK    6  A    between atoms: C_17  and  O_20
REMARK    7  A    between atoms: C_19  and  O_22
REMARK                            x       y       z     vdW  Elec       q    Type
REMARK                         _______ _______ _______ _____ _____    ______ ____
ROOT
ATOM      1  C   UNL     1     141.876 122.452 134.039  0.00  0.00    +0.000 C 
ATOM      2  C   UNL     1     140.396 122.821 134.205  0.00  0.00    +0.000 C 
ENDROOT
BRANCH   2   3
ATOM      3  C   UNL     1     139.022 123.163 134.356  0.00  0.00    +0.000 A 
ATOM      4  C   UNL     1     138.297 122.660 135.435  0.00  0.00    +0.000 A 
ATOM      5  C   UNL     1     138.407 123.996 133.426  0.00  0.00    +0.000 A 
ATOM      6  C   UNL     1     136.947 122.985 135.596  0.00  0.00    +0.000 A 
ATOM      7  C   UNL     1     137.063 124.329 133.574  0.00  0.00    +0.000 A 
ATOM      8  C   UNL     1     136.341 123.823 134.655  0.00  0.00    +0.000 A 
BRANCH   6   9
ATOM      9  O   UNL     1     136.159 122.534 136.627  0.00  0.00    +0.000 OA
ATOM     10  C   UNL     1     136.471 121.255 137.112  0.00  0.00    +0.000 C 
ENDBRANCH   6   9
BRANCH   8  11
ATOM     11  O   UNL     1     135.022 124.154 134.795  0.00  0.00    +0.000 OA
ATOM     12  H   UNL     1     134.719 124.586 133.975  0.00  0.00    +0.000 HD
ENDBRANCH   8  11
ENDBRANCH   2   3
BRANCH   1  14
ATOM     13  O   UNL     1     143.851 122.362 132.841  0.00  0.00    +0.000 OA
ATOM     14  C   UNL     1     143.265 122.104 133.881  0.00  0.00    +0.000 C 
ATOM     15  C   UNL     1     143.956 121.449 134.957  0.00  0.00    +0.000 C 
ATOM     16  C   UNL     1     144.639 120.802 136.010  0.00  0.00    +0.000 C 
BRANCH  16  17
ATOM     17  O   UNL     1     144.023 120.772 137.238  0.00  0.00    +0.000 OA
ATOM     18  H   UNL     1     143.198 120.255 137.216  0.00  0.00    +0.000 HD
ENDBRANCH  16  17
BRANCH  16  19
ATOM     19  C   UNL     1     145.908 120.191 135.864  0.00  0.00    +0.000 C 
ATOM     20  C   UNL     1     147.286 119.538 135.710  0.00  0.00    +0.000 C 
BRANCH  20  21
ATOM     21  C   UNL     1     148.666 118.891 135.558  0.00  0.00    +0.000 C 
ATOM     22  C   UNL     1     150.046 118.243 135.408  0.00  0.00    +0.000 C 
ATOM     23  C   UNL     1     151.426 117.594 135.264  0.00  0.00    +0.000 C 
ENDBRANCH  20  21
ENDBRANCH  16  19
ENDBRANCH   1  14
TORSDOF 7
ENDMDL
MODEL 2
REMARK VINA RESULT:      -5.3     36.828     38.483
REMARK  Name = 442793_6gingerol.pdbqt.pdb
REMARK  7 active torsions:
REMARK  status: ('A' for Active; 'I' for Inactive)
REMARK    1  A    between atoms: C_1  and  C_3
REMARK    2  A    between atoms: C_5  and  O_6
REMARK    3  A    between atoms: C_5  and  C_8
REMARK    4  A    between atoms: C_9  and  C_10
REMARK    5  A    between atoms: C_13  and  C_14
REMARK    6  A    between atoms: C_17  and  O_20
REMARK    7  A    between atoms: C_19  and  O_22
REMARK                            x       y       z     vdW  Elec       q    Type
REMARK                         _______ _______ _______ _____ _____    ______ ____
ROOT
ATOM      1  C   UNL     1     146.774 125.739  97.850  0.00  0.00    +0.000 C 
ATOM      2  C   UNL     1     145.890 125.843  99.100  0.00  0.00    +0.000 C 
ENDROOT
BRANCH   2   3
ATOM      3  C   UNL     1     145.069 125.936 100.260  0.00  0.00    +0.000 A 
ATOM      4  C   UNL     1     144.283 127.069 100.463  0.00  0.00    +0.000 A 
ATOM      5  C   UNL     1     145.056 124.898 101.186  0.00  0.00    +0.000 A 
ATOM      6  C   UNL     1     143.473 127.176 101.597  0.00  0.00    +0.000 A 
ATOM      7  C   UNL     1     144.253 124.991 102.320  0.00  0.00    +0.000 A 
ATOM      8  C   UNL     1     143.468 126.126 102.520  0.00  0.00    +0.000 A 
BRANCH   6   9
ATOM      9  O   UNL     1     142.669 128.254 101.875  0.00  0.00    +0.000 OA
ATOM     10  C   UNL     1     141.945 128.767 100.788  0.00  0.00    +0.000 C 
ENDBRANCH   6   9
BRANCH   8  11
ATOM     11  O   UNL     1     142.682 126.211 103.636  0.00  0.00    +0.000 OA
ATOM     12  H   UNL     1     142.925 127.017 104.128  0.00  0.00    +0.000 HD
ENDBRANCH   8  11
ENDBRANCH   2   3
BRANCH   1  14
ATOM     13  O   UNL     1     148.052 124.556  96.329  0.00  0.00    +0.000 OA
ATOM     14  C   UNL     1     147.604 125.638  96.676  0.00  0.00    +0.000 C 
ATOM     15  C   UNL     1     147.901 126.821  95.918  0.00  0.00    +0.000 C 
ATOM     16  C   UNL     1     148.199 127.982  95.170  0.00  0.00    +0.000 C 
BRANCH  16  17
ATOM     17  O   UNL     1     147.469 129.113  95.442  0.00  0.00    +0.000 OA
ATOM     18  H   UNL     1     147.467 129.323  96.392  0.00  0.00    +0.000 HD
ENDBRANCH  16  17
BRANCH  16  19
ATOM     19  C   UNL     1     149.200 128.035  94.170  0.00  0.00    +0.000 C 
ATOM     20  C   UNL     1     150.288 128.085  93.092  0.00  0.00    +0.000 C 
BRANCH  20  21
ATOM     21  C   UNL     1     151.379 128.130  92.018  0.00  0.00    +0.000 C 
ATOM     22  C   UNL     1     152.469 128.177  90.942  0.00  0.00    +0.000 C 
ATOM     23  C   UNL     1     153.557 128.231  89.865  0.00  0.00    +0.000 C 
ENDBRANCH  20  21
ENDBRANCH  16  19
ENDBRANCH   1  14
TORSDOF 7
ENDMDL
MODEL 3
REMARK VINA RESULT:      -5.2     26.746     28.450
REMARK  Name = 442793_6gingerol.pdbqt.pdb
REMARK  7 active torsions:
REMARK  status: ('A' for Active; 'I' for Inactive)
REMARK    1  A    between atoms: C_1  and  C_3
REMARK    2  A    between atoms: C_5  and  O_6
REMARK    3  A    between atoms: C_5  and  C_8
REMARK    4  A    between atoms: C_9  and  C_10
REMARK    5  A    between atoms: C_13  and  C_14
REMARK    6  A    between atoms: C_17  and  O_20
REMARK    7  A    between atoms: C_19  and  O_22
REMARK                            x       y       z     vdW  Elec       q    Type
REMARK                         _______ _______ _______ _____ _____    ______ ____
ROOT
ATOM      1  C   UNL     1     148.321 114.558 108.009  0.00  0.00    +0.000 C 
ATOM      2  C   UNL     1     147.498 114.562 106.715  0.00  0.00    +0.000 C 
ENDROOT
BRANCH   2   3
ATOM      3  C   UNL     1     146.736 114.564 105.512  0.00  0.00    +0.000 A 
ATOM      4  C   UNL     1     145.352 114.715 105.569  0.00  0.00    +0.000 A 
ATOM      5  C   UNL     1     147.375 114.415 104.285  0.00  0.00    +0.000 A 
ATOM      6  C   UNL     1     144.590 114.718 104.397  0.00  0.00    +0.000 A 
ATOM      7  C   UNL     1     146.629 114.417 103.109  0.00  0.00    +0.000 A 
ATOM      8  C   UNL     1     145.244 114.567 103.171  0.00  0.00    +0.000 A 
BRANCH   6   9
ATOM      9  O   UNL     1     143.224 114.860 104.362  0.00  0.00    +0.000 OA
ATOM     10  C   UNL     1     142.514 114.139 105.334  0.00  0.00    +0.000 C 
ENDBRANCH   6   9
BRANCH   8  11
ATOM     11  O   UNL     1     144.516 114.568 102.013  0.00  0.00    +0.000 OA
ATOM     12  H   UNL     1     144.968 115.136 101.361  0.00  0.00    +0.000 HD
ENDBRANCH   8  11
ENDBRANCH   2   3
BRANCH   1  14
ATOM     13  O   UNL     1     150.306 114.386 109.184  0.00  0.00    +0.000 OA
ATOM     14  C   UNL     1     149.096 114.551 109.224  0.00  0.00    +0.000 C 
ATOM     15  C   UNL     1     148.434 114.738 110.485  0.00  0.00    +0.000 C 
ATOM     16  C   UNL     1     147.788 114.918 111.728  0.00  0.00    +0.000 C 
BRANCH  16  17
ATOM     17  O   UNL     1     146.486 115.357 111.705  0.00  0.00    +0.000 OA
ATOM     18  H   UNL     1     145.995 115.073 112.496  0.00  0.00    +0.000 HD
ENDBRANCH  16  17
BRANCH  16  19
ATOM     19  C   UNL     1     148.407 114.671 112.978  0.00  0.00    +0.000 C 
ATOM     20  C   UNL     1     149.081 114.412 114.330  0.00  0.00    +0.000 C 
BRANCH  20  21
ATOM     21  C   UNL     1     149.757 114.159 115.680  0.00  0.00    +0.000 C 
ATOM     22  C   UNL     1     150.434 113.904 117.031  0.00  0.00    +0.000 C 
ATOM     23  C   UNL     1     151.110 113.641 118.380  0.00  0.00    +0.000 C 
ENDBRANCH  20  21
ENDBRANCH  16  19
ENDBRANCH   1  14
TORSDOF 7
ENDMDL
MODEL 4
REMARK VINA RESULT:      -5.2     36.878     39.404
REMARK  Name = 442793_6gingerol.pdbqt.pdb
REMARK  7 active torsions:
REMARK  status: ('A' for Active; 'I' for Inactive)
REMARK    1  A    between atoms: C_1  and  C_3
REMARK    2  A    between atoms: C_5  and  O_6
REMARK    3  A    between atoms: C_5  and  C_8
REMARK    4  A    between atoms: C_9  and  C_10
REMARK    5  A    between atoms: C_13  and  C_14
REMARK    6  A    between atoms: C_17  and  O_20
REMARK    7  A    between atoms: C_19  and  O_22
REMARK                            x       y       z     vdW  Elec       q    Type
REMARK                         _______ _______ _______ _____ _____    ______ ____
ROOT
ATOM      1  C   UNL     1     142.480 127.957  97.027  0.00  0.00    +0.000 C 
ATOM      2  C   UNL     1     142.732 127.752  98.526  0.00  0.00    +0.000 C 
ENDROOT
BRANCH   2   3
ATOM      3  C   UNL     1     142.965 127.559  99.917  0.00  0.00    +0.000 A 
ATOM      4  C   UNL     1     141.892 127.551 100.806  0.00  0.00    +0.000 A 
ATOM      5  C   UNL     1     144.264 127.380 100.385  0.00  0.00    +0.000 A 
ATOM      6  C   UNL     1     142.105 127.364 102.175  0.00  0.00    +0.000 A 
ATOM      7  C   UNL     1     144.491 127.192 101.746  0.00  0.00    +0.000 A 
ATOM      8  C   UNL     1     143.414 127.185 102.632  0.00  0.00    +0.000 A 
BRANCH   6   9
ATOM      9  O   UNL     1     141.107 127.343 103.118  0.00  0.00    +0.000 OA
ATOM     10  C   UNL     1     140.218 126.259 103.036  0.00  0.00    +0.000 C 
ENDBRANCH   6   9
BRANCH   8  11
ATOM     11  O   UNL     1     143.644 127.000 103.967  0.00  0.00    +0.000 OA
ATOM     12  H   UNL     1     143.866 127.861 104.368  0.00  0.00    +0.000 HD
ENDBRANCH   8  11
ENDBRANCH   2   3
BRANCH   1  14
ATOM     13  O   UNL     1     143.122 127.903  94.806  0.00  0.00    +0.000 OA
ATOM     14  C   UNL     1     142.242 128.147  95.618  0.00  0.00    +0.000 C 
ATOM     15  C   UNL     1     140.963 128.627  95.176  0.00  0.00    +0.000 C 
ATOM     16  C   UNL     1     139.708 129.101  94.735  0.00  0.00    +0.000 C 
BRANCH  16  17
ATOM     17  O   UNL     1     138.680 129.109  95.647  0.00  0.00    +0.000 OA
ATOM     18  H   UNL     1     137.864 129.480  95.269  0.00  0.00    +0.000 HD
ENDBRANCH  16  17
BRANCH  16  19
ATOM     19  C   UNL     1     139.462 129.564  93.420  0.00  0.00    +0.000 C 
ATOM     20  C   UNL     1     139.185 130.063  91.997  0.00  0.00    +0.000 C 
BRANCH  20  21
ATOM     21  C   UNL     1     138.903 130.560  90.576  0.00  0.00    +0.000 C 
ATOM     22  C   UNL     1     138.620 131.055  89.154  0.00  0.00    +0.000 C 
ATOM     23  C   UNL     1     138.333 131.544  87.731  0.00  0.00    +0.000 C 
ENDBRANCH  20  21
ENDBRANCH  16  19
ENDBRANCH   1  14
TORSDOF 7
ENDMDL
MODEL 5
REMARK VINA RESULT:      -5.1     37.772     39.407
REMARK  Name = 442793_6gingerol.pdbqt.pdb
REMARK  7 active torsions:
REMARK  status: ('A' for Active; 'I' for Inactive)
REMARK    1  A    between atoms: C_1  and  C_3
REMARK    2  A    between atoms: C_5  and  O_6
REMARK    3  A    between atoms: C_5  and  C_8
REMARK    4  A    between atoms: C_9  and  C_10
REMARK    5  A    between atoms: C_13  and  C_14
REMARK    6  A    between atoms: C_17  and  O_20
REMARK    7  A    between atoms: C_19  and  O_22
REMARK                            x       y       z     vdW  Elec       q    Type
REMARK                         _______ _______ _______ _____ _____    ______ ____
ROOT
ATOM      1  C   UNL     1     146.261 126.991  96.440  0.00  0.00    +0.000 C 
ATOM      2  C   UNL     1     145.463 127.121  97.743  0.00  0.00    +0.000 C 
ENDROOT
BRANCH   2   3
ATOM      3  C   UNL     1     144.724 127.241  98.954  0.00  0.00    +0.000 A 
ATOM      4  C   UNL     1     145.392 127.487 100.152  0.00  0.00    +0.000 A 
ATOM      5  C   UNL     1     143.338 127.111  98.938  0.00  0.00    +0.000 A 
ATOM      6  C   UNL     1     144.681 127.607 101.350  0.00  0.00    +0.000 A 
ATOM      7  C   UNL     1     142.617 127.228 100.123  0.00  0.00    +0.000 A 
ATOM      8  C   UNL     1     143.289 127.474 101.320  0.00  0.00    +0.000 A 
BRANCH   6   9
ATOM      9  O   UNL     1     145.258 127.848 102.573  0.00  0.00    +0.000 OA
ATOM     10  C   UNL     1     146.653 128.002 102.565  0.00  0.00    +0.000 C 
ENDBRANCH   6   9
BRANCH   8  11
ATOM     11  O   UNL     1     142.575 127.588 102.481  0.00  0.00    +0.000 OA
ATOM     12  H   UNL     1     143.190 127.806 103.206  0.00  0.00    +0.000 HD
ENDBRANCH   8  11
ENDBRANCH   2   3
BRANCH   1  14
ATOM     13  O   UNL     1     146.804 125.941  94.452  0.00  0.00    +0.000 OA
ATOM     14  C   UNL     1     147.014 126.870  95.217  0.00  0.00    +0.000 C 
ATOM     15  C   UNL     1     148.017 127.850  94.904  0.00  0.00    +0.000 C 
ATOM     16  C   UNL     1     149.006 128.809  94.594  0.00  0.00    +0.000 C 
BRANCH  16  17
ATOM     17  O   UNL     1     149.024 129.962  95.340  0.00  0.00    +0.000 OA
ATOM     18  H   UNL     1     148.479 129.883  96.142  0.00  0.00    +0.000 HD
ENDBRANCH  16  17
BRANCH  16  19
ATOM     19  C   UNL     1     149.966 128.641  93.566  0.00  0.00    +0.000 C 
ATOM     20  C   UNL     1     151.012 128.455  92.461  0.00  0.00    +0.000 C 
BRANCH  20  21
ATOM     21  C   UNL     1     152.061 128.268  91.361  0.00  0.00    +0.000 C 
ATOM     22  C   UNL     1     153.112 128.080  90.263  0.00  0.00    +0.000 C 
ATOM     23  C   UNL     1     154.168 127.890  89.169  0.00  0.00    +0.000 C 
ENDBRANCH  20  21
ENDBRANCH  16  19
ENDBRANCH   1  14
TORSDOF 7
ENDMDL
MODEL 6
REMARK VINA RESULT:      -5.1     36.823     39.394
REMARK  Name = 442793_6gingerol.pdbqt.pdb
REMARK  7 active torsions:
REMARK  status: ('A' for Active; 'I' for Inactive)
REMARK    1  A    between atoms: C_1  and  C_3
REMARK    2  A    between atoms: C_5  and  O_6
REMARK    3  A    between atoms: C_5  and  C_8
REMARK    4  A    between atoms: C_9  and  C_10
REMARK    5  A    between atoms: C_13  and  C_14
REMARK    6  A    between atoms: C_17  and  O_20
REMARK    7  A    between atoms: C_19  and  O_22
REMARK                            x       y       z     vdW  Elec       q    Type
REMARK                         _______ _______ _______ _____ _____    ______ ____
ROOT
ATOM      1  C   UNL     1     142.214 127.750  97.182  0.00  0.00    +0.000 C 
ATOM      2  C   UNL     1     142.330 127.387  98.668  0.00  0.00    +0.000 C 
ENDROOT
BRANCH   2   3
ATOM      3  C   UNL     1     142.435 127.048 100.047  0.00  0.00    +0.000 A 
ATOM      4  C   UNL     1     143.664 126.653 100.572  0.00  0.00    +0.000 A 
ATOM      5  C   UNL     1     141.311 127.112 100.865  0.00  0.00    +0.000 A 
ATOM      6  C   UNL     1     143.783 126.317 101.924  0.00  0.00    +0.000 A 
ATOM      7  C   UNL     1     141.415 126.780 102.213  0.00  0.00    +0.000 A 
ATOM      8  C   UNL     1     142.646 126.385 102.735  0.00  0.00    +0.000 A 
BRANCH   6   9
ATOM      9  O   UNL     1     144.953 125.917 102.523  0.00  0.00    +0.000 OA
ATOM     10  C   UNL     1     145.932 125.406 101.658  0.00  0.00    +0.000 C 
ENDBRANCH   6   9
BRANCH   8  11
ATOM     11  O   UNL     1     142.741 126.061 104.060  0.00  0.00    +0.000 OA
ATOM     12  H   UNL     1     141.924 126.345 104.511  0.00  0.00    +0.000 HD
ENDBRANCH   8  11
ENDBRANCH   2   3
BRANCH   1  14
ATOM     13  O   UNL     1     143.047 127.914  95.031  0.00  0.00    +0.000 OA
ATOM     14  C   UNL     1     142.103 128.090  95.786  0.00  0.00    +0.000 C 
ATOM     15  C   UNL     1     140.872 128.641  95.289  0.00  0.00    +0.000 C 
ATOM     16  C   UNL     1     139.666 129.184  94.796  0.00  0.00    +0.000 C 
BRANCH  16  17
ATOM     17  O   UNL     1     138.563 129.119  95.612  0.00  0.00    +0.000 OA
ATOM     18  H   UNL     1     137.991 128.365  95.386  0.00  0.00    +0.000 HD
ENDBRANCH  16  17
BRANCH  16  19
ATOM     19  C   UNL     1     139.541 129.787  93.520  0.00  0.00    +0.000 C 
ATOM     20  C   UNL     1     139.409 130.447  92.143  0.00  0.00    +0.000 C 
BRANCH  20  21
ATOM     21  C   UNL     1     139.278 131.113  90.770  0.00  0.00    +0.000 C 
ATOM     22  C   UNL     1     139.145 131.777  89.396  0.00  0.00    +0.000 C 
ATOM     23  C   UNL     1     139.008 132.436  88.020  0.00  0.00    +0.000 C 
ENDBRANCH  20  21
ENDBRANCH  16  19
ENDBRANCH   1  14
TORSDOF 7
ENDMDL
MODEL 7
REMARK VINA RESULT:      -5.1     17.809     20.295
REMARK  Name = 442793_6gingerol.pdbqt.pdb
REMARK  7 active torsions:
REMARK  status: ('A' for Active; 'I' for Inactive)
REMARK    1  A    between atoms: C_1  and  C_3
REMARK    2  A    between atoms: C_5  and  O_6
REMARK    3  A    between atoms: C_5  and  C_8
REMARK    4  A    between atoms: C_9  and  C_10
REMARK    5  A    between atoms: C_13  and  C_14
REMARK    6  A    between atoms: C_17  and  O_20
REMARK    7  A    between atoms: C_19  and  O_22
REMARK                            x       y       z     vdW  Elec       q    Type
REMARK                         _______ _______ _______ _____ _____    ______ ____
ROOT
ATOM      1  C   UNL     1     148.353 137.780 127.470  0.00  0.00    +0.000 C 
ATOM      2  C   UNL     1     148.651 136.471 126.728  0.00  0.00    +0.000 C 
ENDROOT
BRANCH   2   3
ATOM      3  C   UNL     1     148.929 135.254 126.042  0.00  0.00    +0.000 A 
ATOM      4  C   UNL     1     149.830 134.341 126.587  0.00  0.00    +0.000 A 
ATOM      5  C   UNL     1     148.302 134.982 124.830  0.00  0.00    +0.000 A 
ATOM      6  C   UNL     1     150.114 133.143 125.925  0.00  0.00    +0.000 A 
ATOM      7  C   UNL     1     148.575 133.793 124.159  0.00  0.00    +0.000 A 
ATOM      8  C   UNL     1     149.477 132.882 124.708  0.00  0.00    +0.000 A 
BRANCH   6   9
ATOM      9  O   UNL     1     150.987 132.189 126.389  0.00  0.00    +0.000 OA
ATOM     10  C   UNL     1     152.035 132.667 127.190  0.00  0.00    +0.000 C 
ENDBRANCH   6   9
BRANCH   8  11
ATOM     11  O   UNL     1     149.741 131.715 124.045  0.00  0.00    +0.000 OA
ATOM     12  H   UNL     1     149.820 131.909 123.092  0.00  0.00    +0.000 HD
ENDBRANCH   8  11
ENDBRANCH   2   3
BRANCH   1  14
ATOM     13  O   UNL     1     147.717 140.001 127.554  0.00  0.00    +0.000 OA
ATOM     14  C   UNL     1     148.074 139.008 128.170  0.00  0.00    +0.000 C 
ATOM     15  C   UNL     1     148.221 139.058 129.598  0.00  0.00    +0.000 C 
ATOM     16  C   UNL     1     148.366 139.112 131.001  0.00  0.00    +0.000 C 
BRANCH  16  17
ATOM     17  O   UNL     1     148.511 137.919 131.668  0.00  0.00    +0.000 OA
ATOM     18  H   UNL     1     147.663 137.597 132.020  0.00  0.00    +0.000 HD
ENDBRANCH  16  17
BRANCH  16  19
ATOM     19  C   UNL     1     148.372 140.318 131.743  0.00  0.00    +0.000 C 
ATOM     20  C   UNL     1     148.387 141.625 132.543  0.00  0.00    +0.000 C 
BRANCH  20  21
ATOM     21  C   UNL     1     148.409 142.932 133.342  0.00  0.00    +0.000 C 
ATOM     22  C   UNL     1     148.430 144.240 134.139  0.00  0.00    +0.000 C 
ATOM     23  C   UNL     1     148.448 145.552 134.930  0.00  0.00    +0.000 C 
ENDBRANCH  20  21
ENDBRANCH  16  19
ENDBRANCH   1  14
TORSDOF 7
ENDMDL
MODEL 8
REMARK VINA RESULT:      -5.1      2.196      2.497
REMARK  Name = 442793_6gingerol.pdbqt.pdb
REMARK  7 active torsions:
REMARK  status: ('A' for Active; 'I' for Inactive)
REMARK    1  A    between atoms: C_1  and  C_3
REMARK    2  A    between atoms: C_5  and  O_6
REMARK    3  A    between atoms: C_5  and  C_8
REMARK    4  A    between atoms: C_9  and  C_10
REMARK    5  A    between atoms: C_13  and  C_14
REMARK    6  A    between atoms: C_17  and  O_20
REMARK    7  A    between atoms: C_19  and  O_22
REMARK                            x       y       z     vdW  Elec       q    Type
REMARK                         _______ _______ _______ _____ _____    ______ ____
ROOT
ATOM      1  C   UNL     1     143.183 122.256 135.068  0.00  0.00    +0.000 C 
ATOM      2  C   UNL     1     141.813 122.686 134.529  0.00  0.00    +0.000 C 
ENDROOT
BRANCH   2   3
ATOM      3  C   UNL     1     140.542 123.087 134.027  0.00  0.00    +0.000 A 
ATOM      4  C   UNL     1     139.398 122.888 134.797  0.00  0.00    +0.000 A 
ATOM      5  C   UNL     1     140.447 123.677 132.770  0.00  0.00    +0.000 A 
ATOM      6  C   UNL     1     138.143 123.276 134.318  0.00  0.00    +0.000 A 
ATOM      7  C   UNL     1     139.203 124.068 132.280  0.00  0.00    +0.000 A 
ATOM      8  C   UNL     1     138.061 123.866 133.054  0.00  0.00    +0.000 A 
BRANCH   6   9
ATOM      9  O   UNL     1     136.967 123.116 135.009  0.00  0.00    +0.000 OA
ATOM     10  C   UNL     1     136.546 121.789 135.191  0.00  0.00    +0.000 C 
ENDBRANCH   6   9
BRANCH   8  11
ATOM     11  O   UNL     1     136.843 124.253 132.567  0.00  0.00    +0.000 OA
ATOM     12  H   UNL     1     136.985 124.854 131.812  0.00  0.00    +0.000 HD
ENDBRANCH   8  11
ENDBRANCH   2   3
BRANCH   1  14
ATOM     13  O   UNL     1     145.495 122.313 135.086  0.00  0.00    +0.000 OA
ATOM     14  C   UNL     1     144.472 121.855 135.572  0.00  0.00    +0.000 C 
ATOM     15  C   UNL     1     144.545 120.908 136.651  0.00  0.00    +0.000 C 
ATOM     16  C   UNL     1     144.622 119.977 137.709  0.00  0.00    +0.000 C 
BRANCH  16  17
ATOM     17  O   UNL     1     143.462 119.695 138.388  0.00  0.00    +0.000 OA
ATOM     18  H   UNL     1     142.906 119.058 137.906  0.00  0.00    +0.000 HD
ENDBRANCH  16  17
BRANCH  16  19
ATOM     19  C   UNL     1     145.820 119.327 138.096  0.00  0.00    +0.000 C 
ATOM     20  C   UNL     1     147.118 118.625 138.506  0.00  0.00    +0.000 C 
BRANCH  20  21
ATOM     21  C   UNL     1     148.418 117.922 138.910  0.00  0.00    +0.000 C 
ATOM     22  C   UNL     1     149.718 117.219 139.316  0.00  0.00    +0.000 C 
ATOM     23  C   UNL     1     151.014 116.514 139.728  0.00  0.00    +0.000 C 
ENDBRANCH  20  21
ENDBRANCH  16  19
ENDBRANCH   1  14
TORSDOF 7
ENDMDL
MODEL 9
REMARK VINA RESULT:      -5.0      2.587      3.648
REMARK  Name = 442793_6gingerol.pdbqt.pdb
REMARK  7 active torsions:
REMARK  status: ('A' for Active; 'I' for Inactive)
REMARK    1  A    between atoms: C_1  and  C_3
REMARK    2  A    between atoms: C_5  and  O_6
REMARK    3  A    between atoms: C_5  and  C_8
REMARK    4  A    between atoms: C_9  and  C_10
REMARK    5  A    between atoms: C_13  and  C_14
REMARK    6  A    between atoms: C_17  and  O_20
REMARK    7  A    between atoms: C_19  and  O_22
REMARK                            x       y       z     vdW  Elec       q    Type
REMARK                         _______ _______ _______ _____ _____    ______ ____
ROOT
ATOM      1  C   UNL     1     143.534 122.212 134.948  0.00  0.00    +0.000 C 
ATOM      2  C   UNL     1     142.175 122.691 134.423  0.00  0.00    +0.000 C 
ENDROOT
BRANCH   2   3
ATOM      3  C   UNL     1     140.915 123.139 133.934  0.00  0.00    +0.000 A 
ATOM      4  C   UNL     1     140.860 123.974 132.820  0.00  0.00    +0.000 A 
ATOM      5  C   UNL     1     139.743 122.740 134.570  0.00  0.00    +0.000 A 
ATOM      6  C   UNL     1     139.631 124.422 132.328  0.00  0.00    +0.000 A 
ATOM      7  C   UNL     1     138.511 123.179 134.091  0.00  0.00    +0.000 A 
ATOM      8  C   UNL     1     138.461 124.016 132.976  0.00  0.00    +0.000 A 
BRANCH   6   9
ATOM      9  O   UNL     1     139.486 125.247 131.239  0.00  0.00    +0.000 OA
ATOM     10  C   UNL     1     140.328 126.369 131.212  0.00  0.00    +0.000 C 
ENDBRANCH   6   9
BRANCH   8  11
ATOM     11  O   UNL     1     137.248 124.443 132.511  0.00  0.00    +0.000 OA
ATOM     12  H   UNL     1     137.140 124.136 131.591  0.00  0.00    +0.000 HD
ENDBRANCH   8  11
ENDBRANCH   2   3
BRANCH   1  14
ATOM     13  O   UNL     1     145.847 122.177 134.938  0.00  0.00    +0.000 OA
ATOM     14  C   UNL     1     144.813 121.764 135.440  0.00  0.00    +0.000 C 
ATOM     15  C   UNL     1     144.862 120.825 136.526  0.00  0.00    +0.000 C 
ATOM     16  C   UNL     1     144.916 119.900 137.592  0.00  0.00    +0.000 C 
BRANCH  16  17
ATOM     17  O   UNL     1     143.754 119.670 138.288  0.00  0.00    +0.000 OA
ATOM     18  H   UNL     1     143.133 119.117 137.783  0.00  0.00    +0.000 HD
ENDBRANCH  16  17
BRANCH  16  19
ATOM     19  C   UNL     1     146.091 119.206 137.970  0.00  0.00    +0.000 C 
ATOM     20  C   UNL     1     147.364 118.453 138.370  0.00  0.00    +0.000 C 
BRANCH  20  21
ATOM     21  C   UNL     1     148.637 117.697 138.765  0.00  0.00    +0.000 C 
ATOM     22  C   UNL     1     149.908 116.938 139.159  0.00  0.00    +0.000 C 
ATOM     23  C   UNL     1     151.177 116.174 139.549  0.00  0.00    +0.000 C 
ENDBRANCH  20  21
ENDBRANCH  16  19
ENDBRANCH   1  14
TORSDOF 7
ENDMDL
