MODEL 1
REMARK VINA RESULT:      -8.1      0.000      0.000
REMARK  Name = 44423609_SipholenoneA.pdbqt.pdb
REMARK  4 active torsions:
REMARK  status: ('A' for Active; 'I' for Inactive)
REMARK    1  A    between atoms: C_3  and  C_19
REMARK    2  A    between atoms: C_5  and  O_17
REMARK    3  A    between atoms: C_20  and  C_24
REMARK    4  A    between atoms: C_25  and  O_35
REMARK                            x       y       z     vdW  Elec       q    Type
REMARK                         _______ _______ _______ _____ _____    ______ ____
ROOT
ATOM      1  O   UNL     1     145.698 127.171 100.661  0.00  0.00    +0.000 OA
ATOM      2  O   UNL     1     144.282 124.331 102.564  0.00  0.00    +0.000 OA
ATOM      3  C   UNL     1     146.642 125.711  97.113  0.00  0.00    +0.000 C 
ATOM      4  C   UNL     1     145.744 126.157  98.265  0.00  0.00    +0.000 C 
ATOM      5  C   UNL     1     147.885 126.511  96.761  0.00  0.00    +0.000 C 
ATOM      6  C   UNL     1     146.418 126.900  99.492  0.00  0.00    +0.000 C 
ATOM      7  C   UNL     1     148.201 127.398  97.864  0.00  0.00    +0.000 C 
ATOM      8  C   UNL     1     147.577 127.644  99.196  0.00  0.00    +0.000 C 
ATOM      9  C   UNL     1     145.146 124.992  98.939  0.00  0.00    +0.000 C 
ATOM     10  C   UNL     1     144.614 127.074  97.717  0.00  0.00    +0.000 C 
ATOM     11  C   UNL     1     149.059 125.582  96.431  0.00  0.00    +0.000 C 
ATOM     12  C   UNL     1     144.758 124.514 100.322  0.00  0.00    +0.000 C 
ATOM     13  C   UNL     1     145.799 126.264 101.810  0.00  0.00    +0.000 C 
ATOM     14  C   UNL     1     144.856 124.967 101.690  0.00  0.00    +0.000 C 
ATOM     15  C   UNL     1     145.365 127.129 103.039  0.00  0.00    +0.000 C 
ATOM     16  C   UNL     1     147.288 125.799 102.015  0.00  0.00    +0.000 C 
ENDROOT
BRANCH   5  17
ATOM     17  O   UNL     1     147.651 127.263  95.597  0.00  0.00    +0.000 OA
ATOM     18  H   UNL     1     147.278 126.585  95.006  0.00  0.00    +0.000 HD
ENDBRANCH   5  17
BRANCH   3  19
ATOM     19  C   UNL     1     146.172 124.694  96.207  0.00  0.00    +0.000 C 
ATOM     20  C   UNL     1     145.667 123.607  95.255  0.00  0.00    +0.000 C 
BRANCH  20  24
ATOM     21  C   UNL     1     146.751 120.871  93.131  0.00  0.00    +0.000 C 
ATOM     22  C   UNL     1     145.956 122.199  93.074  0.00  0.00    +0.000 C 
ATOM     23  C   UNL     1     146.156 119.496  93.296  0.00  0.00    +0.000 C 
ATOM     24  C   UNL     1     145.198 122.582  94.368  0.00  0.00    +0.000 C 
ATOM     25  C   UNL     1     147.226 118.404  93.266  0.00  0.00    +0.000 C 
ATOM     26  C   UNL     1     148.155 120.689  92.975  0.00  0.00    +0.000 C 
ATOM     27  C   UNL     1     148.420 119.212  93.047  0.00  0.00    +0.000 C 
ATOM     28  C   UNL     1     144.911 119.463  93.958  0.00  0.00    +0.000 C 
ATOM     29  C   UNL     1     144.011 121.821  94.766  0.00  0.00    +0.000 C 
ATOM     30  C   UNL     1     146.969 123.355  92.717  0.00  0.00    +0.000 C 
ATOM     31  C   UNL     1     144.952 122.124  91.874  0.00  0.00    +0.000 C 
ATOM     32  C   UNL     1     144.049 120.543  94.556  0.00  0.00    +0.000 C 
ATOM     33  C   UNL     1     146.932 117.345  92.217  0.00  0.00    +0.000 C 
ATOM     34  C   UNL     1     142.986 122.319  95.752  0.00  0.00    +0.000 C 
BRANCH  25  35
ATOM     35  O   UNL     1     147.297 117.750  94.509  0.00  0.00    +0.000 OA
ATOM     36  H   UNL     1     146.352 117.686  94.734  0.00  0.00    +0.000 HD
ENDBRANCH  25  35
ENDBRANCH  20  24
ENDBRANCH   3  19
TORSDOF 4
ENDMDL
MODEL 2
REMARK VINA RESULT:      -7.6      2.883      3.886
REMARK  Name = 44423609_SipholenoneA.pdbqt.pdb
REMARK  4 active torsions:
REMARK  status: ('A' for Active; 'I' for Inactive)
REMARK    1  A    between atoms: C_3  and  C_19
REMARK    2  A    between atoms: C_5  and  O_17
REMARK    3  A    between atoms: C_20  and  C_24
REMARK    4  A    between atoms: C_25  and  O_35
REMARK                            x       y       z     vdW  Elec       q    Type
REMARK                         _______ _______ _______ _____ _____    ______ ____
ROOT
ATOM      1  O   UNL     1     143.301 127.520 101.198  0.00  0.00    +0.000 OA
ATOM      2  O   UNL     1     141.110 124.693 100.250  0.00  0.00    +0.000 OA
ATOM      3  C   UNL     1     146.135 127.642  98.447  0.00  0.00    +0.000 C 
ATOM      4  C   UNL     1     144.730 127.756  99.036  0.00  0.00    +0.000 C 
ATOM      5  C   UNL     1     147.339 128.102  99.251  0.00  0.00    +0.000 C 
ATOM      6  C   UNL     1     144.566 127.614 100.606  0.00  0.00    +0.000 C 
ATOM      7  C   UNL     1     146.949 128.246 100.641  0.00  0.00    +0.000 C 
ATOM      8  C   UNL     1     145.670 128.028 101.377  0.00  0.00    +0.000 C 
ATOM      9  C   UNL     1     143.879 126.650  98.566  0.00  0.00    +0.000 C 
ATOM     10  C   UNL     1     144.098 129.112  98.612  0.00  0.00    +0.000 C 
ATOM     11  C   UNL     1     148.509 127.126  99.093  0.00  0.00    +0.000 C 
ATOM     12  C   UNL     1     142.780 125.732  99.057  0.00  0.00    +0.000 C 
ATOM     13  C   UNL     1     142.745 126.205 101.534  0.00  0.00    +0.000 C 
ATOM     14  C   UNL     1     142.068 125.455 100.282  0.00  0.00    +0.000 C 
ATOM     15  C   UNL     1     141.669 126.495 102.630  0.00  0.00    +0.000 C 
ATOM     16  C   UNL     1     143.859 125.277 102.147  0.00  0.00    +0.000 C 
ENDROOT
BRANCH   5  17
ATOM     17  O   UNL     1     147.797 129.335  98.756  0.00  0.00    +0.000 OA
ATOM     18  H   UNL     1     147.732 129.189  97.795  0.00  0.00    +0.000 HD
ENDBRANCH   5  17
BRANCH   3  19
ATOM     19  C   UNL     1     146.289 127.345  97.046  0.00  0.00    +0.000 C 
ATOM     20  C   UNL     1     146.442 127.022  95.558  0.00  0.00    +0.000 C 
BRANCH  20  24
ATOM     21  C   UNL     1     147.898 124.635  93.243  0.00  0.00    +0.000 C 
ATOM     22  C   UNL     1     147.905 126.147  93.578  0.00  0.00    +0.000 C 
ATOM     23  C   UNL     1     147.043 123.970  92.196  0.00  0.00    +0.000 C 
ATOM     24  C   UNL     1     146.587 126.709  94.165  0.00  0.00    +0.000 C 
ATOM     25  C   UNL     1     147.323 122.469  92.100  0.00  0.00    +0.000 C 
ATOM     26  C   UNL     1     148.725 123.616  93.799  0.00  0.00    +0.000 C 
ATOM     27  C   UNL     1     148.377 122.333  93.098  0.00  0.00    +0.000 C 
ATOM     28  C   UNL     1     145.839 124.641  91.897  0.00  0.00    +0.000 C 
ATOM     29  C   UNL     1     145.410 126.845  93.305  0.00  0.00    +0.000 C 
ATOM     30  C   UNL     1     149.072 126.410  94.606  0.00  0.00    +0.000 C 
ATOM     31  C   UNL     1     148.288 126.939  92.282  0.00  0.00    +0.000 C 
ATOM     32  C   UNL     1     145.221 125.904  92.435  0.00  0.00    +0.000 C 
ATOM     33  C   UNL     1     147.680 122.044  90.686  0.00  0.00    +0.000 C 
ATOM     34  C   UNL     1     144.225 127.716  93.635  0.00  0.00    +0.000 C 
BRANCH  25  35
ATOM     35  O   UNL     1     146.188 121.731  92.481  0.00  0.00    +0.000 OA
ATOM     36  H   UNL     1     146.513 121.306  93.294  0.00  0.00    +0.000 HD
ENDBRANCH  25  35
ENDBRANCH  20  24
ENDBRANCH   3  19
TORSDOF 4
ENDMDL
MODEL 3
REMARK VINA RESULT:      -7.3      3.449      4.956
REMARK  Name = 44423609_SipholenoneA.pdbqt.pdb
REMARK  4 active torsions:
REMARK  status: ('A' for Active; 'I' for Inactive)
REMARK    1  A    between atoms: C_3  and  C_19
REMARK    2  A    between atoms: C_5  and  O_17
REMARK    3  A    between atoms: C_20  and  C_24
REMARK    4  A    between atoms: C_25  and  O_35
REMARK                            x       y       z     vdW  Elec       q    Type
REMARK                         _______ _______ _______ _____ _____    ______ ____
ROOT
ATOM      1  O   UNL     1     143.630 127.208 100.645  0.00  0.00    +0.000 OA
ATOM      2  O   UNL     1     141.938 124.009  99.873  0.00  0.00    +0.000 OA
ATOM      3  C   UNL     1     146.673 127.438  98.135  0.00  0.00    +0.000 C 
ATOM      4  C   UNL     1     145.215 127.411  98.592  0.00  0.00    +0.000 C 
ATOM      5  C   UNL     1     147.722 128.151  98.972  0.00  0.00    +0.000 C 
ATOM      6  C   UNL     1     144.921 127.418 100.150  0.00  0.00    +0.000 C 
ATOM      7  C   UNL     1     147.184 128.386 100.299  0.00  0.00    +0.000 C 
ATOM      8  C   UNL     1     145.881 128.067 100.951  0.00  0.00    +0.000 C 
ATOM      9  C   UNL     1     144.569 126.150  98.192  0.00  0.00    +0.000 C 
ATOM     10  C   UNL     1     144.451 128.608  97.959  0.00  0.00    +0.000 C 
ATOM     11  C   UNL     1     149.022 127.342  99.027  0.00  0.00    +0.000 C 
ATOM     12  C   UNL     1     143.560 125.142  98.700  0.00  0.00    +0.000 C 
ATOM     13  C   UNL     1     143.225 125.870 101.092  0.00  0.00    +0.000 C 
ATOM     14  C   UNL     1     142.777 124.900  99.890  0.00  0.00    +0.000 C 
ATOM     15  C   UNL     1     142.019 126.120 102.055  0.00  0.00    +0.000 C 
ATOM     16  C   UNL     1     144.389 125.184 101.899  0.00  0.00    +0.000 C 
ENDROOT
BRANCH   5  17
ATOM     17  O   UNL     1     148.055 129.376  98.370  0.00  0.00    +0.000 OA
ATOM     18  H   UNL     1     148.805 129.112  97.807  0.00  0.00    +0.000 HD
ENDBRANCH   5  17
BRANCH   3  19
ATOM     19  C   UNL     1     146.998 127.017  96.797  0.00  0.00    +0.000 C 
ATOM     20  C   UNL     1     147.345 126.581  95.371  0.00  0.00    +0.000 C 
BRANCH  20  24
ATOM     21  C   UNL     1     145.987 124.979  92.411  0.00  0.00    +0.000 C 
ATOM     22  C   UNL     1     147.149 124.848  93.426  0.00  0.00    +0.000 C 
ATOM     23  C   UNL     1     146.062 125.665  91.071  0.00  0.00    +0.000 C 
ATOM     24  C   UNL     1     147.662 126.178  94.031  0.00  0.00    +0.000 C 
ATOM     25  C   UNL     1     144.741 125.569  90.306  0.00  0.00    +0.000 C 
ATOM     26  C   UNL     1     144.675 124.433  92.514  0.00  0.00    +0.000 C 
ATOM     27  C   UNL     1     143.949 124.785  91.246  0.00  0.00    +0.000 C 
ATOM     28  C   UNL     1     147.040 126.676  90.975  0.00  0.00    +0.000 C 
ATOM     29  C   UNL     1     148.420 127.111  93.195  0.00  0.00    +0.000 C 
ATOM     30  C   UNL     1     146.666 123.909  94.598  0.00  0.00    +0.000 C 
ATOM     31  C   UNL     1     148.331 124.092  92.730  0.00  0.00    +0.000 C 
ATOM     32  C   UNL     1     148.032 127.227  91.964  0.00  0.00    +0.000 C 
ATOM     33  C   UNL     1     144.924 124.970  88.922  0.00  0.00    +0.000 C 
ATOM     34  C   UNL     1     149.287 128.215  93.743  0.00  0.00    +0.000 C 
BRANCH  25  35
ATOM     35  O   UNL     1     144.177 126.846  90.135  0.00  0.00    +0.000 OA
ATOM     36  H   UNL     1     144.441 127.273  90.969  0.00  0.00    +0.000 HD
ENDBRANCH  25  35
ENDBRANCH  20  24
ENDBRANCH   3  19
TORSDOF 4
ENDMDL
MODEL 4
REMARK VINA RESULT:      -7.3     38.118     44.892
REMARK  Name = 44423609_SipholenoneA.pdbqt.pdb
REMARK  4 active torsions:
REMARK  status: ('A' for Active; 'I' for Inactive)
REMARK    1  A    between atoms: C_3  and  C_19
REMARK    2  A    between atoms: C_5  and  O_17
REMARK    3  A    between atoms: C_20  and  C_24
REMARK    4  A    between atoms: C_25  and  O_35
REMARK                            x       y       z     vdW  Elec       q    Type
REMARK                         _______ _______ _______ _____ _____    ______ ____
ROOT
ATOM      1  O   UNL     1     135.173 122.353 134.030  0.00  0.00    +0.000 OA
ATOM      2  O   UNL     1     138.676 123.022 135.018  0.00  0.00    +0.000 OA
ATOM      3  C   UNL     1     133.245 121.582 137.393  0.00  0.00    +0.000 C 
ATOM      4  C   UNL     1     134.008 122.406 136.357  0.00  0.00    +0.000 C 
ATOM      5  C   UNL     1     132.227 120.547 136.945  0.00  0.00    +0.000 C 
ATOM      6  C   UNL     1     134.323 121.736 134.955  0.00  0.00    +0.000 C 
ATOM      7  C   UNL     1     132.430 120.267 135.536  0.00  0.00    +0.000 C 
ATOM      8  C   UNL     1     133.398 120.767 134.518  0.00  0.00    +0.000 C 
ATOM      9  C   UNL     1     135.368 122.709 136.833  0.00  0.00    +0.000 C 
ATOM     10  C   UNL     1     133.245 123.734 136.088  0.00  0.00    +0.000 C 
ATOM     11  C   UNL     1     132.330 119.275 137.793  0.00  0.00    +0.000 C 
ATOM     12  C   UNL     1     136.784 122.846 136.315  0.00  0.00    +0.000 C 
ATOM     13  C   UNL     1     136.585 121.964 133.960  0.00  0.00    +0.000 C 
ATOM     14  C   UNL     1     137.503 122.673 135.074  0.00  0.00    +0.000 C 
ATOM     15  C   UNL     1     137.047 122.399 132.531  0.00  0.00    +0.000 C 
ATOM     16  C   UNL     1     136.733 120.402 134.090  0.00  0.00    +0.000 C 
ENDROOT
BRANCH   5  17
ATOM     17  O   UNL     1     130.927 121.042 137.149  0.00  0.00    +0.000 OA
ATOM     18  H   UNL     1     131.030 121.967 136.860  0.00  0.00    +0.000 HD
ENDBRANCH   5  17
BRANCH   3  19
ATOM     19  C   UNL     1     133.303 121.967 138.780  0.00  0.00    +0.000 C 
ATOM     20  C   UNL     1     133.375 122.369 140.255  0.00  0.00    +0.000 C 
BRANCH  20  24
ATOM     21  C   UNL     1     135.114 124.494 142.629  0.00  0.00    +0.000 C 
ATOM     22  C   UNL     1     134.785 123.005 142.361  0.00  0.00    +0.000 C 
ATOM     23  C   UNL     1     134.339 125.417 143.534  0.00  0.00    +0.000 C 
ATOM     24  C   UNL     1     133.441 122.735 141.641  0.00  0.00    +0.000 C 
ATOM     25  C   UNL     1     134.968 126.810 143.601  0.00  0.00    +0.000 C 
ATOM     26  C   UNL     1     136.221 125.244 142.137  0.00  0.00    +0.000 C 
ATOM     27  C   UNL     1     136.125 126.619 142.735  0.00  0.00    +0.000 C 
ATOM     28  C   UNL     1     132.982 125.076 143.711  0.00  0.00    +0.000 C 
ATOM     29  C   UNL     1     132.180 122.946 142.354  0.00  0.00    +0.000 C 
ATOM     30  C   UNL     1     135.956 122.398 141.495  0.00  0.00    +0.000 C 
ATOM     31  C   UNL     1     134.818 122.237 143.726  0.00  0.00    +0.000 C 
ATOM     32  C   UNL     1     132.134 123.964 143.155  0.00  0.00    +0.000 C 
ATOM     33  C   UNL     1     135.263 127.235 145.029  0.00  0.00    +0.000 C 
ATOM     34  C   UNL     1     130.860 122.363 141.918  0.00  0.00    +0.000 C 
BRANCH  25  35
ATOM     35  O   UNL     1     134.098 127.770 143.054  0.00  0.00    +0.000 OA
ATOM     36  H   UNL     1     133.967 128.354 143.821  0.00  0.00    +0.000 HD
ENDBRANCH  25  35
ENDBRANCH  20  24
ENDBRANCH   3  19
TORSDOF 4
ENDMDL
MODEL 5
REMARK VINA RESULT:      -7.0     38.519     45.326
REMARK  Name = 44423609_SipholenoneA.pdbqt.pdb
REMARK  4 active torsions:
REMARK  status: ('A' for Active; 'I' for Inactive)
REMARK    1  A    between atoms: C_3  and  C_19
REMARK    2  A    between atoms: C_5  and  O_17
REMARK    3  A    between atoms: C_20  and  C_24
REMARK    4  A    between atoms: C_25  and  O_35
REMARK                            x       y       z     vdW  Elec       q    Type
REMARK                         _______ _______ _______ _____ _____    ______ ____
ROOT
ATOM      1  O   UNL     1     151.363 131.493 135.009  0.00  0.00    +0.000 OA
ATOM      2  O   UNL     1     153.111 134.755 135.007  0.00  0.00    +0.000 OA
ATOM      3  C   UNL     1     152.325 129.770 138.433  0.00  0.00    +0.000 C 
ATOM      4  C   UNL     1     151.681 130.789 137.494  0.00  0.00    +0.000 C 
ATOM      5  C   UNL     1     152.376 128.302 138.046  0.00  0.00    +0.000 C 
ATOM      6  C   UNL     1     151.762 130.521 135.934  0.00  0.00    +0.000 C 
ATOM      7  C   UNL     1     152.104 128.180 136.627  0.00  0.00    +0.000 C 
ATOM      8  C   UNL     1     151.816 129.168 135.547  0.00  0.00    +0.000 C 
ATOM      9  C   UNL     1     152.367 132.089 137.590  0.00  0.00    +0.000 C 
ATOM     10  C   UNL     1     150.183 130.965 137.869  0.00  0.00    +0.000 C 
ATOM     11  C   UNL     1     153.728 127.684 138.416  0.00  0.00    +0.000 C 
ATOM     12  C   UNL     1     152.791 133.252 136.719  0.00  0.00    +0.000 C 
ATOM     13  C   UNL     1     152.363 132.373 134.394  0.00  0.00    +0.000 C 
ATOM     14  C   UNL     1     152.780 133.619 135.322  0.00  0.00    +0.000 C 
ATOM     15  C   UNL     1     151.687 132.887 133.081  0.00  0.00    +0.000 C 
ATOM     16  C   UNL     1     153.655 131.558 134.017  0.00  0.00    +0.000 C 
ENDROOT
BRANCH   5  17
ATOM     17  O   UNL     1     151.412 127.586 138.778  0.00  0.00    +0.000 OA
ATOM     18  H   UNL     1     151.962 127.195 139.481  0.00  0.00    +0.000 HD
ENDBRANCH   5  17
BRANCH   3  19
ATOM     19  C   UNL     1     152.646 130.161 139.782  0.00  0.00    +0.000 C 
ATOM     20  C   UNL     1     152.997 130.584 141.210  0.00  0.00    +0.000 C 
BRANCH  20  24
ATOM     21  C   UNL     1     155.344 132.540 143.169  0.00  0.00    +0.000 C 
ATOM     22  C   UNL     1     154.802 131.096 143.028  0.00  0.00    +0.000 C 
ATOM     23  C   UNL     1     154.845 133.576 144.144  0.00  0.00    +0.000 C 
ATOM     24  C   UNL     1     153.335 130.976 142.549  0.00  0.00    +0.000 C 
ATOM     25  C   UNL     1     155.636 134.881 144.043  0.00  0.00    +0.000 C 
ATOM     26  C   UNL     1     156.435 133.133 142.470  0.00  0.00    +0.000 C 
ATOM     27  C   UNL     1     156.602 134.525 143.011  0.00  0.00    +0.000 C 
ATOM     28  C   UNL     1     153.506 133.411 144.554  0.00  0.00    +0.000 C 
ATOM     29  C   UNL     1     152.244 131.360 143.446  0.00  0.00    +0.000 C 
ATOM     30  C   UNL     1     155.733 130.326 142.014  0.00  0.00    +0.000 C 
ATOM     31  C   UNL     1     154.971 130.367 144.404  0.00  0.00    +0.000 C 
ATOM     32  C   UNL     1     152.452 132.397 144.195  0.00  0.00    +0.000 C 
ATOM     33  C   UNL     1     156.213 135.305 145.383  0.00  0.00    +0.000 C 
ATOM     34  C   UNL     1     150.811 130.934 143.257  0.00  0.00    +0.000 C 
BRANCH  25  35
ATOM     35  O   UNL     1     154.806 135.927 143.599  0.00  0.00    +0.000 OA
ATOM     36  H   UNL     1     153.929 135.519 143.706  0.00  0.00    +0.000 HD
ENDBRANCH  25  35
ENDBRANCH  20  24
ENDBRANCH   3  19
TORSDOF 4
ENDMDL
MODEL 6
REMARK VINA RESULT:      -7.0      2.063      2.745
REMARK  Name = 44423609_SipholenoneA.pdbqt.pdb
REMARK  4 active torsions:
REMARK  status: ('A' for Active; 'I' for Inactive)
REMARK    1  A    between atoms: C_3  and  C_19
REMARK    2  A    between atoms: C_5  and  O_17
REMARK    3  A    between atoms: C_20  and  C_24
REMARK    4  A    between atoms: C_25  and  O_35
REMARK                            x       y       z     vdW  Elec       q    Type
REMARK                         _______ _______ _______ _____ _____    ______ ____
ROOT
ATOM      1  O   UNL     1     142.257 126.213  98.951  0.00  0.00    +0.000 OA
ATOM      2  O   UNL     1     140.335 123.224  99.983  0.00  0.00    +0.000 OA
ATOM      3  C   UNL     1     145.092 124.880  96.544  0.00  0.00    +0.000 C 
ATOM      4  C   UNL     1     143.678 125.215  97.013  0.00  0.00    +0.000 C 
ATOM      5  C   UNL     1     146.243 125.821  96.857  0.00  0.00    +0.000 C 
ATOM      6  C   UNL     1     143.513 126.030  98.362  0.00  0.00    +0.000 C 
ATOM      7  C   UNL     1     145.830 126.738  97.902  0.00  0.00    +0.000 C 
ATOM      8  C   UNL     1     144.569 126.907  98.681  0.00  0.00    +0.000 C 
ATOM      9  C   UNL     1     142.933 123.987  97.337  0.00  0.00    +0.000 C 
ATOM     10  C   UNL     1     142.931 125.993  95.893  0.00  0.00    +0.000 C 
ATOM     11  C   UNL     1     147.498 125.037  97.259  0.00  0.00    +0.000 C 
ATOM     12  C   UNL     1     141.916 123.465  98.329  0.00  0.00    +0.000 C 
ATOM     13  C   UNL     1     141.817 125.323 100.031  0.00  0.00    +0.000 C 
ATOM     14  C   UNL     1     141.221 123.924  99.509  0.00  0.00    +0.000 C 
ATOM     15  C   UNL     1     140.709 126.129 100.785  0.00  0.00    +0.000 C 
ATOM     16  C   UNL     1     143.004 125.037 101.025  0.00  0.00    +0.000 C 
ENDROOT
BRANCH   5  17
ATOM     17  O   UNL     1     146.594 126.542  95.703  0.00  0.00    +0.000 OA
ATOM     18  H   UNL     1     147.565 126.555  95.776  0.00  0.00    +0.000 HD
ENDBRANCH   5  17
BRANCH   3  19
ATOM     19  C   UNL     1     145.284 123.815  95.592  0.00  0.00    +0.000 C 
ATOM     20  C   UNL     1     145.483 122.691  94.572  0.00  0.00    +0.000 C 
BRANCH  20  24
ATOM     21  C   UNL     1     147.985 120.819  92.725  0.00  0.00    +0.000 C 
ATOM     22  C   UNL     1     146.733 121.704  92.502  0.00  0.00    +0.000 C 
ATOM     23  C   UNL     1     147.999 119.313  92.775  0.00  0.00    +0.000 C 
ATOM     24  C   UNL     1     145.659 121.637  93.614  0.00  0.00    +0.000 C 
ATOM     25  C   UNL     1     149.413 118.763  92.967  0.00  0.00    +0.000 C 
ATOM     26  C   UNL     1     149.338 121.243  92.857  0.00  0.00    +0.000 C 
ATOM     27  C   UNL     1     150.178 120.003  92.989  0.00  0.00    +0.000 C 
ATOM     28  C   UNL     1     146.783 118.719  93.172  0.00  0.00    +0.000 C 
ATOM     29  C   UNL     1     144.848 120.428  93.769  0.00  0.00    +0.000 C 
ATOM     30  C   UNL     1     147.217 123.198  92.351  0.00  0.00    +0.000 C 
ATOM     31  C   UNL     1     146.094 121.319  91.124  0.00  0.00    +0.000 C 
ATOM     32  C   UNL     1     145.455 119.299  93.578  0.00  0.00    +0.000 C 
ATOM     33  C   UNL     1     149.789 117.763  91.887  0.00  0.00    +0.000 C 
ATOM     34  C   UNL     1     143.545 120.381  94.525  0.00  0.00    +0.000 C 
BRANCH  25  35
ATOM     35  O   UNL     1     149.519 118.098  94.202  0.00  0.00    +0.000 OA
ATOM     36  H   UNL     1     148.612 117.761  94.305  0.00  0.00    +0.000 HD
ENDBRANCH  25  35
ENDBRANCH  20  24
ENDBRANCH   3  19
TORSDOF 4
ENDMDL
MODEL 7
REMARK VINA RESULT:      -6.8     12.440     16.006
REMARK  Name = 44423609_SipholenoneA.pdbqt.pdb
REMARK  4 active torsions:
REMARK  status: ('A' for Active; 'I' for Inactive)
REMARK    1  A    between atoms: C_3  and  C_19
REMARK    2  A    between atoms: C_5  and  O_17
REMARK    3  A    between atoms: C_20  and  C_24
REMARK    4  A    between atoms: C_25  and  O_35
REMARK                            x       y       z     vdW  Elec       q    Type
REMARK                         _______ _______ _______ _____ _____    ______ ____
ROOT
ATOM      1  O   UNL     1     154.452 131.368 101.652  0.00  0.00    +0.000 OA
ATOM      2  O   UNL     1     152.332 133.143 104.111  0.00  0.00    +0.000 OA
ATOM      3  C   UNL     1     156.739 128.941 103.771  0.00  0.00    +0.000 C 
ATOM      4  C   UNL     1     155.456 129.498 103.157  0.00  0.00    +0.000 C 
ATOM      5  C   UNL     1     158.031 128.943 102.971  0.00  0.00    +0.000 C 
ATOM      6  C   UNL     1     155.582 130.684 102.113  0.00  0.00    +0.000 C 
ATOM      7  C   UNL     1     157.884 129.842 101.842  0.00  0.00    +0.000 C 
ATOM      8  C   UNL     1     156.773 130.715 101.362  0.00  0.00    +0.000 C 
ATOM      9  C   UNL     1     154.615 130.124 104.191  0.00  0.00    +0.000 C 
ATOM     10  C   UNL     1     154.666 128.346 102.474  0.00  0.00    +0.000 C 
ATOM     11  C   UNL     1     159.221 129.338 103.853  0.00  0.00    +0.000 C 
ATOM     12  C   UNL     1     153.687 131.305 104.384  0.00  0.00    +0.000 C 
ATOM     13  C   UNL     1     154.057 132.636 102.275  0.00  0.00    +0.000 C 
ATOM     14  C   UNL     1     153.224 132.451 103.638  0.00  0.00    +0.000 C 
ATOM     15  C   UNL     1     153.174 133.350 101.200  0.00  0.00    +0.000 C 
ATOM     16  C   UNL     1     155.325 133.524 102.564  0.00  0.00    +0.000 C 
ENDROOT
BRANCH   5  17
ATOM     17  O   UNL     1     158.306 127.644 102.512  0.00  0.00    +0.000 OA
ATOM     18  H   UNL     1     157.496 127.174 102.780  0.00  0.00    +0.000 HD
ENDBRANCH   5  17
BRANCH   3  19
ATOM     19  C   UNL     1     156.663 128.185 104.995  0.00  0.00    +0.000 C 
ATOM     20  C   UNL     1     156.594 127.378 106.293  0.00  0.00    +0.000 C 
BRANCH  20  24
ATOM     21  C   UNL     1     155.899 127.600 109.849  0.00  0.00    +0.000 C 
ATOM     22  C   UNL     1     157.015 127.173 108.864  0.00  0.00    +0.000 C 
ATOM     23  C   UNL     1     154.890 126.681 110.487  0.00  0.00    +0.000 C 
ATOM     24  C   UNL     1     156.529 126.612 107.505  0.00  0.00    +0.000 C 
ATOM     25  C   UNL     1     153.960 127.430 111.443  0.00  0.00    +0.000 C 
ATOM     26  C   UNL     1     155.658 128.899 110.382  0.00  0.00    +0.000 C 
ATOM     27  C   UNL     1     154.505 128.778 111.339  0.00  0.00    +0.000 C 
ATOM     28  C   UNL     1     154.609 125.508 109.756  0.00  0.00    +0.000 C 
ATOM     29  C   UNL     1     155.895 125.293 107.449  0.00  0.00    +0.000 C 
ATOM     30  C   UNL     1     157.932 128.429 108.597  0.00  0.00    +0.000 C 
ATOM     31  C   UNL     1     157.929 126.119 109.577  0.00  0.00    +0.000 C 
ATOM     32  C   UNL     1     155.113 124.988 108.436  0.00  0.00    +0.000 C 
ATOM     33  C   UNL     1     153.954 126.815 112.833  0.00  0.00    +0.000 C 
ATOM     34  C   UNL     1     155.742 124.487 106.185  0.00  0.00    +0.000 C 
BRANCH  25  35
ATOM     35  O   UNL     1     152.636 127.398 110.969  0.00  0.00    +0.000 OA
ATOM     36  H   UNL     1     152.150 127.648 111.774  0.00  0.00    +0.000 HD
ENDBRANCH  25  35
ENDBRANCH  20  24
ENDBRANCH   3  19
TORSDOF 4
ENDMDL
MODEL 8
REMARK VINA RESULT:      -6.7     38.260     42.292
REMARK  Name = 44423609_SipholenoneA.pdbqt.pdb
REMARK  4 active torsions:
REMARK  status: ('A' for Active; 'I' for Inactive)
REMARK    1  A    between atoms: C_3  and  C_19
REMARK    2  A    between atoms: C_5  and  O_17
REMARK    3  A    between atoms: C_20  and  C_24
REMARK    4  A    between atoms: C_25  and  O_35
REMARK                            x       y       z     vdW  Elec       q    Type
REMARK                         _______ _______ _______ _____ _____    ______ ____
ROOT
ATOM      1  O   UNL     1     133.698 113.978 137.593  0.00  0.00    +0.000 OA
ATOM      2  O   UNL     1     137.259 113.564 136.675  0.00  0.00    +0.000 OA
ATOM      3  C   UNL     1     133.005 117.865 137.449  0.00  0.00    +0.000 C 
ATOM      4  C   UNL     1     133.325 116.465 136.927  0.00  0.00    +0.000 C 
ATOM      5  C   UNL     1     131.995 118.049 138.569  0.00  0.00    +0.000 C 
ATOM      6  C   UNL     1     133.242 115.253 137.945  0.00  0.00    +0.000 C 
ATOM      7  C   UNL     1     131.768 116.769 139.212  0.00  0.00    +0.000 C 
ATOM      8  C   UNL     1     132.318 115.399 138.998  0.00  0.00    +0.000 C 
ATOM      9  C   UNL     1     134.733 116.378 136.504  0.00  0.00    +0.000 C 
ATOM     10  C   UNL     1     132.401 116.138 135.721  0.00  0.00    +0.000 C 
ATOM     11  C   UNL     1     132.474 119.106 139.570  0.00  0.00    +0.000 C 
ATOM     12  C   UNL     1     135.895 115.408 136.506  0.00  0.00    +0.000 C 
ATOM     13  C   UNL     1     135.046 113.548 137.982  0.00  0.00    +0.000 C 
ATOM     14  C   UNL     1     136.200 114.086 137.000  0.00  0.00    +0.000 C 
ATOM     15  C   UNL     1     134.994 111.986 137.941  0.00  0.00    +0.000 C 
ATOM     16  C   UNL     1     135.367 114.009 139.453  0.00  0.00    +0.000 C 
ENDROOT
BRANCH   5  17
ATOM     17  O   UNL     1     130.787 118.537 138.042  0.00  0.00    +0.000 OA
ATOM     18  H   UNL     1     130.157 117.865 138.360  0.00  0.00    +0.000 HD
ENDBRANCH   5  17
BRANCH   3  19
ATOM     19  C   UNL     1     133.462 119.013 136.708  0.00  0.00    +0.000 C 
ATOM     20  C   UNL     1     133.952 120.239 135.933  0.00  0.00    +0.000 C 
BRANCH  20  24
ATOM     21  C   UNL     1     136.574 122.745 135.796  0.00  0.00    +0.000 C 
ATOM     22  C   UNL     1     135.035 122.616 135.922  0.00  0.00    +0.000 C 
ATOM     23  C   UNL     1     137.334 122.984 134.516  0.00  0.00    +0.000 C 
ATOM     24  C   UNL     1     134.406 121.393 135.212  0.00  0.00    +0.000 C 
ATOM     25  C   UNL     1     138.839 123.104 134.761  0.00  0.00    +0.000 C 
ATOM     26  C   UNL     1     137.538 122.732 136.844  0.00  0.00    +0.000 C 
ATOM     27  C   UNL     1     138.882 122.958 136.211  0.00  0.00    +0.000 C 
ATOM     28  C   UNL     1     136.685 122.535 133.347  0.00  0.00    +0.000 C 
ATOM     29  C   UNL     1     134.347 121.354 133.749  0.00  0.00    +0.000 C 
ATOM     30  C   UNL     1     134.680 122.550 137.458  0.00  0.00    +0.000 C 
ATOM     31  C   UNL     1     134.382 123.935 135.387  0.00  0.00    +0.000 C 
ATOM     32  C   UNL     1     135.370 121.840 133.119  0.00  0.00    +0.000 C 
ATOM     33  C   UNL     1     139.408 124.396 134.200  0.00  0.00    +0.000 C 
ATOM     34  C   UNL     1     133.437 120.441 132.969  0.00  0.00    +0.000 C 
BRANCH  25  35
ATOM     35  O   UNL     1     139.525 122.044 134.140  0.00  0.00    +0.000 OA
ATOM     36  H   UNL     1     140.394 122.454 133.991  0.00  0.00    +0.000 HD
ENDBRANCH  25  35
ENDBRANCH  20  24
ENDBRANCH   3  19
TORSDOF 4
ENDMDL
MODEL 9
REMARK VINA RESULT:      -6.6      5.928     10.407
REMARK  Name = 44423609_SipholenoneA.pdbqt.pdb
REMARK  4 active torsions:
REMARK  status: ('A' for Active; 'I' for Inactive)
REMARK    1  A    between atoms: C_3  and  C_19
REMARK    2  A    between atoms: C_5  and  O_17
REMARK    3  A    between atoms: C_20  and  C_24
REMARK    4  A    between atoms: C_25  and  O_35
REMARK                            x       y       z     vdW  Elec       q    Type
REMARK                         _______ _______ _______ _____ _____    ______ ____
ROOT
ATOM      1  O   UNL     1     140.448 127.531  88.793  0.00  0.00    +0.000 OA
ATOM      2  O   UNL     1     140.210 123.874  89.308  0.00  0.00    +0.000 OA
ATOM      3  C   UNL     1     141.063 129.075  92.377  0.00  0.00    +0.000 C 
ATOM      4  C   UNL     1     141.365 128.275  91.111  0.00  0.00    +0.000 C 
ATOM      5  C   UNL     1     140.318 130.396  92.286  0.00  0.00    +0.000 C 
ATOM      6  C   UNL     1     140.340 128.371  89.906  0.00  0.00    +0.000 C 
ATOM      7  C   UNL     1     139.687 130.491  90.984  0.00  0.00    +0.000 C 
ATOM      8  C   UNL     1     139.630 129.584  89.801  0.00  0.00    +0.000 C 
ATOM      9  C   UNL     1     141.333 126.830  91.390  0.00  0.00    +0.000 C 
ATOM     10  C   UNL     1     142.769 128.668  90.573  0.00  0.00    +0.000 C 
ATOM     11  C   UNL     1     139.294 130.528  93.419  0.00  0.00    +0.000 C 
ATOM     12  C   UNL     1     140.911 125.526  90.747  0.00  0.00    +0.000 C 
ATOM     13  C   UNL     1     139.639 126.309  88.716  0.00  0.00    +0.000 C 
ATOM     14  C   UNL     1     140.258 125.075  89.540  0.00  0.00    +0.000 C 
ATOM     15  C   UNL     1     139.586 125.962  87.192  0.00  0.00    +0.000 C 
ATOM     16  C   UNL     1     138.176 126.585  89.227  0.00  0.00    +0.000 C 
ENDROOT
BRANCH   5  17
ATOM     17  O   UNL     1     141.220 131.461  92.456  0.00  0.00    +0.000 OA
ATOM     18  H   UNL     1     140.639 132.227  92.299  0.00  0.00    +0.000 HD
ENDBRANCH   5  17
BRANCH   3  19
ATOM     19  C   UNL     1     141.706 128.706  93.612  0.00  0.00    +0.000 C 
ATOM     20  C   UNL     1     142.398 128.325  94.924  0.00  0.00    +0.000 C 
BRANCH  20  24
ATOM     21  C   UNL     1     145.655 127.845  96.451  0.00  0.00    +0.000 C 
ATOM     22  C   UNL     1     144.332 127.091  96.174  0.00  0.00    +0.000 C 
ATOM     23  C   UNL     1     146.009 128.559  97.730  0.00  0.00    +0.000 C 
ATOM     24  C   UNL     1     143.055 127.966  96.148  0.00  0.00    +0.000 C 
ATOM     25  C   UNL     1     147.416 129.159  97.678  0.00  0.00    +0.000 C 
ATOM     26  C   UNL     1     146.792 127.952  95.599  0.00  0.00    +0.000 C 
ATOM     27  C   UNL     1     147.836 128.729  96.350  0.00  0.00    +0.000 C 
ATOM     28  C   UNL     1     144.907 129.016  98.482  0.00  0.00    +0.000 C 
ATOM     29  C   UNL     1     142.538 128.533  97.395  0.00  0.00    +0.000 C 
ATOM     30  C   UNL     1     144.474 126.358  94.784  0.00  0.00    +0.000 C 
ATOM     31  C   UNL     1     144.175 125.957  97.243  0.00  0.00    +0.000 C 
ATOM     32  C   UNL     1     143.421 128.944  98.250  0.00  0.00    +0.000 C 
ATOM     33  C   UNL     1     148.279 128.694  98.838  0.00  0.00    +0.000 C 
ATOM     34  C   UNL     1     141.134 129.054  97.562  0.00  0.00    +0.000 C 
BRANCH  25  35
ATOM     35  O   UNL     1     147.354 130.563  97.742  0.00  0.00    +0.000 OA
ATOM     36  H   UNL     1     147.987 130.804  97.043  0.00  0.00    +0.000 HD
ENDBRANCH  25  35
ENDBRANCH  20  24
ENDBRANCH   3  19
TORSDOF 4
ENDMDL
