MODEL 1
REMARK VINA RESULT:      -6.4      0.000      0.000
REMARK  Name = 445154_Resveratrol.pdbqt.pdb
REMARK  5 active torsions:
REMARK  status: ('A' for Active; 'I' for Inactive)
REMARK    1  A    between atoms: C_1  and  C_11
REMARK    2  A    between atoms: C_4  and  O_7
REMARK    3  A    between atoms: C_5  and  O_9
REMARK    4  A    between atoms: C_12  and  C_13
REMARK    5  A    between atoms: C_18  and  O_19
REMARK                            x       y       z     vdW  Elec       q    Type
REMARK                         _______ _______ _______ _____ _____    ______ ____
ROOT
ATOM      1  C   UNL     1     139.014 125.704 132.424  0.00  0.00    +0.000 A 
ATOM      2  C   UNL     1     139.838 125.117 131.465  0.00  0.00    +0.000 A 
ATOM      3  C   UNL     1     139.246 127.015 132.841  0.00  0.00    +0.000 A 
ATOM      4  C   UNL     1     140.307 127.730 132.291  0.00  0.00    +0.000 A 
ATOM      5  C   UNL     1     140.892 125.849 130.929  0.00  0.00    +0.000 A 
ATOM      6  C   UNL     1     141.136 127.157 131.333  0.00  0.00    +0.000 A 
ENDROOT
BRANCH   4   7
ATOM      7  O   UNL     1     140.557 129.014 132.680  0.00  0.00    +0.000 OA
ATOM      8  H   UNL     1     141.501 129.199 132.527  0.00  0.00    +0.000 HD
ENDBRANCH   4   7
BRANCH   5   9
ATOM      9  O   UNL     1     141.686 125.252 129.991  0.00  0.00    +0.000 OA
ATOM     10  H   UNL     1     142.046 124.435 130.378  0.00  0.00    +0.000 HD
ENDBRANCH   5   9
BRANCH   1  11
ATOM     11  C   UNL     1     137.930 124.965 132.983  0.00  0.00    +0.000 C 
ATOM     12  C   UNL     1     137.017 124.342 133.453  0.00  0.00    +0.000 C 
BRANCH  12  13
ATOM     13  C   UNL     1     135.933 123.601 134.010  0.00  0.00    +0.000 A 
ATOM     14  C   UNL     1     135.284 124.072 135.152  0.00  0.00    +0.000 A 
ATOM     15  C   UNL     1     135.525 122.409 133.413  0.00  0.00    +0.000 A 
ATOM     16  C   UNL     1     134.226 123.352 135.697  0.00  0.00    +0.000 A 
ATOM     17  C   UNL     1     134.467 121.685 133.956  0.00  0.00    +0.000 A 
ATOM     18  C   UNL     1     133.825 122.162 135.095  0.00  0.00    +0.000 A 
BRANCH  18  19
ATOM     19  O   UNL     1     132.791 121.436 135.609  0.00  0.00    +0.000 OA
ATOM     20  H   UNL     1     132.434 120.871 134.902  0.00  0.00    +0.000 HD
ENDBRANCH  18  19
ENDBRANCH  12  13
ENDBRANCH   1  11
TORSDOF 5
ENDMDL
MODEL 2
REMARK VINA RESULT:      -6.1     30.501     33.411
REMARK  Name = 445154_Resveratrol.pdbqt.pdb
REMARK  5 active torsions:
REMARK  status: ('A' for Active; 'I' for Inactive)
REMARK    1  A    between atoms: C_1  and  C_11
REMARK    2  A    between atoms: C_4  and  O_7
REMARK    3  A    between atoms: C_5  and  O_9
REMARK    4  A    between atoms: C_12  and  C_13
REMARK    5  A    between atoms: C_18  and  O_19
REMARK                            x       y       z     vdW  Elec       q    Type
REMARK                         _______ _______ _______ _____ _____    ______ ____
ROOT
ATOM      1  C   UNL     1     144.481 125.832 102.058  0.00  0.00    +0.000 A 
ATOM      2  C   UNL     1     144.031 125.583 103.354  0.00  0.00    +0.000 A 
ATOM      3  C   UNL     1     145.420 126.835 101.821  0.00  0.00    +0.000 A 
ATOM      4  C   UNL     1     145.905 127.585 102.890  0.00  0.00    +0.000 A 
ATOM      5  C   UNL     1     144.528 126.344 104.407  0.00  0.00    +0.000 A 
ATOM      6  C   UNL     1     145.466 127.348 104.188  0.00  0.00    +0.000 A 
ENDROOT
BRANCH   4   7
ATOM      7  O   UNL     1     146.825 128.573 102.688  0.00  0.00    +0.000 OA
ATOM      8  H   UNL     1     147.619 128.171 102.291  0.00  0.00    +0.000 HD
ENDBRANCH   4   7
BRANCH   5   9
ATOM      9  O   UNL     1     144.073 126.082 105.668  0.00  0.00    +0.000 OA
ATOM     10  H   UNL     1     144.724 125.508 106.109  0.00  0.00    +0.000 HD
ENDBRANCH   5   9
BRANCH   1  11
ATOM     11  C   UNL     1     143.979 125.060 100.969  0.00  0.00    +0.000 C 
ATOM     12  C   UNL     1     143.556 124.408 100.052  0.00  0.00    +0.000 C 
BRANCH  12  13
ATOM     13  C   UNL     1     143.054 123.635  98.964  0.00  0.00    +0.000 A 
ATOM     14  C   UNL     1     141.681 123.578  98.728  0.00  0.00    +0.000 A 
ATOM     15  C   UNL     1     143.937 122.939  98.139  0.00  0.00    +0.000 A 
ATOM     16  C   UNL     1     141.188 122.825  97.667  0.00  0.00    +0.000 A 
ATOM     17  C   UNL     1     143.448 122.184  97.077  0.00  0.00    +0.000 A 
ATOM     18  C   UNL     1     142.077 122.132  96.849  0.00  0.00    +0.000 A 
BRANCH  18  19
ATOM     19  O   UNL     1     141.621 121.386  95.802  0.00  0.00    +0.000 OA
ATOM     20  H   UNL     1     141.757 121.894  94.983  0.00  0.00    +0.000 HD
ENDBRANCH  18  19
ENDBRANCH  12  13
ENDBRANCH   1  11
TORSDOF 5
ENDMDL
MODEL 3
REMARK VINA RESULT:      -5.9      2.122      7.561
REMARK  Name = 445154_Resveratrol.pdbqt.pdb
REMARK  5 active torsions:
REMARK  status: ('A' for Active; 'I' for Inactive)
REMARK    1  A    between atoms: C_1  and  C_11
REMARK    2  A    between atoms: C_4  and  O_7
REMARK    3  A    between atoms: C_5  and  O_9
REMARK    4  A    between atoms: C_12  and  C_13
REMARK    5  A    between atoms: C_18  and  O_19
REMARK                            x       y       z     vdW  Elec       q    Type
REMARK                         _______ _______ _______ _____ _____    ______ ____
ROOT
ATOM      1  C   UNL     1     137.315 123.479 134.988  0.00  0.00    +0.000 A 
ATOM      2  C   UNL     1     135.924 123.522 134.897  0.00  0.00    +0.000 A 
ATOM      3  C   UNL     1     137.928 122.851 136.071  0.00  0.00    +0.000 A 
ATOM      4  C   UNL     1     137.141 122.266 137.060  0.00  0.00    +0.000 A 
ATOM      5  C   UNL     1     135.155 122.933 135.896  0.00  0.00    +0.000 A 
ATOM      6  C   UNL     1     135.752 122.301 136.982  0.00  0.00    +0.000 A 
ENDROOT
BRANCH   4   7
ATOM      7  O   UNL     1     137.714 121.644 138.131  0.00  0.00    +0.000 OA
ATOM      8  H   UNL     1     138.678 121.636 137.997  0.00  0.00    +0.000 HD
ENDBRANCH   4   7
BRANCH   5   9
ATOM      9  O   UNL     1     133.795 122.987 135.786  0.00  0.00    +0.000 OA
ATOM     10  H   UNL     1     133.415 122.438 136.494  0.00  0.00    +0.000 HD
ENDBRANCH   5   9
BRANCH   1  11
ATOM     11  C   UNL     1     138.114 124.081 133.972  0.00  0.00    +0.000 C 
ATOM     12  C   UNL     1     138.788 124.587 133.115  0.00  0.00    +0.000 C 
BRANCH  12  13
ATOM     13  C   UNL     1     139.586 125.187 132.098  0.00  0.00    +0.000 A 
ATOM     14  C   UNL     1     139.080 126.254 131.356  0.00  0.00    +0.000 A 
ATOM     15  C   UNL     1     140.871 124.707 131.847  0.00  0.00    +0.000 A 
ATOM     16  C   UNL     1     139.857 126.843 130.363  0.00  0.00    +0.000 A 
ATOM     17  C   UNL     1     141.652 125.293 130.855  0.00  0.00    +0.000 A 
ATOM     18  C   UNL     1     141.138 126.356 130.120  0.00  0.00    +0.000 A 
BRANCH  18  19
ATOM     19  O   UNL     1     141.922 126.914 129.152  0.00  0.00    +0.000 OA
ATOM     20  H   UNL     1     142.795 127.105 129.539  0.00  0.00    +0.000 HD
ENDBRANCH  18  19
ENDBRANCH  12  13
ENDBRANCH   1  11
TORSDOF 5
ENDMDL
MODEL 4
REMARK VINA RESULT:      -5.9      2.438      3.726
REMARK  Name = 445154_Resveratrol.pdbqt.pdb
REMARK  5 active torsions:
REMARK  status: ('A' for Active; 'I' for Inactive)
REMARK    1  A    between atoms: C_1  and  C_11
REMARK    2  A    between atoms: C_4  and  O_7
REMARK    3  A    between atoms: C_5  and  O_9
REMARK    4  A    between atoms: C_12  and  C_13
REMARK    5  A    between atoms: C_18  and  O_19
REMARK                            x       y       z     vdW  Elec       q    Type
REMARK                         _______ _______ _______ _____ _____    ______ ____
ROOT
ATOM      1  C   UNL     1     137.352 123.685 134.342  0.00  0.00    +0.000 A 
ATOM      2  C   UNL     1     137.427 124.641 133.330  0.00  0.00    +0.000 A 
ATOM      3  C   UNL     1     138.485 123.361 135.087  0.00  0.00    +0.000 A 
ATOM      4  C   UNL     1     139.691 124.000 134.812  0.00  0.00    +0.000 A 
ATOM      5  C   UNL     1     138.642 125.267 133.070  0.00  0.00    +0.000 A 
ATOM      6  C   UNL     1     139.781 124.956 133.805  0.00  0.00    +0.000 A 
ENDROOT
BRANCH   4   7
ATOM      7  O   UNL     1     140.816 123.703 135.526  0.00  0.00    +0.000 OA
ATOM      8  H   UNL     1     141.585 124.044 135.036  0.00  0.00    +0.000 HD
ENDBRANCH   4   7
BRANCH   5   9
ATOM      9  O   UNL     1     138.692 126.200 132.074  0.00  0.00    +0.000 OA
ATOM     10  H   UNL     1     137.947 126.034 131.470  0.00  0.00    +0.000 HD
ENDBRANCH   5   9
BRANCH   1  11
ATOM     11  C   UNL     1     136.112 123.035 134.617  0.00  0.00    +0.000 C 
ATOM     12  C   UNL     1     135.069 122.487 134.849  0.00  0.00    +0.000 C 
BRANCH  12  13
ATOM     13  C   UNL     1     133.830 121.837 135.125  0.00  0.00    +0.000 A 
ATOM     14  C   UNL     1     133.486 120.675 134.436  0.00  0.00    +0.000 A 
ATOM     15  C   UNL     1     132.965 122.365 136.084  0.00  0.00    +0.000 A 
ATOM     16  C   UNL     1     132.278 120.038 134.703  0.00  0.00    +0.000 A 
ATOM     17  C   UNL     1     131.756 121.732 136.354  0.00  0.00    +0.000 A 
ATOM     18  C   UNL     1     131.421 120.573 135.661  0.00  0.00    +0.000 A 
BRANCH  18  19
ATOM     19  O   UNL     1     130.230 119.970 135.944  0.00  0.00    +0.000 OA
ATOM     20  H   UNL     1     130.392 119.263 136.592  0.00  0.00    +0.000 HD
ENDBRANCH  18  19
ENDBRANCH  12  13
ENDBRANCH   1  11
TORSDOF 5
ENDMDL
MODEL 5
REMARK VINA RESULT:      -5.9      1.754      7.464
REMARK  Name = 445154_Resveratrol.pdbqt.pdb
REMARK  5 active torsions:
REMARK  status: ('A' for Active; 'I' for Inactive)
REMARK    1  A    between atoms: C_1  and  C_11
REMARK    2  A    between atoms: C_4  and  O_7
REMARK    3  A    between atoms: C_5  and  O_9
REMARK    4  A    between atoms: C_12  and  C_13
REMARK    5  A    between atoms: C_18  and  O_19
REMARK                            x       y       z     vdW  Elec       q    Type
REMARK                         _______ _______ _______ _____ _____    ______ ____
ROOT
ATOM      1  C   UNL     1     136.863 122.937 134.197  0.00  0.00    +0.000 A 
ATOM      2  C   UNL     1     137.306 121.616 134.156  0.00  0.00    +0.000 A 
ATOM      3  C   UNL     1     135.545 123.226 134.549  0.00  0.00    +0.000 A 
ATOM      4  C   UNL     1     134.676 122.183 134.859  0.00  0.00    +0.000 A 
ATOM      5  C   UNL     1     136.421 120.589 134.470  0.00  0.00    +0.000 A 
ATOM      6  C   UNL     1     135.103 120.860 134.823  0.00  0.00    +0.000 A 
ENDROOT
BRANCH   4   7
ATOM      7  O   UNL     1     133.380 122.436 135.207  0.00  0.00    +0.000 OA
ATOM      8  H   UNL     1     133.380 122.885 136.071  0.00  0.00    +0.000 HD
ENDBRANCH   4   7
BRANCH   5   9
ATOM      9  O   UNL     1     136.877 119.303 134.424  0.00  0.00    +0.000 OA
ATOM     10  H   UNL     1     136.647 118.934 133.552  0.00  0.00    +0.000 HD
ENDBRANCH   5   9
BRANCH   1  11
ATOM     11  C   UNL     1     137.760 123.999 133.877  0.00  0.00    +0.000 C 
ATOM     12  C   UNL     1     138.515 124.894 133.607  0.00  0.00    +0.000 C 
BRANCH  12  13
ATOM     13  C   UNL     1     139.411 125.956 133.288  0.00  0.00    +0.000 A 
ATOM     14  C   UNL     1     140.407 126.321 134.194  0.00  0.00    +0.000 A 
ATOM     15  C   UNL     1     139.290 126.628 132.072  0.00  0.00    +0.000 A 
ATOM     16  C   UNL     1     141.284 127.357 133.885  0.00  0.00    +0.000 A 
ATOM     17  C   UNL     1     140.164 127.665 131.759  0.00  0.00    +0.000 A 
ATOM     18  C   UNL     1     141.154 128.022 132.669  0.00  0.00    +0.000 A 
BRANCH  18  19
ATOM     19  O   UNL     1     141.999 129.041 132.340  0.00  0.00    +0.000 OA
ATOM     20  H   UNL     1     142.423 129.362 133.155  0.00  0.00    +0.000 HD
ENDBRANCH  18  19
ENDBRANCH  12  13
ENDBRANCH   1  11
TORSDOF 5
ENDMDL
MODEL 6
REMARK VINA RESULT:      -5.8      2.258      3.216
REMARK  Name = 445154_Resveratrol.pdbqt.pdb
REMARK  5 active torsions:
REMARK  status: ('A' for Active; 'I' for Inactive)
REMARK    1  A    between atoms: C_1  and  C_11
REMARK    2  A    between atoms: C_4  and  O_7
REMARK    3  A    between atoms: C_5  and  O_9
REMARK    4  A    between atoms: C_12  and  C_13
REMARK    5  A    between atoms: C_18  and  O_19
REMARK                            x       y       z     vdW  Elec       q    Type
REMARK                         _______ _______ _______ _____ _____    ______ ____
ROOT
ATOM      1  C   UNL     1     138.169 123.516 134.034  0.00  0.00    +0.000 A 
ATOM      2  C   UNL     1     139.146 123.608 135.024  0.00  0.00    +0.000 A 
ATOM      3  C   UNL     1     138.455 123.912 132.727  0.00  0.00    +0.000 A 
ATOM      4  C   UNL     1     139.723 124.399 132.421  0.00  0.00    +0.000 A 
ATOM      5  C   UNL     1     140.406 124.098 134.698  0.00  0.00    +0.000 A 
ATOM      6  C   UNL     1     140.707 124.496 133.399  0.00  0.00    +0.000 A 
ENDROOT
BRANCH   4   7
ATOM      7  O   UNL     1     140.030 124.793 131.152  0.00  0.00    +0.000 OA
ATOM      8  H   UNL     1     140.871 125.284 131.181  0.00  0.00    +0.000 HD
ENDBRANCH   4   7
BRANCH   5   9
ATOM      9  O   UNL     1     141.347 124.179 135.684  0.00  0.00    +0.000 OA
ATOM     10  H   UNL     1     141.139 124.954 136.234  0.00  0.00    +0.000 HD
ENDBRANCH   5   9
BRANCH   1  11
ATOM     11  C   UNL     1     136.873 123.016 134.355  0.00  0.00    +0.000 C 
ATOM     12  C   UNL     1     135.781 122.596 134.627  0.00  0.00    +0.000 C 
BRANCH  12  13
ATOM     13  C   UNL     1     134.484 122.097 134.950  0.00  0.00    +0.000 A 
ATOM     14  C   UNL     1     133.698 122.761 135.891  0.00  0.00    +0.000 A 
ATOM     15  C   UNL     1     134.005 120.947 134.323  0.00  0.00    +0.000 A 
ATOM     16  C   UNL     1     132.433 122.277 136.207  0.00  0.00    +0.000 A 
ATOM     17  C   UNL     1     132.740 120.459 134.637  0.00  0.00    +0.000 A 
ATOM     18  C   UNL     1     131.963 121.128 135.577  0.00  0.00    +0.000 A 
BRANCH  18  19
ATOM     19  O   UNL     1     130.726 120.631 135.868  0.00  0.00    +0.000 OA
ATOM     20  H   UNL     1     130.153 120.767 135.093  0.00  0.00    +0.000 HD
ENDBRANCH  18  19
ENDBRANCH  12  13
ENDBRANCH   1  11
TORSDOF 5
ENDMDL
MODEL 7
REMARK VINA RESULT:      -5.8     31.113     34.110
REMARK  Name = 445154_Resveratrol.pdbqt.pdb
REMARK  5 active torsions:
REMARK  status: ('A' for Active; 'I' for Inactive)
REMARK    1  A    between atoms: C_1  and  C_11
REMARK    2  A    between atoms: C_4  and  O_7
REMARK    3  A    between atoms: C_5  and  O_9
REMARK    4  A    between atoms: C_12  and  C_13
REMARK    5  A    between atoms: C_18  and  O_19
REMARK                            x       y       z     vdW  Elec       q    Type
REMARK                         _______ _______ _______ _____ _____    ______ ____
ROOT
ATOM      1  C   UNL     1     146.732 128.263  98.780  0.00  0.00    +0.000 A 
ATOM      2  C   UNL     1     147.860 129.082  98.755  0.00  0.00    +0.000 A 
ATOM      3  C   UNL     1     146.094 127.912  97.590  0.00  0.00    +0.000 A 
ATOM      4  C   UNL     1     146.593 128.385  96.380  0.00  0.00    +0.000 A 
ATOM      5  C   UNL     1     148.343 129.544  97.535  0.00  0.00    +0.000 A 
ATOM      6  C   UNL     1     147.718 129.202  96.340  0.00  0.00    +0.000 A 
ENDROOT
BRANCH   4   7
ATOM      7  O   UNL     1     145.989 128.057  95.201  0.00  0.00    +0.000 OA
ATOM      8  H   UNL     1     145.038 128.248  95.283  0.00  0.00    +0.000 HD
ENDBRANCH   4   7
BRANCH   5   9
ATOM      9  O   UNL     1     149.449 130.344  97.536  0.00  0.00    +0.000 OA
ATOM     10  H   UNL     1     150.139 129.903  98.063  0.00  0.00    +0.000 HD
ENDBRANCH   5   9
BRANCH   1  11
ATOM     11  C   UNL     1     146.227 127.783 100.024  0.00  0.00    +0.000 C 
ATOM     12  C   UNL     1     145.802 127.379 101.072  0.00  0.00    +0.000 C 
BRANCH  12  13
ATOM     13  C   UNL     1     145.297 126.900 102.317  0.00  0.00    +0.000 A 
ATOM     14  C   UNL     1     144.118 126.155 102.348  0.00  0.00    +0.000 A 
ATOM     15  C   UNL     1     145.982 127.178 103.500  0.00  0.00    +0.000 A 
ATOM     16  C   UNL     1     143.623 125.686 103.562  0.00  0.00    +0.000 A 
ATOM     17  C   UNL     1     145.490 126.711 104.715  0.00  0.00    +0.000 A 
ATOM     18  C   UNL     1     144.314 125.969 104.737  0.00  0.00    +0.000 A 
BRANCH  18  19
ATOM     19  O   UNL     1     143.851 125.522 105.940  0.00  0.00    +0.000 OA
ATOM     20  H   UNL     1     142.975 125.121 105.801  0.00  0.00    +0.000 HD
ENDBRANCH  18  19
ENDBRANCH  12  13
ENDBRANCH   1  11
TORSDOF 5
ENDMDL
MODEL 8
REMARK VINA RESULT:      -5.8     31.083     34.039
REMARK  Name = 445154_Resveratrol.pdbqt.pdb
REMARK  5 active torsions:
REMARK  status: ('A' for Active; 'I' for Inactive)
REMARK    1  A    between atoms: C_1  and  C_11
REMARK    2  A    between atoms: C_4  and  O_7
REMARK    3  A    between atoms: C_5  and  O_9
REMARK    4  A    between atoms: C_12  and  C_13
REMARK    5  A    between atoms: C_18  and  O_19
REMARK                            x       y       z     vdW  Elec       q    Type
REMARK                         _______ _______ _______ _____ _____    ______ ____
ROOT
ATOM      1  C   UNL     1     146.715 128.266  98.810  0.00  0.00    +0.000 A 
ATOM      2  C   UNL     1     146.068 127.938  97.620  0.00  0.00    +0.000 A 
ATOM      3  C   UNL     1     147.858 129.065  98.792  0.00  0.00    +0.000 A 
ATOM      4  C   UNL     1     148.346 129.534  97.574  0.00  0.00    +0.000 A 
ATOM      5  C   UNL     1     146.572 128.416  96.414  0.00  0.00    +0.000 A 
ATOM      6  C   UNL     1     147.710 129.215  96.379  0.00  0.00    +0.000 A 
ENDROOT
BRANCH   4   7
ATOM      7  O   UNL     1     149.461 130.318  97.526  0.00  0.00    +0.000 OA
ATOM      8  H   UNL     1     150.242 129.737  97.537  0.00  0.00    +0.000 HD
ENDBRANCH   4   7
BRANCH   5   9
ATOM      9  O   UNL     1     145.922 128.082  95.261  0.00  0.00    +0.000 OA
ATOM     10  H   UNL     1     146.588 127.783  94.616  0.00  0.00    +0.000 HD
ENDBRANCH   5   9
BRANCH   1  11
ATOM     11  C   UNL     1     146.209 127.782 100.053  0.00  0.00    +0.000 C 
ATOM     12  C   UNL     1     145.783 127.375 101.100  0.00  0.00    +0.000 C 
BRANCH  12  13
ATOM     13  C   UNL     1     145.276 126.891 102.342  0.00  0.00    +0.000 A 
ATOM     14  C   UNL     1     145.968 127.153 103.524  0.00  0.00    +0.000 A 
ATOM     15  C   UNL     1     144.091 126.157 102.371  0.00  0.00    +0.000 A 
ATOM     16  C   UNL     1     145.475 126.683 104.737  0.00  0.00    +0.000 A 
ATOM     17  C   UNL     1     143.595 125.684 103.583  0.00  0.00    +0.000 A 
ATOM     18  C   UNL     1     144.291 125.950 104.757  0.00  0.00    +0.000 A 
BRANCH  18  19
ATOM     19  O   UNL     1     143.785 125.476 105.932  0.00  0.00    +0.000 OA
ATOM     20  H   UNL     1     144.233 124.638 106.141  0.00  0.00    +0.000 HD
ENDBRANCH  18  19
ENDBRANCH  12  13
ENDBRANCH   1  11
TORSDOF 5
ENDMDL
MODEL 9
REMARK VINA RESULT:      -5.7     32.148     34.986
REMARK  Name = 445154_Resveratrol.pdbqt.pdb
REMARK  5 active torsions:
REMARK  status: ('A' for Active; 'I' for Inactive)
REMARK    1  A    between atoms: C_1  and  C_11
REMARK    2  A    between atoms: C_4  and  O_7
REMARK    3  A    between atoms: C_5  and  O_9
REMARK    4  A    between atoms: C_12  and  C_13
REMARK    5  A    between atoms: C_18  and  O_19
REMARK                            x       y       z     vdW  Elec       q    Type
REMARK                         _______ _______ _______ _____ _____    ______ ____
ROOT
ATOM      1  C   UNL     1     146.139 128.420  97.909  0.00  0.00    +0.000 A 
ATOM      2  C   UNL     1     147.237 129.208  98.253  0.00  0.00    +0.000 A 
ATOM      3  C   UNL     1     145.998 127.944  96.605  0.00  0.00    +0.000 A 
ATOM      4  C   UNL     1     146.961 128.263  95.652  0.00  0.00    +0.000 A 
ATOM      5  C   UNL     1     148.188 129.515  97.285  0.00  0.00    +0.000 A 
ATOM      6  C   UNL     1     148.061 129.048  95.981  0.00  0.00    +0.000 A 
ENDROOT
BRANCH   4   7
ATOM      7  O   UNL     1     146.849 127.811  94.369  0.00  0.00    +0.000 OA
ATOM      8  H   UNL     1     147.041 126.857  94.365  0.00  0.00    +0.000 HD
ENDBRANCH   4   7
BRANCH   5   9
ATOM      9  O   UNL     1     149.254 130.288  97.645  0.00  0.00    +0.000 OA
ATOM     10  H   UNL     1     150.061 129.753  97.542  0.00  0.00    +0.000 HD
ENDBRANCH   5   9
BRANCH   1  11
ATOM     11  C   UNL     1     145.157 128.099  98.891  0.00  0.00    +0.000 C 
ATOM     12  C   UNL     1     144.328 127.828  99.718  0.00  0.00    +0.000 C 
BRANCH  12  13
ATOM     13  C   UNL     1     143.346 127.506 100.700  0.00  0.00    +0.000 A 
ATOM     14  C   UNL     1     141.997 127.473 100.349  0.00  0.00    +0.000 A 
ATOM     15  C   UNL     1     143.736 127.225 102.009  0.00  0.00    +0.000 A 
ATOM     16  C   UNL     1     141.036 127.159 101.305  0.00  0.00    +0.000 A 
ATOM     17  C   UNL     1     142.778 126.910 102.969  0.00  0.00    +0.000 A 
ATOM     18  C   UNL     1     141.435 126.880 102.609  0.00  0.00    +0.000 A 
BRANCH  18  19
ATOM     19  O   UNL     1     140.514 126.569 103.567  0.00  0.00    +0.000 OA
ATOM     20  H   UNL     1     140.147 125.691 103.364  0.00  0.00    +0.000 HD
ENDBRANCH  18  19
ENDBRANCH  12  13
ENDBRANCH   1  11
TORSDOF 5
ENDMDL
