MODEL 1
REMARK VINA RESULT:      -7.1      0.000      0.000
REMARK  Name = 448438_Violaxanthin.pdbqt.pdb
REMARK  16 active torsions:
REMARK  status: ('A' for Active; 'I' for Inactive)
REMARK    1  A    between atoms: C_1  and  C_5
REMARK    2  A    between atoms: C_2  and  C_27
REMARK    3  A    between atoms: C_3  and  C_5
REMARK    4  A    between atoms: C_3  and  C_7
REMARK    5  A    between atoms: C_6  and  C_10
REMARK    6  A    between atoms: C_8  and  C_10
REMARK    7  A    between atoms: C_8  and  C_12
REMARK    8  A    between atoms: C_11  and  C_14
REMARK    9  A    between atoms: C_19  and  O_23
REMARK   10  A    between atoms: C_25  and  C_27
REMARK   11  A    between atoms: C_25  and  C_29
REMARK   12  A    between atoms: C_28  and  C_32
REMARK   13  A    between atoms: C_30  and  C_32
REMARK   14  A    between atoms: C_30  and  C_34
REMARK   15  A    between atoms: C_33  and  C_36
REMARK   16  A    between atoms: C_41  and  O_45
REMARK                            x       y       z     vdW  Elec       q    Type
REMARK                         _______ _______ _______ _____ _____    ______ ____
ROOT
ATOM      1  C   UNL     1     129.781 126.164 140.953  0.00  0.00    +0.000 C 
ATOM      2  C   UNL     1     130.337 126.845 141.770  0.00  0.00    +0.000 C 
ENDROOT
BRANCH   2   3
ATOM      3  C   UNL     1     131.046 127.718 142.811  0.00  0.00    +0.000 C 
BRANCH   3   4
ATOM      4  C   UNL     1     131.646 128.454 143.694  0.00  0.00    +0.000 C 
ATOM      5  C   UNL     1     130.942 129.641 144.278  0.00  0.00    +0.000 C 
BRANCH   4   7
ATOM      6  C   UNL     1     134.125 127.943 144.356  0.00  0.00    +0.000 C 
ATOM      7  C   UNL     1     132.986 128.177 144.052  0.00  0.00    +0.000 C 
BRANCH   6   8
ATOM      8  C   UNL     1     135.578 127.641 144.743  0.00  0.00    +0.000 C 
BRANCH   8   9
ATOM      9  C   UNL     1     136.807 127.384 145.068  0.00  0.00    +0.000 C 
ATOM     10  C   UNL     1     137.799 127.016 144.008  0.00  0.00    +0.000 C 
BRANCH   9  12
ATOM     11  C   UNL     1     137.606 127.724 147.539  0.00  0.00    +0.000 C 
ATOM     12  C   UNL     1     137.235 127.570 146.406  0.00  0.00    +0.000 C 
BRANCH  11  14
ATOM     13  O   UNL     1     138.425 126.601 149.468  0.00  0.00    +0.000 OA
ATOM     14  C   UNL     1     138.076 127.897 148.906  0.00  0.00    +0.000 C 
ATOM     15  C   UNL     1     139.520 127.494 149.271  0.00  0.00    +0.000 C 
ATOM     16  C   UNL     1     137.328 128.891 149.858  0.00  0.00    +0.000 C 
ATOM     17  C   UNL     1     140.038 127.990 150.504  0.00  0.00    +0.000 C 
ATOM     18  C   UNL     1     138.165 129.069 151.053  0.00  0.00    +0.000 C 
ATOM     19  C   UNL     1     139.461 128.771 151.520  0.00  0.00    +0.000 C 
ATOM     20  C   UNL     1     140.534 126.995 148.237  0.00  0.00    +0.000 C 
ATOM     21  C   UNL     1     137.216 130.224 149.079  0.00  0.00    +0.000 C 
ATOM     22  C   UNL     1     135.956 128.256 150.169  0.00  0.00    +0.000 C 
BRANCH  19  23
ATOM     23  O   UNL     1     139.734 128.546 152.835  0.00  0.00    +0.000 OA
ATOM     24  H   UNL     1     140.430 129.132 153.181  0.00  0.00    +0.000 HD
ENDBRANCH  19  23
ENDBRANCH  11  14
ENDBRANCH   9  12
ENDBRANCH   8   9
ENDBRANCH   6   8
ENDBRANCH   4   7
ENDBRANCH   3   4
ENDBRANCH   2   3
BRANCH   1  25
ATOM     25  C   UNL     1     129.071 125.292 139.910  0.00  0.00    +0.000 C 
BRANCH  25  26
ATOM     26  C   UNL     1     128.471 124.555 139.029  0.00  0.00    +0.000 C 
ATOM     27  C   UNL     1     127.008 124.749 138.766  0.00  0.00    +0.000 C 
BRANCH  26  29
ATOM     28  C   UNL     1     129.823 122.770 137.678  0.00  0.00    +0.000 C 
ATOM     29  C   UNL     1     129.201 123.588 138.300  0.00  0.00    +0.000 C 
BRANCH  28  30
ATOM     30  C   UNL     1     130.617 121.730 136.878  0.00  0.00    +0.000 C 
BRANCH  30  31
ATOM     31  C   UNL     1     131.285 120.848 136.201  0.00  0.00    +0.000 C 
ATOM     32  C   UNL     1     130.706 119.485 135.976  0.00  0.00    +0.000 C 
BRANCH  31  34
ATOM     33  C   UNL     1     133.601 121.487 135.157  0.00  0.00    +0.000 C 
ATOM     34  C   UNL     1     132.537 121.191 135.635  0.00  0.00    +0.000 C 
BRANCH  33  36
ATOM     35  O   UNL     1     135.611 120.644 134.198  0.00  0.00    +0.000 OA
ATOM     36  C   UNL     1     134.889 121.849 134.584  0.00  0.00    +0.000 C 
ATOM     37  C   UNL     1     135.202 121.482 133.119  0.00  0.00    +0.000 C 
ATOM     38  C   UNL     1     135.740 122.983 135.260  0.00  0.00    +0.000 C 
ATOM     39  C   UNL     1     136.305 122.146 132.503  0.00  0.00    +0.000 C 
ATOM     40  C   UNL     1     136.808 123.334 134.321  0.00  0.00    +0.000 C 
ATOM     41  C   UNL     1     137.224 123.086 132.998  0.00  0.00    +0.000 C 
ATOM     42  C   UNL     1     134.197 120.811 132.179  0.00  0.00    +0.000 C 
ATOM     43  C   UNL     1     136.252 122.397 136.595  0.00  0.00    +0.000 C 
ATOM     44  C   UNL     1     134.766 124.171 135.463  0.00  0.00    +0.000 C 
BRANCH  41  45
ATOM     45  O   UNL     1     137.759 124.072 132.226  0.00  0.00    +0.000 OA
ATOM     46  H   UNL     1     138.311 123.721 131.505  0.00  0.00    +0.000 HD
ENDBRANCH  41  45
ENDBRANCH  33  36
ENDBRANCH  31  34
ENDBRANCH  30  31
ENDBRANCH  28  30
ENDBRANCH  26  29
ENDBRANCH  25  26
ENDBRANCH   1  25
TORSDOF 16
ENDMDL
MODEL 2
REMARK VINA RESULT:      -6.9     11.639     17.930
REMARK  Name = 448438_Violaxanthin.pdbqt.pdb
REMARK  16 active torsions:
REMARK  status: ('A' for Active; 'I' for Inactive)
REMARK    1  A    between atoms: C_1  and  C_5
REMARK    2  A    between atoms: C_2  and  C_27
REMARK    3  A    between atoms: C_3  and  C_5
REMARK    4  A    between atoms: C_3  and  C_7
REMARK    5  A    between atoms: C_6  and  C_10
REMARK    6  A    between atoms: C_8  and  C_10
REMARK    7  A    between atoms: C_8  and  C_12
REMARK    8  A    between atoms: C_11  and  C_14
REMARK    9  A    between atoms: C_19  and  O_23
REMARK   10  A    between atoms: C_25  and  C_27
REMARK   11  A    between atoms: C_25  and  C_29
REMARK   12  A    between atoms: C_28  and  C_32
REMARK   13  A    between atoms: C_30  and  C_32
REMARK   14  A    between atoms: C_30  and  C_34
REMARK   15  A    between atoms: C_33  and  C_36
REMARK   16  A    between atoms: C_41  and  O_45
REMARK                            x       y       z     vdW  Elec       q    Type
REMARK                         _______ _______ _______ _____ _____    ______ ____
ROOT
ATOM      1  C   UNL     1     147.276 118.373 134.754  0.00  0.00    +0.000 C 
ATOM      2  C   UNL     1     146.505 118.981 135.444  0.00  0.00    +0.000 C 
ENDROOT
BRANCH   2   3
ATOM      3  C   UNL     1     145.519 119.759 136.323  0.00  0.00    +0.000 C 
BRANCH   3   4
ATOM      4  C   UNL     1     144.688 120.417 137.068  0.00  0.00    +0.000 C 
ATOM      5  C   UNL     1     144.823 120.367 138.560  0.00  0.00    +0.000 C 
BRANCH   4   7
ATOM      6  C   UNL     1     142.704 121.724 135.974  0.00  0.00    +0.000 C 
ATOM      7  C   UNL     1     143.615 121.124 136.477  0.00  0.00    +0.000 C 
BRANCH   6   8
ATOM      8  C   UNL     1     141.541 122.492 135.332  0.00  0.00    +0.000 C 
BRANCH   8   9
ATOM      9  C   UNL     1     140.561 123.142 134.785  0.00  0.00    +0.000 C 
ATOM     10  C   UNL     1     140.834 124.120 133.685  0.00  0.00    +0.000 C 
BRANCH   9  12
ATOM     11  C   UNL     1     138.089 122.577 135.442  0.00  0.00    +0.000 C 
ATOM     12  C   UNL     1     139.225 122.835 135.145  0.00  0.00    +0.000 C 
BRANCH  11  14
ATOM     13  O   UNL     1     136.645 121.003 136.485  0.00  0.00    +0.000 OA
ATOM     14  C   UNL     1     136.706 122.275 135.781  0.00  0.00    +0.000 C 
ATOM     15  C   UNL     1     136.296 122.147 137.264  0.00  0.00    +0.000 C 
ATOM     16  C   UNL     1     135.578 122.544 134.728  0.00  0.00    +0.000 C 
ATOM     17  C   UNL     1     134.901 122.194 137.555  0.00  0.00    +0.000 C 
ATOM     18  C   UNL     1     134.289 122.414 135.422  0.00  0.00    +0.000 C 
ATOM     19  C   UNL     1     133.770 122.295 136.727  0.00  0.00    +0.000 C 
ATOM     20  C   UNL     1     137.262 122.412 138.422  0.00  0.00    +0.000 C 
ATOM     21  C   UNL     1     135.783 124.001 134.247  0.00  0.00    +0.000 C 
ATOM     22  C   UNL     1     135.768 121.505 133.603  0.00  0.00    +0.000 C 
BRANCH  19  23
ATOM     23  O   UNL     1     132.622 121.617 137.001  0.00  0.00    +0.000 OA
ATOM     24  H   UNL     1     132.619 121.226 137.893  0.00  0.00    +0.000 HD
ENDBRANCH  19  23
ENDBRANCH  11  14
ENDBRANCH   9  12
ENDBRANCH   8   9
ENDBRANCH   6   8
ENDBRANCH   4   7
ENDBRANCH   3   4
ENDBRANCH   2   3
BRANCH   1  25
ATOM     25  C   UNL     1     148.262 117.595 133.874  0.00  0.00    +0.000 C 
BRANCH  25  26
ATOM     26  C   UNL     1     149.095 116.938 133.130  0.00  0.00    +0.000 C 
ATOM     27  C   UNL     1     150.039 115.956 133.756  0.00  0.00    +0.000 C 
BRANCH  26  29
ATOM     28  C   UNL     1     149.093 117.293 130.539  0.00  0.00    +0.000 C 
ATOM     29  C   UNL     1     149.096 117.129 131.729  0.00  0.00    +0.000 C 
BRANCH  28  30
ATOM     30  C   UNL     1     149.085 117.508 129.020  0.00  0.00    +0.000 C 
BRANCH  30  31
ATOM     31  C   UNL     1     149.076 117.694 127.738  0.00  0.00    +0.000 C 
ATOM     32  C   UNL     1     148.045 117.011 126.891  0.00  0.00    +0.000 C 
BRANCH  31  34
ATOM     33  C   UNL     1     150.800 119.336 126.645  0.00  0.00    +0.000 C 
ATOM     34  C   UNL     1     150.009 118.580 127.145  0.00  0.00    +0.000 C 
BRANCH  33  36
ATOM     35  O   UNL     1     151.245 121.615 126.118  0.00  0.00    +0.000 OA
ATOM     36  C   UNL     1     151.757 120.254 126.045  0.00  0.00    +0.000 C 
ATOM     37  C   UNL     1     152.401 121.357 126.911  0.00  0.00    +0.000 C 
ATOM     38  C   UNL     1     152.476 119.852 124.708  0.00  0.00    +0.000 C 
ATOM     39  C   UNL     1     153.567 121.996 126.391  0.00  0.00    +0.000 C 
ATOM     40  C   UNL     1     153.576 120.798 124.510  0.00  0.00    +0.000 C 
ATOM     41  C   UNL     1     154.257 121.834 125.179  0.00  0.00    +0.000 C 
ATOM     42  C   UNL     1     152.151 121.510 128.414  0.00  0.00    +0.000 C 
ATOM     43  C   UNL     1     151.394 119.914 123.605  0.00  0.00    +0.000 C 
ATOM     44  C   UNL     1     153.012 118.416 124.938  0.00  0.00    +0.000 C 
BRANCH  41  45
ATOM     45  O   UNL     1     155.607 121.978 125.073  0.00  0.00    +0.000 OA
ATOM     46  H   UNL     1     155.938 121.743 124.187  0.00  0.00    +0.000 HD
ENDBRANCH  41  45
ENDBRANCH  33  36
ENDBRANCH  31  34
ENDBRANCH  30  31
ENDBRANCH  28  30
ENDBRANCH  26  29
ENDBRANCH  25  26
ENDBRANCH   1  25
TORSDOF 16
ENDMDL
MODEL 3
REMARK VINA RESULT:      -6.9     22.792     31.892
REMARK  Name = 448438_Violaxanthin.pdbqt.pdb
REMARK  16 active torsions:
REMARK  status: ('A' for Active; 'I' for Inactive)
REMARK    1  A    between atoms: C_1  and  C_5
REMARK    2  A    between atoms: C_2  and  C_27
REMARK    3  A    between atoms: C_3  and  C_5
REMARK    4  A    between atoms: C_3  and  C_7
REMARK    5  A    between atoms: C_6  and  C_10
REMARK    6  A    between atoms: C_8  and  C_10
REMARK    7  A    between atoms: C_8  and  C_12
REMARK    8  A    between atoms: C_11  and  C_14
REMARK    9  A    between atoms: C_19  and  O_23
REMARK   10  A    between atoms: C_25  and  C_27
REMARK   11  A    between atoms: C_25  and  C_29
REMARK   12  A    between atoms: C_28  and  C_32
REMARK   13  A    between atoms: C_30  and  C_32
REMARK   14  A    between atoms: C_30  and  C_34
REMARK   15  A    between atoms: C_33  and  C_36
REMARK   16  A    between atoms: C_41  and  O_45
REMARK                            x       y       z     vdW  Elec       q    Type
REMARK                         _______ _______ _______ _____ _____    ______ ____
ROOT
ATOM      1  C   UNL     1     149.441 114.848 115.354  0.00  0.00    +0.000 C 
ATOM      2  C   UNL     1     148.691 114.698 114.430  0.00  0.00    +0.000 C 
ENDROOT
BRANCH   2   3
ATOM      3  C   UNL     1     147.735 114.505 113.247  0.00  0.00    +0.000 C 
BRANCH   3   4
ATOM      4  C   UNL     1     146.929 114.342 112.245  0.00  0.00    +0.000 C 
ATOM      5  C   UNL     1     147.268 113.356 111.168  0.00  0.00    +0.000 C 
BRANCH   4   7
ATOM      6  C   UNL     1     144.780 115.819 112.041  0.00  0.00    +0.000 C 
ATOM      7  C   UNL     1     145.767 115.141 112.135  0.00  0.00    +0.000 C 
BRANCH   6   8
ATOM      8  C   UNL     1     143.520 116.686 111.919  0.00  0.00    +0.000 C 
BRANCH   8   9
ATOM      9  C   UNL     1     142.457 117.421 111.818  0.00  0.00    +0.000 C 
ATOM     10  C   UNL     1     142.587 118.889 111.547  0.00  0.00    +0.000 C 
BRANCH   9  12
ATOM     11  C   UNL     1     140.089 116.303 111.849  0.00  0.00    +0.000 C 
ATOM     12  C   UNL     1     141.176 116.815 111.839  0.00  0.00    +0.000 C 
BRANCH  11  14
ATOM     13  O   UNL     1     138.173 115.844 110.519  0.00  0.00    +0.000 OA
ATOM     14  C   UNL     1     138.770 115.688 111.837  0.00  0.00    +0.000 C 
ATOM     15  C   UNL     1     138.491 114.503 110.888  0.00  0.00    +0.000 C 
ATOM     16  C   UNL     1     137.814 115.887 113.062  0.00  0.00    +0.000 C 
ATOM     17  C   UNL     1     137.324 113.726 111.150  0.00  0.00    +0.000 C 
ATOM     18  C   UNL     1     136.693 114.951 112.903  0.00  0.00    +0.000 C 
ATOM     19  C   UNL     1     136.307 113.851 112.111  0.00  0.00    +0.000 C 
ATOM     20  C   UNL     1     139.571 113.869 110.006  0.00  0.00    +0.000 C 
ATOM     21  C   UNL     1     138.646 115.520 114.314  0.00  0.00    +0.000 C 
ATOM     22  C   UNL     1     137.375 117.367 113.043  0.00  0.00    +0.000 C 
BRANCH  19  23
ATOM     23  O   UNL     1     135.006 113.580 111.814  0.00  0.00    +0.000 OA
ATOM     24  H   UNL     1     134.691 112.754 112.221  0.00  0.00    +0.000 HD
ENDBRANCH  19  23
ENDBRANCH  11  14
ENDBRANCH   9  12
ENDBRANCH   8   9
ENDBRANCH   6   8
ENDBRANCH   4   7
ENDBRANCH   3   4
ENDBRANCH   2   3
BRANCH   1  25
ATOM     25  C   UNL     1     150.399 115.040 116.536  0.00  0.00    +0.000 C 
BRANCH  25  26
ATOM     26  C   UNL     1     151.208 115.203 117.535  0.00  0.00    +0.000 C 
ATOM     27  C   UNL     1     152.612 115.669 117.290  0.00  0.00    +0.000 C 
BRANCH  26  29
ATOM     28  C   UNL     1     150.376 114.764 119.975  0.00  0.00    +0.000 C 
ATOM     29  C   UNL     1     150.760 114.967 118.855  0.00  0.00    +0.000 C 
BRANCH  28  30
ATOM     30  C   UNL     1     149.879 114.503 121.403  0.00  0.00    +0.000 C 
BRANCH  30  31
ATOM     31  C   UNL     1     149.457 114.288 122.610  0.00  0.00    +0.000 C 
ATOM     32  C   UNL     1     148.704 113.031 122.924  0.00  0.00    +0.000 C 
BRANCH  31  34
ATOM     33  C   UNL     1     149.996 116.004 124.515  0.00  0.00    +0.000 C 
ATOM     34  C   UNL     1     149.751 115.216 123.639  0.00  0.00    +0.000 C 
BRANCH  33  36
ATOM     35  O   UNL     1     151.727 117.166 125.666  0.00  0.00    +0.000 OA
ATOM     36  C   UNL     1     150.289 116.952 125.579  0.00  0.00    +0.000 C 
ATOM     37  C   UNL     1     150.967 118.295 125.239  0.00  0.00    +0.000 C 
ATOM     38  C   UNL     1     149.520 116.839 126.944  0.00  0.00    +0.000 C 
ATOM     39  C   UNL     1     150.919 119.319 126.231  0.00  0.00    +0.000 C 
ATOM     40  C   UNL     1     149.786 118.070 127.690  0.00  0.00    +0.000 C 
ATOM     41  C   UNL     1     150.378 119.338 127.528  0.00  0.00    +0.000 C 
ATOM     42  C   UNL     1     151.296 118.741 123.812  0.00  0.00    +0.000 C 
ATOM     43  C   UNL     1     150.057 115.564 127.634  0.00  0.00    +0.000 C 
ATOM     44  C   UNL     1     148.019 116.728 126.570  0.00  0.00    +0.000 C 
BRANCH  41  45
ATOM     45  O   UNL     1     149.829 120.453 128.083  0.00  0.00    +0.000 OA
ATOM     46  H   UNL     1     148.858 120.396 128.150  0.00  0.00    +0.000 HD
ENDBRANCH  41  45
ENDBRANCH  33  36
ENDBRANCH  31  34
ENDBRANCH  30  31
ENDBRANCH  28  30
ENDBRANCH  26  29
ENDBRANCH  25  26
ENDBRANCH   1  25
TORSDOF 16
ENDMDL
MODEL 4
REMARK VINA RESULT:      -6.9     22.829     28.832
REMARK  Name = 448438_Violaxanthin.pdbqt.pdb
REMARK  16 active torsions:
REMARK  status: ('A' for Active; 'I' for Inactive)
REMARK    1  A    between atoms: C_1  and  C_5
REMARK    2  A    between atoms: C_2  and  C_27
REMARK    3  A    between atoms: C_3  and  C_5
REMARK    4  A    between atoms: C_3  and  C_7
REMARK    5  A    between atoms: C_6  and  C_10
REMARK    6  A    between atoms: C_8  and  C_10
REMARK    7  A    between atoms: C_8  and  C_12
REMARK    8  A    between atoms: C_11  and  C_14
REMARK    9  A    between atoms: C_19  and  O_23
REMARK   10  A    between atoms: C_25  and  C_27
REMARK   11  A    between atoms: C_25  and  C_29
REMARK   12  A    between atoms: C_28  and  C_32
REMARK   13  A    between atoms: C_30  and  C_32
REMARK   14  A    between atoms: C_30  and  C_34
REMARK   15  A    between atoms: C_33  and  C_36
REMARK   16  A    between atoms: C_41  and  O_45
REMARK                            x       y       z     vdW  Elec       q    Type
REMARK                         _______ _______ _______ _____ _____    ______ ____
ROOT
ATOM      1  C   UNL     1     148.618 114.724 114.395  0.00  0.00    +0.000 C 
ATOM      2  C   UNL     1     149.370 114.876 115.317  0.00  0.00    +0.000 C 
ENDROOT
BRANCH   2   3
ATOM      3  C   UNL     1     150.333 115.071 116.493  0.00  0.00    +0.000 C 
BRANCH   3   4
ATOM      4  C   UNL     1     151.147 115.234 117.489  0.00  0.00    +0.000 C 
ATOM      5  C   UNL     1     152.578 115.600 117.230  0.00  0.00    +0.000 C 
BRANCH   4   7
ATOM      6  C   UNL     1     150.326 114.800 119.934  0.00  0.00    +0.000 C 
ATOM      7  C   UNL     1     150.703 115.000 118.811  0.00  0.00    +0.000 C 
BRANCH   6   8
ATOM      8  C   UNL     1     149.843 114.546 121.367  0.00  0.00    +0.000 C 
BRANCH   8   9
ATOM      9  C   UNL     1     149.432 114.328 122.578  0.00  0.00    +0.000 C 
ATOM     10  C   UNL     1     148.782 113.023 122.923  0.00  0.00    +0.000 C 
BRANCH   9  12
ATOM     11  C   UNL     1     149.951 116.069 124.465  0.00  0.00    +0.000 C 
ATOM     12  C   UNL     1     149.709 115.273 123.597  0.00  0.00    +0.000 C 
BRANCH  11  14
ATOM     13  O   UNL     1     151.698 117.219 125.593  0.00  0.00    +0.000 OA
ATOM     14  C   UNL     1     150.259 117.017 125.525  0.00  0.00    +0.000 C 
ATOM     15  C   UNL     1     150.944 118.355 125.174  0.00  0.00    +0.000 C 
ATOM     16  C   UNL     1     149.504 116.916 126.893  0.00  0.00    +0.000 C 
ATOM     17  C   UNL     1     150.914 119.377 126.168  0.00  0.00    +0.000 C 
ATOM     18  C   UNL     1     149.806 118.137 127.654  0.00  0.00    +0.000 C 
ATOM     19  C   UNL     1     150.403 119.401 127.477  0.00  0.00    +0.000 C 
ATOM     20  C   UNL     1     151.243 118.787 123.735  0.00  0.00    +0.000 C 
ATOM     21  C   UNL     1     147.997 116.860 126.545  0.00  0.00    +0.000 C 
ATOM     22  C   UNL     1     150.011 115.631 127.583  0.00  0.00    +0.000 C 
BRANCH  19  23
ATOM     23  O   UNL     1     151.046 120.057 128.482  0.00  0.00    +0.000 OA
ATOM     24  H   UNL     1     150.975 119.597 129.338  0.00  0.00    +0.000 HD
ENDBRANCH  19  23
ENDBRANCH  11  14
ENDBRANCH   9  12
ENDBRANCH   8   9
ENDBRANCH   6   8
ENDBRANCH   4   7
ENDBRANCH   3   4
ENDBRANCH   2   3
BRANCH   1  25
ATOM     25  C   UNL     1     147.655 114.529 113.217  0.00  0.00    +0.000 C 
BRANCH  25  26
ATOM     26  C   UNL     1     146.842 114.364 112.222  0.00  0.00    +0.000 C 
ATOM     27  C   UNL     1     147.112 113.294 111.207  0.00  0.00    +0.000 C 
BRANCH  26  29
ATOM     28  C   UNL     1     144.708 115.861 112.008  0.00  0.00    +0.000 C 
ATOM     29  C   UNL     1     145.689 115.175 112.108  0.00  0.00    +0.000 C 
BRANCH  28  30
ATOM     30  C   UNL     1     143.454 116.734 111.874  0.00  0.00    +0.000 C 
BRANCH  30  31
ATOM     31  C   UNL     1     142.393 117.471 111.757  0.00  0.00    +0.000 C 
ATOM     32  C   UNL     1     142.530 118.942 111.512  0.00  0.00    +0.000 C 
BRANCH  31  34
ATOM     33  C   UNL     1     140.016 116.374 111.856  0.00  0.00    +0.000 C 
ATOM     34  C   UNL     1     141.109 116.875 111.813  0.00  0.00    +0.000 C 
BRANCH  33  36
ATOM     35  O   UNL     1     138.023 115.953 110.623  0.00  0.00    +0.000 OA
ATOM     36  C   UNL     1     138.694 115.769 111.903  0.00  0.00    +0.000 C 
ATOM     37  C   UNL     1     138.353 114.604 110.949  0.00  0.00    +0.000 C 
ATOM     38  C   UNL     1     137.806 115.956 113.185  0.00  0.00    +0.000 C 
ATOM     39  C   UNL     1     137.199 113.825 111.258  0.00  0.00    +0.000 C 
ATOM     40  C   UNL     1     136.692 115.011 113.077  0.00  0.00    +0.000 C 
ATOM     41  C   UNL     1     136.249 113.933 112.288  0.00  0.00    +0.000 C 
ATOM     42  C   UNL     1     139.362 113.978 109.983  0.00  0.00    +0.000 C 
ATOM     43  C   UNL     1     137.369 117.438 113.191  0.00  0.00    +0.000 C 
ATOM     44  C   UNL     1     138.724 115.599 114.383  0.00  0.00    +0.000 C 
BRANCH  41  45
ATOM     45  O   UNL     1     135.639 112.850 112.845  0.00  0.00    +0.000 OA
ATOM     46  H   UNL     1     135.777 112.800 113.808  0.00  0.00    +0.000 HD
ENDBRANCH  41  45
ENDBRANCH  33  36
ENDBRANCH  31  34
ENDBRANCH  30  31
ENDBRANCH  28  30
ENDBRANCH  26  29
ENDBRANCH  25  26
ENDBRANCH   1  25
TORSDOF 16
ENDMDL
MODEL 5
REMARK VINA RESULT:      -6.8      6.839     10.544
REMARK  Name = 448438_Violaxanthin.pdbqt.pdb
REMARK  16 active torsions:
REMARK  status: ('A' for Active; 'I' for Inactive)
REMARK    1  A    between atoms: C_1  and  C_5
REMARK    2  A    between atoms: C_2  and  C_27
REMARK    3  A    between atoms: C_3  and  C_5
REMARK    4  A    between atoms: C_3  and  C_7
REMARK    5  A    between atoms: C_6  and  C_10
REMARK    6  A    between atoms: C_8  and  C_10
REMARK    7  A    between atoms: C_8  and  C_12
REMARK    8  A    between atoms: C_11  and  C_14
REMARK    9  A    between atoms: C_19  and  O_23
REMARK   10  A    between atoms: C_25  and  C_27
REMARK   11  A    between atoms: C_25  and  C_29
REMARK   12  A    between atoms: C_28  and  C_32
REMARK   13  A    between atoms: C_30  and  C_32
REMARK   14  A    between atoms: C_30  and  C_34
REMARK   15  A    between atoms: C_33  and  C_36
REMARK   16  A    between atoms: C_41  and  O_45
REMARK                            x       y       z     vdW  Elec       q    Type
REMARK                         _______ _______ _______ _____ _____    ______ ____
ROOT
ATOM      1  C   UNL     1     138.236 122.622 135.566  0.00  0.00    +0.000 C 
ATOM      2  C   UNL     1     137.149 122.540 136.067  0.00  0.00    +0.000 C 
ENDROOT
BRANCH   2   3
ATOM      3  C   UNL     1     135.761 122.434 136.709  0.00  0.00    +0.000 C 
BRANCH   3   4
ATOM      4  C   UNL     1     134.586 122.345 137.250  0.00  0.00    +0.000 C 
ATOM      5  C   UNL     1     133.372 122.218 136.380  0.00  0.00    +0.000 C 
BRANCH   4   7
ATOM      6  C   UNL     1     134.326 122.513 139.847  0.00  0.00    +0.000 C 
ATOM      7  C   UNL     1     134.445 122.436 138.654  0.00  0.00    +0.000 C 
BRANCH   6   8
ATOM      8  C   UNL     1     134.175 122.610 141.371  0.00  0.00    +0.000 C 
BRANCH   8   9
ATOM      9  C   UNL     1     134.050 122.692 142.659  0.00  0.00    +0.000 C 
ATOM     10  C   UNL     1     133.213 121.691 143.394  0.00  0.00    +0.000 C 
BRANCH   9  12
ATOM     11  C   UNL     1     135.448 124.467 143.985  0.00  0.00    +0.000 C 
ATOM     12  C   UNL     1     134.804 123.652 143.380  0.00  0.00    +0.000 C 
BRANCH  11  14
ATOM     13  O   UNL     1     136.160 125.210 146.127  0.00  0.00    +0.000 OA
ATOM     14  C   UNL     1     136.241 125.459 144.696  0.00  0.00    +0.000 C 
ATOM     15  C   UNL     1     137.446 125.003 145.545  0.00  0.00    +0.000 C 
ATOM     16  C   UNL     1     136.186 126.958 144.245  0.00  0.00    +0.000 C 
ATOM     17  C   UNL     1     138.380 126.008 145.934  0.00  0.00    +0.000 C 
ATOM     18  C   UNL     1     137.269 127.667 144.942  0.00  0.00    +0.000 C 
ATOM     19  C   UNL     1     138.406 127.398 145.729  0.00  0.00    +0.000 C 
ATOM     20  C   UNL     1     137.917 123.547 145.612  0.00  0.00    +0.000 C 
ATOM     21  C   UNL     1     136.443 126.953 142.719  0.00  0.00    +0.000 C 
ATOM     22  C   UNL     1     134.782 127.480 144.619  0.00  0.00    +0.000 C 
BRANCH  19  23
ATOM     23  O   UNL     1     138.853 128.253 146.689  0.00  0.00    +0.000 OA
ATOM     24  H   UNL     1     139.738 128.610 146.493  0.00  0.00    +0.000 HD
ENDBRANCH  19  23
ENDBRANCH  11  14
ENDBRANCH   9  12
ENDBRANCH   8   9
ENDBRANCH   6   8
ENDBRANCH   4   7
ENDBRANCH   3   4
ENDBRANCH   2   3
BRANCH   1  25
ATOM     25  C   UNL     1     139.625 122.728 134.924  0.00  0.00    +0.000 C 
BRANCH  25  26
ATOM     26  C   UNL     1     140.798 122.817 134.382  0.00  0.00    +0.000 C 
ATOM     27  C   UNL     1     140.988 123.643 133.145  0.00  0.00    +0.000 C 
BRANCH  26  29
ATOM     28  C   UNL     1     142.839 121.595 135.469  0.00  0.00    +0.000 C 
ATOM     29  C   UNL     1     141.902 122.158 134.971  0.00  0.00    +0.000 C 
BRANCH  28  30
ATOM     30  C   UNL     1     144.032 120.869 136.103  0.00  0.00    +0.000 C 
BRANCH  30  31
ATOM     31  C   UNL     1     145.043 120.261 136.641  0.00  0.00    +0.000 C 
ATOM     32  C   UNL     1     146.214 119.867 135.794  0.00  0.00    +0.000 C 
BRANCH  31  34
ATOM     33  C   UNL     1     145.077 119.803 139.220  0.00  0.00    +0.000 C 
ATOM     34  C   UNL     1     145.058 120.012 138.036  0.00  0.00    +0.000 C 
BRANCH  33  36
ATOM     35  O   UNL     1     143.748 119.330 141.139  0.00  0.00    +0.000 OA
ATOM     36  C   UNL     1     145.103 119.556 140.654  0.00  0.00    +0.000 C 
ATOM     37  C   UNL     1     144.614 118.199 141.204  0.00  0.00    +0.000 C 
ATOM     38  C   UNL     1     146.031 120.432 141.570  0.00  0.00    +0.000 C 
ATOM     39  C   UNL     1     144.975 117.871 142.545  0.00  0.00    +0.000 C 
ATOM     40  C   UNL     1     146.084 119.777 142.878  0.00  0.00    +0.000 C 
ATOM     41  C   UNL     1     145.693 118.585 143.519  0.00  0.00    +0.000 C 
ATOM     42  C   UNL     1     144.161 117.038 140.315  0.00  0.00    +0.000 C 
ATOM     43  C   UNL     1     145.396 121.840 141.602  0.00  0.00    +0.000 C 
ATOM     44  C   UNL     1     147.422 120.420 140.885  0.00  0.00    +0.000 C 
BRANCH  41  45
ATOM     45  O   UNL     1     146.494 117.978 144.437  0.00  0.00    +0.000 OA
ATOM     46  H   UNL     1     147.224 118.553 144.733  0.00  0.00    +0.000 HD
ENDBRANCH  41  45
ENDBRANCH  33  36
ENDBRANCH  31  34
ENDBRANCH  30  31
ENDBRANCH  28  30
ENDBRANCH  26  29
ENDBRANCH  25  26
ENDBRANCH   1  25
TORSDOF 16
ENDMDL
MODEL 6
REMARK VINA RESULT:      -6.8     22.077     31.126
REMARK  Name = 448438_Violaxanthin.pdbqt.pdb
REMARK  16 active torsions:
REMARK  status: ('A' for Active; 'I' for Inactive)
REMARK    1  A    between atoms: C_1  and  C_5
REMARK    2  A    between atoms: C_2  and  C_27
REMARK    3  A    between atoms: C_3  and  C_5
REMARK    4  A    between atoms: C_3  and  C_7
REMARK    5  A    between atoms: C_6  and  C_10
REMARK    6  A    between atoms: C_8  and  C_10
REMARK    7  A    between atoms: C_8  and  C_12
REMARK    8  A    between atoms: C_11  and  C_14
REMARK    9  A    between atoms: C_19  and  O_23
REMARK   10  A    between atoms: C_25  and  C_27
REMARK   11  A    between atoms: C_25  and  C_29
REMARK   12  A    between atoms: C_28  and  C_32
REMARK   13  A    between atoms: C_30  and  C_32
REMARK   14  A    between atoms: C_30  and  C_34
REMARK   15  A    between atoms: C_33  and  C_36
REMARK   16  A    between atoms: C_41  and  O_45
REMARK                            x       y       z     vdW  Elec       q    Type
REMARK                         _______ _______ _______ _____ _____    ______ ____
ROOT
ATOM      1  C   UNL     1     149.867 115.055 116.092  0.00  0.00    +0.000 C 
ATOM      2  C   UNL     1     149.162 114.896 115.135  0.00  0.00    +0.000 C 
ENDROOT
BRANCH   2   3
ATOM      3  C   UNL     1     148.263 114.693 113.910  0.00  0.00    +0.000 C 
BRANCH   3   4
ATOM      4  C   UNL     1     147.505 114.524 112.873  0.00  0.00    +0.000 C 
ATOM      5  C   UNL     1     147.986 114.950 111.519  0.00  0.00    +0.000 C 
BRANCH   4   7
ATOM      6  C   UNL     1     145.091 113.558 113.162  0.00  0.00    +0.000 C 
ATOM      7  C   UNL     1     146.199 114.001 113.029  0.00  0.00    +0.000 C 
BRANCH   6   8
ATOM      8  C   UNL     1     143.675 112.993 113.333  0.00  0.00    +0.000 C 
BRANCH   8   9
ATOM      9  C   UNL     1     142.479 112.515 113.480  0.00  0.00    +0.000 C 
ATOM     10  C   UNL     1     142.289 111.064 113.803  0.00  0.00    +0.000 C 
BRANCH   9  12
ATOM     11  C   UNL     1     140.421 114.135 113.444  0.00  0.00    +0.000 C 
ATOM     12  C   UNL     1     141.363 113.388 113.459  0.00  0.00    +0.000 C 
BRANCH  11  14
ATOM     13  O   UNL     1     138.180 114.468 114.161  0.00  0.00    +0.000 OA
ATOM     14  C   UNL     1     139.296 115.057 113.436  0.00  0.00    +0.000 C 
ATOM     15  C   UNL     1     138.762 115.618 114.772  0.00  0.00    +0.000 C 
ATOM     16  C   UNL     1     138.942 115.832 112.122  0.00  0.00    +0.000 C 
ATOM     17  C   UNL     1     137.907 116.757 114.698  0.00  0.00    +0.000 C 
ATOM     18  C   UNL     1     137.964 116.871 112.473  0.00  0.00    +0.000 C 
ATOM     19  C   UNL     1     137.393 117.479 113.608  0.00  0.00    +0.000 C 
ATOM     20  C   UNL     1     139.420 115.323 116.123  0.00  0.00    +0.000 C 
ATOM     21  C   UNL     1     140.263 116.479 111.640  0.00  0.00    +0.000 C 
ATOM     22  C   UNL     1     138.386 114.787 111.130  0.00  0.00    +0.000 C 
BRANCH  19  23
ATOM     23  O   UNL     1     136.126 117.977 113.616  0.00  0.00    +0.000 OA
ATOM     24  H   UNL     1     136.104 118.951 113.634  0.00  0.00    +0.000 HD
ENDBRANCH  19  23
ENDBRANCH  11  14
ENDBRANCH   9  12
ENDBRANCH   8   9
ENDBRANCH   6   8
ENDBRANCH   4   7
ENDBRANCH   3   4
ENDBRANCH   2   3
BRANCH   1  25
ATOM     25  C   UNL     1     150.768 115.258 117.317  0.00  0.00    +0.000 C 
BRANCH  25  26
ATOM     26  C   UNL     1     151.528 115.429 118.352  0.00  0.00    +0.000 C 
ATOM     27  C   UNL     1     152.931 115.927 118.172  0.00  0.00    +0.000 C 
BRANCH  26  29
ATOM     28  C   UNL     1     150.605 114.952 120.752  0.00  0.00    +0.000 C 
ATOM     29  C   UNL     1     151.028 115.173 119.649  0.00  0.00    +0.000 C 
BRANCH  28  30
ATOM     30  C   UNL     1     150.069 114.664 122.160  0.00  0.00    +0.000 C 
BRANCH  30  31
ATOM     31  C   UNL     1     149.620 114.419 123.351  0.00  0.00    +0.000 C 
ATOM     32  C   UNL     1     148.993 113.093 123.654  0.00  0.00    +0.000 C 
BRANCH  31  34
ATOM     33  C   UNL     1     149.891 116.205 125.249  0.00  0.00    +0.000 C 
ATOM     34  C   UNL     1     149.766 115.387 124.375  0.00  0.00    +0.000 C 
BRANCH  33  36
ATOM     35  O   UNL     1     151.458 117.373 126.610  0.00  0.00    +0.000 OA
ATOM     36  C   UNL     1     150.045 117.190 126.309  0.00  0.00    +0.000 C 
ATOM     37  C   UNL     1     150.808 118.501 126.028  0.00  0.00    +0.000 C 
ATOM     38  C   UNL     1     149.072 117.152 127.542  0.00  0.00    +0.000 C 
ATOM     39  C   UNL     1     150.638 119.567 126.961  0.00  0.00    +0.000 C 
ATOM     40  C   UNL     1     149.257 118.407 128.273  0.00  0.00    +0.000 C 
ATOM     41  C   UNL     1     149.905 119.652 128.157  0.00  0.00    +0.000 C 
ATOM     42  C   UNL     1     151.366 118.879 124.653  0.00  0.00    +0.000 C 
ATOM     43  C   UNL     1     149.458 115.895 128.354  0.00  0.00    +0.000 C 
ATOM     44  C   UNL     1     147.645 117.062 126.944  0.00  0.00    +0.000 C 
BRANCH  41  45
ATOM     45  O   UNL     1     149.311 120.803 128.577  0.00  0.00    +0.000 OA
ATOM     46  H   UNL     1     149.754 121.188 129.356  0.00  0.00    +0.000 HD
ENDBRANCH  41  45
ENDBRANCH  33  36
ENDBRANCH  31  34
ENDBRANCH  30  31
ENDBRANCH  28  30
ENDBRANCH  26  29
ENDBRANCH  25  26
ENDBRANCH   1  25
TORSDOF 16
ENDMDL
MODEL 7
REMARK VINA RESULT:      -6.7     21.765     33.240
REMARK  Name = 448438_Violaxanthin.pdbqt.pdb
REMARK  16 active torsions:
REMARK  status: ('A' for Active; 'I' for Inactive)
REMARK    1  A    between atoms: C_1  and  C_5
REMARK    2  A    between atoms: C_2  and  C_27
REMARK    3  A    between atoms: C_3  and  C_5
REMARK    4  A    between atoms: C_3  and  C_7
REMARK    5  A    between atoms: C_6  and  C_10
REMARK    6  A    between atoms: C_8  and  C_10
REMARK    7  A    between atoms: C_8  and  C_12
REMARK    8  A    between atoms: C_11  and  C_14
REMARK    9  A    between atoms: C_19  and  O_23
REMARK   10  A    between atoms: C_25  and  C_27
REMARK   11  A    between atoms: C_25  and  C_29
REMARK   12  A    between atoms: C_28  and  C_32
REMARK   13  A    between atoms: C_30  and  C_32
REMARK   14  A    between atoms: C_30  and  C_34
REMARK   15  A    between atoms: C_33  and  C_36
REMARK   16  A    between atoms: C_41  and  O_45
REMARK                            x       y       z     vdW  Elec       q    Type
REMARK                         _______ _______ _______ _____ _____    ______ ____
ROOT
ATOM      1  C   UNL     1     150.204 114.853 119.191  0.00  0.00    +0.000 C 
ATOM      2  C   UNL     1     150.236 114.737 117.997  0.00  0.00    +0.000 C 
ENDROOT
BRANCH   2   3
ATOM      3  C   UNL     1     150.274 114.586 116.472  0.00  0.00    +0.000 C 
BRANCH   3   4
ATOM      4  C   UNL     1     150.304 114.459 115.183  0.00  0.00    +0.000 C 
ATOM      5  C   UNL     1     151.617 114.275 114.482  0.00  0.00    +0.000 C 
BRANCH   4   7
ATOM      6  C   UNL     1     148.094 114.649 113.797  0.00  0.00    +0.000 C 
ATOM      7  C   UNL     1     149.109 114.562 114.433  0.00  0.00    +0.000 C 
BRANCH   6   8
ATOM      8  C   UNL     1     146.798 114.759 112.983  0.00  0.00    +0.000 C 
BRANCH   8   9
ATOM      9  C   UNL     1     145.702 114.855 112.297  0.00  0.00    +0.000 C 
ATOM     10  C   UNL     1     144.398 115.082 113.000  0.00  0.00    +0.000 C 
BRANCH   9  12
ATOM     11  C   UNL     1     145.802 114.872 109.680  0.00  0.00    +0.000 C 
ATOM     12  C   UNL     1     145.756 114.869 110.881  0.00  0.00    +0.000 C 
BRANCH  11  14
ATOM     13  O   UNL     1     147.019 115.609 107.776  0.00  0.00    +0.000 OA
ATOM     14  C   UNL     1     145.862 114.851 108.226  0.00  0.00    +0.000 C 
ATOM     15  C   UNL     1     147.076 114.206 107.524  0.00  0.00    +0.000 C 
ATOM     16  C   UNL     1     144.545 115.032 107.397  0.00  0.00    +0.000 C 
ATOM     17  C   UNL     1     146.934 113.903 106.137  0.00  0.00    +0.000 C 
ATOM     18  C   UNL     1     144.855 114.696 106.000  0.00  0.00    +0.000 C 
ATOM     19  C   UNL     1     145.885 114.121 105.229  0.00  0.00    +0.000 C 
ATOM     20  C   UNL     1     148.199 113.496 108.284  0.00  0.00    +0.000 C 
ATOM     21  C   UNL     1     143.532 114.017 107.980  0.00  0.00    +0.000 C 
ATOM     22  C   UNL     1     144.104 116.499 107.584  0.00  0.00    +0.000 C 
BRANCH  19  23
ATOM     23  O   UNL     1     146.121 114.478 103.936  0.00  0.00    +0.000 OA
ATOM     24  H   UNL     1     146.466 113.742 103.400  0.00  0.00    +0.000 HD
ENDBRANCH  19  23
ENDBRANCH  11  14
ENDBRANCH   9  12
ENDBRANCH   8   9
ENDBRANCH   6   8
ENDBRANCH   4   7
ENDBRANCH   3   4
ENDBRANCH   2   3
BRANCH   1  25
ATOM     25  C   UNL     1     150.165 115.003 120.717  0.00  0.00    +0.000 C 
BRANCH  25  26
ATOM     26  C   UNL     1     150.132 115.130 122.006  0.00  0.00    +0.000 C 
ATOM     27  C   UNL     1     149.797 113.946 122.863  0.00  0.00    +0.000 C 
BRANCH  26  29
ATOM     28  C   UNL     1     150.695 117.430 123.113  0.00  0.00    +0.000 C 
ATOM     29  C   UNL     1     150.436 116.375 122.603  0.00  0.00    +0.000 C 
BRANCH  28  30
ATOM     30  C   UNL     1     151.026 118.776 123.772  0.00  0.00    +0.000 C 
BRANCH  30  31
ATOM     31  C   UNL     1     151.301 119.913 124.331  0.00  0.00    +0.000 C 
ATOM     32  C   UNL     1     151.634 121.101 123.482  0.00  0.00    +0.000 C 
BRANCH  31  34
ATOM     33  C   UNL     1     151.184 120.153 126.937  0.00  0.00    +0.000 C 
ATOM     34  C   UNL     1     151.239 120.040 125.741  0.00  0.00    +0.000 C 
BRANCH  33  36
ATOM     35  O   UNL     1     150.021 121.192 128.737  0.00  0.00    +0.000 OA
ATOM     36  C   UNL     1     151.111 120.293 128.384  0.00  0.00    +0.000 C 
ATOM     37  C   UNL     1     149.842 119.833 129.132  0.00  0.00    +0.000 C 
ATOM     38  C   UNL     1     152.437 120.451 129.210  0.00  0.00    +0.000 C 
ATOM     39  C   UNL     1     149.943 119.663 130.545  0.00  0.00    +0.000 C 
ATOM     40  C   UNL     1     152.089 120.265 130.621  0.00  0.00    +0.000 C 
ATOM     41  C   UNL     1     151.010 119.871 131.435  0.00  0.00    +0.000 C 
ATOM     42  C   UNL     1     148.652 119.156 128.446  0.00  0.00    +0.000 C 
ATOM     43  C   UNL     1     152.981 121.860 128.882  0.00  0.00    +0.000 C 
ATOM     44  C   UNL     1     153.374 119.319 128.715  0.00  0.00    +0.000 C 
BRANCH  41  45
ATOM     45  O   UNL     1     151.203 119.108 132.547  0.00  0.00    +0.000 OA
ATOM     46  H   UNL     1     150.913 118.186 132.419  0.00  0.00    +0.000 HD
ENDBRANCH  41  45
ENDBRANCH  33  36
ENDBRANCH  31  34
ENDBRANCH  30  31
ENDBRANCH  28  30
ENDBRANCH  26  29
ENDBRANCH  25  26
ENDBRANCH   1  25
TORSDOF 16
ENDMDL
MODEL 8
REMARK VINA RESULT:      -6.5     23.174     29.998
REMARK  Name = 448438_Violaxanthin.pdbqt.pdb
REMARK  16 active torsions:
REMARK  status: ('A' for Active; 'I' for Inactive)
REMARK    1  A    between atoms: C_1  and  C_5
REMARK    2  A    between atoms: C_2  and  C_27
REMARK    3  A    between atoms: C_3  and  C_5
REMARK    4  A    between atoms: C_3  and  C_7
REMARK    5  A    between atoms: C_6  and  C_10
REMARK    6  A    between atoms: C_8  and  C_10
REMARK    7  A    between atoms: C_8  and  C_12
REMARK    8  A    between atoms: C_11  and  C_14
REMARK    9  A    between atoms: C_19  and  O_23
REMARK   10  A    between atoms: C_25  and  C_27
REMARK   11  A    between atoms: C_25  and  C_29
REMARK   12  A    between atoms: C_28  and  C_32
REMARK   13  A    between atoms: C_30  and  C_32
REMARK   14  A    between atoms: C_30  and  C_34
REMARK   15  A    between atoms: C_33  and  C_36
REMARK   16  A    between atoms: C_41  and  O_45
REMARK                            x       y       z     vdW  Elec       q    Type
REMARK                         _______ _______ _______ _____ _____    ______ ____
ROOT
ATOM      1  C   UNL     1     158.103 130.880 119.829  0.00  0.00    +0.000 C 
ATOM      2  C   UNL     1     157.950 131.992 120.253  0.00  0.00    +0.000 C 
ENDROOT
BRANCH   2   3
ATOM      3  C   UNL     1     157.753 133.413 120.793  0.00  0.00    +0.000 C 
BRANCH   3   4
ATOM      4  C   UNL     1     157.588 134.615 121.248  0.00  0.00    +0.000 C 
ATOM      5  C   UNL     1     158.750 135.561 121.292  0.00  0.00    +0.000 C 
BRANCH   4   7
ATOM      6  C   UNL     1     155.267 135.345 122.207  0.00  0.00    +0.000 C 
ATOM      7  C   UNL     1     156.333 135.010 121.767  0.00  0.00    +0.000 C 
BRANCH   6   8
ATOM      8  C   UNL     1     153.905 135.771 122.769  0.00  0.00    +0.000 C 
BRANCH   8   9
ATOM      9  C   UNL     1     152.753 136.134 123.243  0.00  0.00    +0.000 C 
ATOM     10  C   UNL     1     152.276 137.541 123.051  0.00  0.00    +0.000 C 
BRANCH   9  12
ATOM     11  C   UNL     1     151.173 134.354 124.337  0.00  0.00    +0.000 C 
ATOM     12  C   UNL     1     151.897 135.169 123.830  0.00  0.00    +0.000 C 
BRANCH  11  14
ATOM     13  O   UNL     1     150.665 132.039 124.520  0.00  0.00    +0.000 OA
ATOM     14  C   UNL     1     150.305 133.374 124.973  0.00  0.00    +0.000 C 
ATOM     15  C   UNL     1     150.918 132.302 125.899  0.00  0.00    +0.000 C 
ATOM     16  C   UNL     1     148.774 133.674 125.110  0.00  0.00    +0.000 C 
ATOM     17  C   UNL     1     150.020 131.597 126.754  0.00  0.00    +0.000 C 
ATOM     18  C   UNL     1     148.208 132.664 126.016  0.00  0.00    +0.000 C 
ATOM     19  C   UNL     1     148.624 131.650 126.901  0.00  0.00    +0.000 C 
ATOM     20  C   UNL     1     152.405 132.266 126.263  0.00  0.00    +0.000 C 
ATOM     21  C   UNL     1     148.671 135.082 125.745  0.00  0.00    +0.000 C 
ATOM     22  C   UNL     1     148.183 133.610 123.686  0.00  0.00    +0.000 C 
BRANCH  19  23
ATOM     23  O   UNL     1     147.887 130.529 127.133  0.00  0.00    +0.000 OA
ATOM     24  H   UNL     1     148.267 129.736 126.715  0.00  0.00    +0.000 HD
ENDBRANCH  19  23
ENDBRANCH  11  14
ENDBRANCH   9  12
ENDBRANCH   8   9
ENDBRANCH   6   8
ENDBRANCH   4   7
ENDBRANCH   3   4
ENDBRANCH   2   3
BRANCH   1  25
ATOM     25  C   UNL     1     158.301 129.459 119.288  0.00  0.00    +0.000 C 
BRANCH  25  26
ATOM     26  C   UNL     1     158.468 128.258 118.830  0.00  0.00    +0.000 C 
ATOM     27  C   UNL     1     159.787 127.567 119.011  0.00  0.00    +0.000 C 
BRANCH  26  29
ATOM     28  C   UNL     1     156.496 127.024 117.636  0.00  0.00    +0.000 C 
ATOM     29  C   UNL     1     157.400 127.591 118.186  0.00  0.00    +0.000 C 
BRANCH  28  30
ATOM     30  C   UNL     1     155.343 126.301 116.926  0.00  0.00    +0.000 C 
BRANCH  30  31
ATOM     31  C   UNL     1     154.373 125.690 116.323  0.00  0.00    +0.000 C 
ATOM     32  C   UNL     1     153.151 126.453 115.912  0.00  0.00    +0.000 C 
BRANCH  31  34
ATOM     33  C   UNL     1     154.593 123.143 115.749  0.00  0.00    +0.000 C 
ATOM     34  C   UNL     1     154.489 124.313 116.010  0.00  0.00    +0.000 C 
BRANCH  33  36
ATOM     35  O   UNL     1     153.910 121.404 114.272  0.00  0.00    +0.000 OA
ATOM     36  C   UNL     1     154.720 121.727 115.439  0.00  0.00    +0.000 C 
ATOM     37  C   UNL     1     155.320 121.293 114.085  0.00  0.00    +0.000 C 
ATOM     38  C   UNL     1     154.702 120.678 116.608  0.00  0.00    +0.000 C 
ATOM     39  C   UNL     1     155.743 119.935 113.965  0.00  0.00    +0.000 C 
ATOM     40  C   UNL     1     155.144 119.401 116.046  0.00  0.00    +0.000 C 
ATOM     41  C   UNL     1     155.690 118.859 114.866  0.00  0.00    +0.000 C 
ATOM     42  C   UNL     1     155.872 122.275 113.049  0.00  0.00    +0.000 C 
ATOM     43  C   UNL     1     153.251 120.656 117.142  0.00  0.00    +0.000 C 
ATOM     44  C   UNL     1     155.716 121.206 117.656  0.00  0.00    +0.000 C 
BRANCH  41  45
ATOM     45  O   UNL     1     156.640 117.884 114.907  0.00  0.00    +0.000 OA
ATOM     46  H   UNL     1     156.978 117.657 114.022  0.00  0.00    +0.000 HD
ENDBRANCH  41  45
ENDBRANCH  33  36
ENDBRANCH  31  34
ENDBRANCH  30  31
ENDBRANCH  28  30
ENDBRANCH  26  29
ENDBRANCH  25  26
ENDBRANCH   1  25
TORSDOF 16
ENDMDL
MODEL 9
REMARK VINA RESULT:      -6.4     17.312     21.620
REMARK  Name = 448438_Violaxanthin.pdbqt.pdb
REMARK  16 active torsions:
REMARK  status: ('A' for Active; 'I' for Inactive)
REMARK    1  A    between atoms: C_1  and  C_5
REMARK    2  A    between atoms: C_2  and  C_27
REMARK    3  A    between atoms: C_3  and  C_5
REMARK    4  A    between atoms: C_3  and  C_7
REMARK    5  A    between atoms: C_6  and  C_10
REMARK    6  A    between atoms: C_8  and  C_10
REMARK    7  A    between atoms: C_8  and  C_12
REMARK    8  A    between atoms: C_11  and  C_14
REMARK    9  A    between atoms: C_19  and  O_23
REMARK   10  A    between atoms: C_25  and  C_27
REMARK   11  A    between atoms: C_25  and  C_29
REMARK   12  A    between atoms: C_28  and  C_32
REMARK   13  A    between atoms: C_30  and  C_32
REMARK   14  A    between atoms: C_30  and  C_34
REMARK   15  A    between atoms: C_33  and  C_36
REMARK   16  A    between atoms: C_41  and  O_45
REMARK                            x       y       z     vdW  Elec       q    Type
REMARK                         _______ _______ _______ _____ _____    ______ ____
ROOT
ATOM      1  C   UNL     1     144.104 140.415 129.415  0.00  0.00    +0.000 C 
ATOM      2  C   UNL     1     142.935 140.674 129.328  0.00  0.00    +0.000 C 
ENDROOT
BRANCH   2   3
ATOM      3  C   UNL     1     141.442 141.003 129.215  0.00  0.00    +0.000 C 
BRANCH   3   4
ATOM      4  C   UNL     1     140.179 141.278 129.121  0.00  0.00    +0.000 C 
ATOM      5  C   UNL     1     139.737 142.505 128.381  0.00  0.00    +0.000 C 
BRANCH   4   7
ATOM      6  C   UNL     1     138.417 139.768 130.328  0.00  0.00    +0.000 C 
ATOM      7  C   UNL     1     139.226 140.462 129.774  0.00  0.00    +0.000 C 
BRANCH   6   8
ATOM      8  C   UNL     1     137.386 138.881 131.036  0.00  0.00    +0.000 C 
BRANCH   8   9
ATOM      9  C   UNL     1     136.512 138.134 131.638  0.00  0.00    +0.000 C 
ATOM     10  C   UNL     1     135.063 138.513 131.616  0.00  0.00    +0.000 C 
BRANCH   9  12
ATOM     11  C   UNL     1     137.248 135.848 132.684  0.00  0.00    +0.000 C 
ATOM     12  C   UNL     1     136.913 136.900 132.206  0.00  0.00    +0.000 C 
BRANCH  11  14
ATOM     13  O   UNL     1     136.553 134.051 134.076  0.00  0.00    +0.000 OA
ATOM     14  C   UNL     1     137.635 134.564 133.248  0.00  0.00    +0.000 C 
ATOM     15  C   UNL     1     136.823 133.300 132.892  0.00  0.00    +0.000 C 
ATOM     16  C   UNL     1     139.087 134.371 133.802  0.00  0.00    +0.000 C 
ATOM     17  C   UNL     1     137.427 132.041 133.181  0.00  0.00    +0.000 C 
ATOM     18  C   UNL     1     139.278 132.934 134.046  0.00  0.00    +0.000 C 
ATOM     19  C   UNL     1     138.647 131.701 133.789  0.00  0.00    +0.000 C 
ATOM     20  C   UNL     1     135.665 133.308 131.890  0.00  0.00    +0.000 C 
ATOM     21  C   UNL     1     140.038 134.855 132.681  0.00  0.00    +0.000 C 
ATOM     22  C   UNL     1     139.186 135.223 135.086  0.00  0.00    +0.000 C 
BRANCH  19  23
ATOM     23  O   UNL     1     138.753 130.633 134.627  0.00  0.00    +0.000 OA
ATOM     24  H   UNL     1     138.515 129.792 134.198  0.00  0.00    +0.000 HD
ENDBRANCH  19  23
ENDBRANCH  11  14
ENDBRANCH   9  12
ENDBRANCH   8   9
ENDBRANCH   6   8
ENDBRANCH   4   7
ENDBRANCH   3   4
ENDBRANCH   2   3
BRANCH   1  25
ATOM     25  C   UNL     1     145.597 140.086 129.526  0.00  0.00    +0.000 C 
BRANCH  25  26
ATOM     26  C   UNL     1     146.860 139.808 129.621  0.00  0.00    +0.000 C 
ATOM     27  C   UNL     1     147.507 139.729 130.970  0.00  0.00    +0.000 C 
BRANCH  26  29
ATOM     28  C   UNL     1     148.261 139.334 127.464  0.00  0.00    +0.000 C 
ATOM     29  C   UNL     1     147.617 139.554 128.454  0.00  0.00    +0.000 C 
BRANCH  28  30
ATOM     30  C   UNL     1     149.082 139.047 126.201  0.00  0.00    +0.000 C 
BRANCH  30  31
ATOM     31  C   UNL     1     149.775 138.800 125.134  0.00  0.00    +0.000 C 
ATOM     32  C   UNL     1     150.056 139.898 124.154  0.00  0.00    +0.000 C 
BRANCH  31  34
ATOM     33  C   UNL     1     150.753 136.402 124.735  0.00  0.00    +0.000 C 
ATOM     34  C   UNL     1     150.307 137.503 124.920  0.00  0.00    +0.000 C 
BRANCH  33  36
ATOM     35  O   UNL     1     151.782 134.967 123.137  0.00  0.00    +0.000 OA
ATOM     36  C   UNL     1     151.292 135.070 124.504  0.00  0.00    +0.000 C 
ATOM     37  C   UNL     1     152.784 134.901 124.150  0.00  0.00    +0.000 C 
ATOM     38  C   UNL     1     150.520 133.821 125.061  0.00  0.00    +0.000 C 
ATOM     39  C   UNL     1     153.340 133.592 124.275  0.00  0.00    +0.000 C 
ATOM     40  C   UNL     1     151.424 132.674 124.952  0.00  0.00    +0.000 C 
ATOM     41  C   UNL     1     152.763 132.365 124.644  0.00  0.00    +0.000 C 
ATOM     42  C   UNL     1     153.779 136.063 124.094  0.00  0.00    +0.000 C 
ATOM     43  C   UNL     1     149.240 133.690 124.204  0.00  0.00    +0.000 C 
ATOM     44  C   UNL     1     150.213 134.147 126.545  0.00  0.00    +0.000 C 
BRANCH  41  45
ATOM     45  O   UNL     1     153.445 131.406 125.329  0.00  0.00    +0.000 OA
ATOM     46  H   UNL     1     153.111 131.288 126.237  0.00  0.00    +0.000 HD
ENDBRANCH  41  45
ENDBRANCH  33  36
ENDBRANCH  31  34
ENDBRANCH  30  31
ENDBRANCH  28  30
ENDBRANCH  26  29
ENDBRANCH  25  26
ENDBRANCH   1  25
TORSDOF 16
ENDMDL
