MODEL 1
REMARK VINA RESULT:      -8.8      0.000      0.000
REMARK  Name = 490561_Nocardiopsis.pdbqt.pdb
REMARK  3 active torsions:
REMARK  status: ('A' for Active; 'I' for Inactive)
REMARK    1  A    between atoms: C_7  and  O_32
REMARK    2  A    between atoms: C_7  and  C_35
REMARK    3  A    between atoms: C_35  and  O_36
REMARK                            x       y       z     vdW  Elec       q    Type
REMARK                         _______ _______ _______ _____ _____    ______ ____
ROOT
ATOM      1  O   UNL     1     145.498 127.443  98.378  0.00  0.00    +0.000 OA
ATOM      2  O   UNL     1     145.036 121.470  93.813  0.00  0.00    +0.000 OA
ATOM      3  N   UNL     1     143.918 125.760  98.890  0.00  0.00    +0.000 N 
ATOM      4  N   UNL     1     146.449 125.616  97.284  0.00  0.00    +0.000 N 
ATOM      5  N   UNL     1     143.004 121.375  94.934  0.00  0.00    +0.000 N 
ATOM      6  C   UNL     1     144.721 126.852  99.478  0.00  0.00    +0.000 C 
ATOM      7  C   UNL     1     145.826 126.339 100.499  0.00  0.00    +0.000 C 
ATOM      8  C   UNL     1     146.612 126.596  98.247  0.00  0.00    +0.000 C 
ATOM      9  C   UNL     1     146.926 126.157  99.556  0.00  0.00    +0.000 C 
ATOM     10  C   UNL     1     144.157 124.952  97.807  0.00  0.00    +0.000 A 
ATOM     11  C   UNL     1     145.324 124.888  97.045  0.00  0.00    +0.000 A 
ATOM     12  C   UNL     1     143.194 124.010  97.434  0.00  0.00    +0.000 A 
ATOM     13  C   UNL     1     145.340 123.904  96.050  0.00  0.00    +0.000 A 
ATOM     14  C   UNL     1     143.826 128.016 100.020  0.00  0.00    +0.000 C 
ATOM     15  C   UNL     1     142.678 125.224  99.318  0.00  0.00    +0.000 A 
ATOM     16  C   UNL     1     147.337 125.014  96.373  0.00  0.00    +0.000 A 
ATOM     17  C   UNL     1     142.214 124.184  98.428  0.00  0.00    +0.000 A 
ATOM     18  C   UNL     1     143.179 123.033  96.430  0.00  0.00    +0.000 A 
ATOM     19  C   UNL     1     144.371 122.961  95.650  0.00  0.00    +0.000 A 
ATOM     20  C   UNL     1     146.675 123.990  95.596  0.00  0.00    +0.000 A 
ATOM     21  C   UNL     1     142.292 121.956  95.922  0.00  0.00    +0.000 C 
ATOM     22  C   UNL     1     141.915 125.570 100.447  0.00  0.00    +0.000 A 
ATOM     23  C   UNL     1     144.281 121.896  94.675  0.00  0.00    +0.000 C 
ATOM     24  C   UNL     1     148.692 125.312  96.166  0.00  0.00    +0.000 A 
ATOM     25  C   UNL     1     140.986 123.554  98.712  0.00  0.00    +0.000 A 
ATOM     26  C   UNL     1     147.438 123.298  94.634  0.00  0.00    +0.000 A 
ATOM     27  C   UNL     1     140.705 124.918 100.684  0.00  0.00    +0.000 A 
ATOM     28  C   UNL     1     140.242 123.930  99.830  0.00  0.00    +0.000 A 
ATOM     29  C   UNL     1     149.396 124.599  95.195  0.00  0.00    +0.000 A 
ATOM     30  C   UNL     1     148.783 123.610  94.441  0.00  0.00    +0.000 A 
ATOM     31  H   UNL     1     142.652 120.598  94.394  0.00  0.00    +0.000 HD
ENDROOT
BRANCH   7  32
ATOM     32  O   UNL     1     145.534 125.080 101.122  0.00  0.00    +0.000 OA
ATOM     33  H   UNL     1     144.700 125.192 101.629  0.00  0.00    +0.000 HD
ENDBRANCH   7  32
BRANCH   7  35
ATOM     34  O   UNL     1     146.868 128.360 101.270  0.00  0.00    +0.000 OA
ATOM     35  C   UNL     1     146.158 127.393 101.554  0.00  0.00    +0.000 C 
BRANCH  35  36
ATOM     36  O   UNL     1     145.538 127.130 102.743  0.00  0.00    +0.000 OA
ATOM     37  C   UNL     1     145.170 128.223 103.541  0.00  0.00    +0.000 C 
ENDBRANCH  35  36
ENDBRANCH   7  35
TORSDOF 3
ENDMDL
MODEL 2
REMARK VINA RESULT:      -8.4      2.220      5.886
REMARK  Name = 490561_Nocardiopsis.pdbqt.pdb
REMARK  3 active torsions:
REMARK  status: ('A' for Active; 'I' for Inactive)
REMARK    1  A    between atoms: C_7  and  O_32
REMARK    2  A    between atoms: C_7  and  C_35
REMARK    3  A    between atoms: C_35  and  O_36
REMARK                            x       y       z     vdW  Elec       q    Type
REMARK                         _______ _______ _______ _____ _____    ______ ____
ROOT
ATOM      1  O   UNL     1     146.903 126.639  98.408  0.00  0.00    +0.000 OA
ATOM      2  O   UNL     1     140.091 123.444  98.757  0.00  0.00    +0.000 OA
ATOM      3  N   UNL     1     146.100 125.500  96.498  0.00  0.00    +0.000 N 
ATOM      4  N   UNL     1     144.603 126.742  98.784  0.00  0.00    +0.000 N 
ATOM      5  N   UNL     1     141.044 122.344  96.947  0.00  0.00    +0.000 N 
ATOM      6  C   UNL     1     147.035 126.552  96.945  0.00  0.00    +0.000 C 
ATOM      7  C   UNL     1     146.637 128.004  96.436  0.00  0.00    +0.000 C 
ATOM      8  C   UNL     1     145.776 127.455  98.605  0.00  0.00    +0.000 C 
ATOM      9  C   UNL     1     145.790 128.405  97.555  0.00  0.00    +0.000 C 
ATOM     10  C   UNL     1     144.911 125.068  97.031  0.00  0.00    +0.000 A 
ATOM     11  C   UNL     1     144.216 125.628  98.103  0.00  0.00    +0.000 A 
ATOM     12  C   UNL     1     144.236 124.007  96.421  0.00  0.00    +0.000 A 
ATOM     13  C   UNL     1     142.974 125.048  98.384  0.00  0.00    +0.000 A 
ATOM     14  C   UNL     1     148.528 126.161  96.690  0.00  0.00    +0.000 C 
ATOM     15  C   UNL     1     146.165 124.664  95.355  0.00  0.00    +0.000 A 
ATOM     16  C   UNL     1     143.464 126.958  99.582  0.00  0.00    +0.000 A 
ATOM     17  C   UNL     1     145.060 123.734  95.314  0.00  0.00    +0.000 A 
ATOM     18  C   UNL     1     143.007 123.395  96.699  0.00  0.00    +0.000 A 
ATOM     19  C   UNL     1     142.290 123.967  97.792  0.00  0.00    +0.000 A 
ATOM     20  C   UNL     1     142.474 125.925  99.373  0.00  0.00    +0.000 A 
ATOM     21  C   UNL     1     142.140 122.316  96.160  0.00  0.00    +0.000 C 
ATOM     22  C   UNL     1     147.124 124.656  94.328  0.00  0.00    +0.000 A 
ATOM     23  C   UNL     1     141.017 123.303  97.971  0.00  0.00    +0.000 C 
ATOM     24  C   UNL     1     143.238 127.998 100.496  0.00  0.00    +0.000 A 
ATOM     25  C   UNL     1     144.986 122.824  94.240  0.00  0.00    +0.000 A 
ATOM     26  C   UNL     1     141.276 126.004 100.110  0.00  0.00    +0.000 A 
ATOM     27  C   UNL     1     147.008 123.735  93.287  0.00  0.00    +0.000 A 
ATOM     28  C   UNL     1     145.961 122.829  93.243  0.00  0.00    +0.000 A 
ATOM     29  C   UNL     1     142.036 128.021 101.203  0.00  0.00    +0.000 A 
ATOM     30  C   UNL     1     141.070 127.043 101.015  0.00  0.00    +0.000 A 
ATOM     31  H   UNL     1     140.267 121.714  96.819  0.00  0.00    +0.000 HD
ENDROOT
BRANCH   7  32
ATOM     32  O   UNL     1     145.858 128.028  95.231  0.00  0.00    +0.000 OA
ATOM     33  H   UNL     1     145.394 127.165  95.166  0.00  0.00    +0.000 HD
ENDBRANCH   7  32
BRANCH   7  35
ATOM     34  O   UNL     1     148.299 129.516  97.280  0.00  0.00    +0.000 OA
ATOM     35  C   UNL     1     147.857 128.913  96.300  0.00  0.00    +0.000 C 
BRANCH  35  36
ATOM     36  O   UNL     1     148.363 128.895  95.030  0.00  0.00    +0.000 OA
ATOM     37  C   UNL     1     149.270 129.903  94.676  0.00  0.00    +0.000 C 
ENDBRANCH  35  36
ENDBRANCH   7  35
TORSDOF 3
ENDMDL
MODEL 3
REMARK VINA RESULT:      -8.2      2.563      6.288
REMARK  Name = 490561_Nocardiopsis.pdbqt.pdb
REMARK  3 active torsions:
REMARK  status: ('A' for Active; 'I' for Inactive)
REMARK    1  A    between atoms: C_7  and  O_32
REMARK    2  A    between atoms: C_7  and  C_35
REMARK    3  A    between atoms: C_35  and  O_36
REMARK                            x       y       z     vdW  Elec       q    Type
REMARK                         _______ _______ _______ _____ _____    ______ ____
ROOT
ATOM      1  O   UNL     1     148.879 125.197  95.992  0.00  0.00    +0.000 OA
ATOM      2  O   UNL     1     143.276 124.473 100.974  0.00  0.00    +0.000 OA
ATOM      3  N   UNL     1     146.856 124.209  95.269  0.00  0.00    +0.000 N 
ATOM      4  N   UNL     1     147.387 126.087  97.549  0.00  0.00    +0.000 N 
ATOM      5  N   UNL     1     142.656 122.953  99.331  0.00  0.00    +0.000 N 
ATOM      6  C   UNL     1     148.056 124.933  94.801  0.00  0.00    +0.000 C 
ATOM      7  C   UNL     1     147.734 126.379  94.227  0.00  0.00    +0.000 C 
ATOM      8  C   UNL     1     148.311 126.354  96.554  0.00  0.00    +0.000 C 
ATOM      9  C   UNL     1     147.865 127.141  95.465  0.00  0.00    +0.000 C 
ATOM     10  C   UNL     1     146.196 124.246  96.472  0.00  0.00    +0.000 A 
ATOM     11  C   UNL     1     146.445 125.104  97.543  0.00  0.00    +0.000 A 
ATOM     12  C   UNL     1     145.091 123.413  96.669  0.00  0.00    +0.000 A 
ATOM     13  C   UNL     1     145.559 124.995  98.621  0.00  0.00    +0.000 A 
ATOM     14  C   UNL     1     148.952 124.049  93.872  0.00  0.00    +0.000 C 
ATOM     15  C   UNL     1     146.029 123.293  94.572  0.00  0.00    +0.000 A 
ATOM     16  C   UNL     1     147.060 126.742  98.751  0.00  0.00    +0.000 A 
ATOM     17  C   UNL     1     144.976 122.780  95.418  0.00  0.00    +0.000 A 
ATOM     18  C   UNL     1     144.206 123.270  97.745  0.00  0.00    +0.000 A 
ATOM     19  C   UNL     1     144.454 124.147  98.842  0.00  0.00    +0.000 A 
ATOM     20  C   UNL     1     145.970 126.077  99.431  0.00  0.00    +0.000 A 
ATOM     21  C   UNL     1     142.996 122.490  98.110  0.00  0.00    +0.000 C 
ATOM     22  C   UNL     1     146.120 122.872  93.235  0.00  0.00    +0.000 A 
ATOM     23  C   UNL     1     143.464 123.960  99.880  0.00  0.00    +0.000 C 
ATOM     24  C   UNL     1     147.666 127.880  99.304  0.00  0.00    +0.000 A 
ATOM     25  C   UNL     1     144.070 121.847  94.873  0.00  0.00    +0.000 A 
ATOM     26  C   UNL     1     145.532 126.617 100.656  0.00  0.00    +0.000 A 
ATOM     27  C   UNL     1     145.201 121.945  92.742  0.00  0.00    +0.000 A 
ATOM     28  C   UNL     1     144.195 121.434  93.547  0.00  0.00    +0.000 A 
ATOM     29  C   UNL     1     147.195 128.366 100.524  0.00  0.00    +0.000 A 
ATOM     30  C   UNL     1     146.148 127.748 101.191  0.00  0.00    +0.000 A 
ATOM     31  H   UNL     1     141.860 122.604  99.843  0.00  0.00    +0.000 HD
ENDROOT
BRANCH   7  32
ATOM     32  O   UNL     1     146.401 126.543  93.718  0.00  0.00    +0.000 OA
ATOM     33  H   UNL     1     145.830 125.894  94.185  0.00  0.00    +0.000 HD
ENDBRANCH   7  32
BRANCH   7  35
ATOM     34  O   UNL     1     148.567 126.600  91.986  0.00  0.00    +0.000 OA
ATOM     35  C   UNL     1     148.761 126.818  93.184  0.00  0.00    +0.000 C 
BRANCH  35  36
ATOM     36  O   UNL     1     149.808 127.486  93.756  0.00  0.00    +0.000 OA
ATOM     37  C   UNL     1     150.538 128.366  92.946  0.00  0.00    +0.000 C 
ENDBRANCH  35  36
ENDBRANCH   7  35
TORSDOF 3
ENDMDL
MODEL 4
REMARK VINA RESULT:      -7.4     27.751     28.994
REMARK  Name = 490561_Nocardiopsis.pdbqt.pdb
REMARK  3 active torsions:
REMARK  status: ('A' for Active; 'I' for Inactive)
REMARK    1  A    between atoms: C_7  and  O_32
REMARK    2  A    between atoms: C_7  and  C_35
REMARK    3  A    between atoms: C_35  and  O_36
REMARK                            x       y       z     vdW  Elec       q    Type
REMARK                         _______ _______ _______ _____ _____    ______ ____
ROOT
ATOM      1  O   UNL     1     151.975 133.043 126.249  0.00  0.00    +0.000 OA
ATOM      2  O   UNL     1     157.122 134.763 121.026  0.00  0.00    +0.000 OA
ATOM      3  N   UNL     1     151.590 134.926 124.872  0.00  0.00    +0.000 N 
ATOM      4  N   UNL     1     153.285 132.495 124.398  0.00  0.00    +0.000 N 
ATOM      5  N   UNL     1     155.950 136.759 121.220  0.00  0.00    +0.000 N 
ATOM      6  C   UNL     1     150.917 133.911 125.710  0.00  0.00    +0.000 C 
ATOM      7  C   UNL     1     149.993 132.922 124.876  0.00  0.00    +0.000 C 
ATOM      8  C   UNL     1     152.230 132.126 125.214  0.00  0.00    +0.000 C 
ATOM      9  C   UNL     1     150.986 131.893 124.580  0.00  0.00    +0.000 C 
ATOM     10  C   UNL     1     152.758 134.869 124.156  0.00  0.00    +0.000 A 
ATOM     11  C   UNL     1     153.562 133.748 123.942  0.00  0.00    +0.000 A 
ATOM     12  C   UNL     1     153.196 136.007 123.473  0.00  0.00    +0.000 A 
ATOM     13  C   UNL     1     154.654 133.944 123.089  0.00  0.00    +0.000 A 
ATOM     14  C   UNL     1     150.227 134.543 126.963  0.00  0.00    +0.000 C 
ATOM     15  C   UNL     1     151.179 136.244 124.553  0.00  0.00    +0.000 A 
ATOM     16  C   UNL     1     154.283 131.759 123.732  0.00  0.00    +0.000 A 
ATOM     17  C   UNL     1     152.157 136.921 123.732  0.00  0.00    +0.000 A 
ATOM     18  C   UNL     1     154.295 136.233 122.635  0.00  0.00    +0.000 A 
ATOM     19  C   UNL     1     155.118 135.089 122.410  0.00  0.00    +0.000 A 
ATOM     20  C   UNL     1     155.141 132.624 122.953  0.00  0.00    +0.000 A 
ATOM     21  C   UNL     1     154.883 137.327 121.820  0.00  0.00    +0.000 C 
ATOM     22  C   UNL     1     149.996 136.908 124.920  0.00  0.00    +0.000 A 
ATOM     23  C   UNL     1     156.196 135.406 121.498  0.00  0.00    +0.000 C 
ATOM     24  C   UNL     1     154.503 130.374 123.772  0.00  0.00    +0.000 A 
ATOM     25  C   UNL     1     151.900 138.248 123.335  0.00  0.00    +0.000 A 
ATOM     26  C   UNL     1     156.194 132.029 122.231  0.00  0.00    +0.000 A 
ATOM     27  C   UNL     1     149.788 138.222 124.503  0.00  0.00    +0.000 A 
ATOM     28  C   UNL     1     150.725 138.887 123.728  0.00  0.00    +0.000 A 
ATOM     29  C   UNL     1     155.565 129.841 123.043  0.00  0.00    +0.000 A 
ATOM     30  C   UNL     1     156.398 130.651 122.285  0.00  0.00    +0.000 A 
ATOM     31  H   UNL     1     156.556 137.267 120.593  0.00  0.00    +0.000 HD
ENDROOT
BRANCH   7  32
ATOM     32  O   UNL     1     149.496 133.458 123.641  0.00  0.00    +0.000 OA
ATOM     33  H   UNL     1     149.663 132.786 122.944  0.00  0.00    +0.000 HD
ENDBRANCH   7  32
BRANCH   7  35
ATOM     34  O   UNL     1     147.767 132.966 125.773  0.00  0.00    +0.000 OA
ATOM     35  C   UNL     1     148.846 132.371 125.720  0.00  0.00    +0.000 C 
BRANCH  35  36
ATOM     36  O   UNL     1     149.175 131.180 126.305  0.00  0.00    +0.000 OA
ATOM     37  C   UNL     1     148.748 130.962 127.623  0.00  0.00    +0.000 C 
ENDBRANCH  35  36
ENDBRANCH   7  35
TORSDOF 3
ENDMDL
MODEL 5
REMARK VINA RESULT:      -7.4     14.557     15.489
REMARK  Name = 490561_Nocardiopsis.pdbqt.pdb
REMARK  3 active torsions:
REMARK  status: ('A' for Active; 'I' for Inactive)
REMARK    1  A    between atoms: C_7  and  O_32
REMARK    2  A    between atoms: C_7  and  C_35
REMARK    3  A    between atoms: C_35  and  O_36
REMARK                            x       y       z     vdW  Elec       q    Type
REMARK                         _______ _______ _______ _____ _____    ______ ____
ROOT
ATOM      1  O   UNL     1     148.356 115.244 110.047  0.00  0.00    +0.000 OA
ATOM      2  O   UNL     1     143.820 115.112 104.035  0.00  0.00    +0.000 OA
ATOM      3  N   UNL     1     146.086 114.666 110.368  0.00  0.00    +0.000 N 
ATOM      4  N   UNL     1     147.799 114.492 107.910  0.00  0.00    +0.000 N 
ATOM      5  N   UNL     1     142.296 115.244 105.783  0.00  0.00    +0.000 N 
ATOM      6  C   UNL     1     147.439 114.523 110.943  0.00  0.00    +0.000 C 
ATOM      7  C   UNL     1     147.975 113.027 110.921  0.00  0.00    +0.000 C 
ATOM      8  C   UNL     1     148.619 114.328 109.013  0.00  0.00    +0.000 C 
ATOM      9  C   UNL     1     148.628 113.047 109.616  0.00  0.00    +0.000 C 
ATOM     10  C   UNL     1     145.674 114.822 109.068  0.00  0.00    +0.000 A 
ATOM     11  C   UNL     1     146.464 114.758 107.920  0.00  0.00    +0.000 A 
ATOM     12  C   UNL     1     144.311 114.980 108.800  0.00  0.00    +0.000 A 
ATOM     13  C   UNL     1     145.774 114.857 106.707  0.00  0.00    +0.000 A 
ATOM     14  C   UNL     1     147.570 115.240 112.328  0.00  0.00    +0.000 C 
ATOM     15  C   UNL     1     144.825 114.645 111.016  0.00  0.00    +0.000 A 
ATOM     16  C   UNL     1     148.017 114.349 106.527  0.00  0.00    +0.000 A 
ATOM     17  C   UNL     1     143.745 114.865 110.082  0.00  0.00    +0.000 A 
ATOM     18  C   UNL     1     143.601 115.104 107.598  0.00  0.00    +0.000 A 
ATOM     19  C   UNL     1     144.405 115.036 106.421  0.00  0.00    +0.000 A 
ATOM     20  C   UNL     1     146.805 114.593 105.778  0.00  0.00    +0.000 A 
ATOM     21  C   UNL     1     142.199 115.241 107.129  0.00  0.00    +0.000 C 
ATOM     22  C   UNL     1     144.542 114.436 112.376  0.00  0.00    +0.000 A 
ATOM     23  C   UNL     1     143.582 115.125 105.234  0.00  0.00    +0.000 C 
ATOM     24  C   UNL     1     149.216 114.031 105.872  0.00  0.00    +0.000 A 
ATOM     25  C   UNL     1     142.424 114.882 110.573  0.00  0.00    +0.000 A 
ATOM     26  C   UNL     1     146.867 114.491 104.374  0.00  0.00    +0.000 A 
ATOM     27  C   UNL     1     143.218 114.463 112.814  0.00  0.00    +0.000 A 
ATOM     28  C   UNL     1     142.174 114.688 111.932  0.00  0.00    +0.000 A 
ATOM     29  C   UNL     1     149.221 113.950 104.480  0.00  0.00    +0.000 A 
ATOM     30  C   UNL     1     148.069 114.176 103.741  0.00  0.00    +0.000 A 
ATOM     31  H   UNL     1     141.491 115.326 105.180  0.00  0.00    +0.000 HD
ENDROOT
BRANCH   7  32
ATOM     32  O   UNL     1     146.953 112.019 110.914  0.00  0.00    +0.000 OA
ATOM     33  H   UNL     1     146.607 111.961 109.997  0.00  0.00    +0.000 HD
ENDBRANCH   7  32
BRANCH   7  35
ATOM     34  O   UNL     1     148.615 112.205 113.084  0.00  0.00    +0.000 OA
ATOM     35  C   UNL     1     148.975 112.765 112.047  0.00  0.00    +0.000 C 
BRANCH  35  36
ATOM     36  O   UNL     1     150.235 113.172 111.708  0.00  0.00    +0.000 OA
ATOM     37  C   UNL     1     151.158 113.366 112.746  0.00  0.00    +0.000 C 
ENDBRANCH  35  36
ENDBRANCH   7  35
TORSDOF 3
ENDMDL
MODEL 6
REMARK VINA RESULT:      -7.2      3.223      6.796
REMARK  Name = 490561_Nocardiopsis.pdbqt.pdb
REMARK  3 active torsions:
REMARK  status: ('A' for Active; 'I' for Inactive)
REMARK    1  A    between atoms: C_7  and  O_32
REMARK    2  A    between atoms: C_7  and  C_35
REMARK    3  A    between atoms: C_35  and  O_36
REMARK                            x       y       z     vdW  Elec       q    Type
REMARK                         _______ _______ _______ _____ _____    ______ ____
ROOT
ATOM      1  O   UNL     1     144.476 124.143  95.876  0.00  0.00    +0.000 OA
ATOM      2  O   UNL     1     142.706 128.728 101.583  0.00  0.00    +0.000 OA
ATOM      3  N   UNL     1     143.608 126.283  95.368  0.00  0.00    +0.000 N 
ATOM      4  N   UNL     1     145.023 125.301  97.826  0.00  0.00    +0.000 N 
ATOM      5  N   UNL     1     141.519 129.672  99.825  0.00  0.00    +0.000 N 
ATOM      6  C   UNL     1     144.430 125.178  94.832  0.00  0.00    +0.000 C 
ATOM      7  C   UNL     1     145.953 125.576  94.616  0.00  0.00    +0.000 C 
ATOM      8  C   UNL     1     145.493 124.574  96.746  0.00  0.00    +0.000 C 
ATOM      9  C   UNL     1     146.466 125.202  95.931  0.00  0.00    +0.000 C 
ATOM     10  C   UNL     1     143.401 126.705  96.657  0.00  0.00    +0.000 A 
ATOM     11  C   UNL     1     144.042 126.245  97.807  0.00  0.00    +0.000 A 
ATOM     12  C   UNL     1     142.526 127.769  96.893  0.00  0.00    +0.000 A 
ATOM     13  C   UNL     1     143.712 126.916  98.990  0.00  0.00    +0.000 A 
ATOM     14  C   UNL     1     143.758 124.487  93.599  0.00  0.00    +0.000 C 
ATOM     15  C   UNL     1     142.828 127.242  94.675  0.00  0.00    +0.000 A 
ATOM     16  C   UNL     1     145.428 125.385  99.171  0.00  0.00    +0.000 A 
ATOM     17  C   UNL     1     142.142 128.128  95.588  0.00  0.00    +0.000 A 
ATOM     18  C   UNL     1     142.163 128.440  98.068  0.00  0.00    +0.000 A 
ATOM     19  C   UNL     1     142.818 127.976  99.247  0.00  0.00    +0.000 A 
ATOM     20  C   UNL     1     144.626 126.341  99.901  0.00  0.00    +0.000 A 
ATOM     21  C   UNL     1     141.306 129.575  98.495  0.00  0.00    +0.000 C 
ATOM     22  C   UNL     1     142.673 127.410  93.288  0.00  0.00    +0.000 A 
ATOM     23  C   UNL     1     142.416 128.758 100.396  0.00  0.00    +0.000 C 
ATOM     24  C   UNL     1     146.450 124.667  99.809  0.00  0.00    +0.000 A 
ATOM     25  C   UNL     1     141.315 129.136  95.053  0.00  0.00    +0.000 A 
ATOM     26  C   UNL     1     144.912 126.533 101.267  0.00  0.00    +0.000 A 
ATOM     27  C   UNL     1     141.842 128.422  92.808  0.00  0.00    +0.000 A 
ATOM     28  C   UNL     1     141.167 129.269  93.673  0.00  0.00    +0.000 A 
ATOM     29  C   UNL     1     146.684 124.892 101.165  0.00  0.00    +0.000 A 
ATOM     30  C   UNL     1     145.930 125.808 101.885  0.00  0.00    +0.000 A 
ATOM     31  H   UNL     1     141.064 130.366 100.399  0.00  0.00    +0.000 HD
ENDROOT
BRANCH   7  32
ATOM     32  O   UNL     1     146.187 126.976  94.406  0.00  0.00    +0.000 OA
ATOM     33  H   UNL     1     146.366 127.376  95.285  0.00  0.00    +0.000 HD
ENDBRANCH   7  32
BRANCH   7  35
ATOM     34  O   UNL     1     146.656 125.191  92.353  0.00  0.00    +0.000 OA
ATOM     35  C   UNL     1     146.603 124.754  93.504  0.00  0.00    +0.000 C 
BRANCH  35  36
ATOM     36  O   UNL     1     147.120 123.581  93.979  0.00  0.00    +0.000 OA
ATOM     37  C   UNL     1     146.823 122.406  93.274  0.00  0.00    +0.000 C 
ENDBRANCH  35  36
ENDBRANCH   7  35
TORSDOF 3
ENDMDL
MODEL 7
REMARK VINA RESULT:      -6.9     13.852     14.650
REMARK  Name = 490561_Nocardiopsis.pdbqt.pdb
REMARK  3 active torsions:
REMARK  status: ('A' for Active; 'I' for Inactive)
REMARK    1  A    between atoms: C_7  and  O_32
REMARK    2  A    between atoms: C_7  and  C_35
REMARK    3  A    between atoms: C_35  and  O_36
REMARK                            x       y       z     vdW  Elec       q    Type
REMARK                         _______ _______ _______ _____ _____    ______ ____
ROOT
ATOM      1  O   UNL     1     146.520 115.130 109.602  0.00  0.00    +0.000 OA
ATOM      2  O   UNL     1     147.381 114.277 102.168  0.00  0.00    +0.000 OA
ATOM      3  N   UNL     1     144.666 114.387 108.336  0.00  0.00    +0.000 N 
ATOM      4  N   UNL     1     147.605 114.212 107.752  0.00  0.00    +0.000 N 
ATOM      5  N   UNL     1     145.070 114.385 102.374  0.00  0.00    +0.000 N 
ATOM      6  C   UNL     1     145.252 114.389 109.693  0.00  0.00    +0.000 C 
ATOM      7  C   UNL     1     145.685 112.943 110.192  0.00  0.00    +0.000 C 
ATOM      8  C   UNL     1     147.441 114.181 109.126  0.00  0.00    +0.000 C 
ATOM      9  C   UNL     1     147.058 112.942 109.694  0.00  0.00    +0.000 C 
ATOM     10  C   UNL     1     145.260 114.433 107.101  0.00  0.00    +0.000 A 
ATOM     11  C   UNL     1     146.625 114.368 106.819  0.00  0.00    +0.000 A 
ATOM     12  C   UNL     1     144.455 114.462 105.958  0.00  0.00    +0.000 A 
ATOM     13  C   UNL     1     146.959 114.339 105.461  0.00  0.00    +0.000 A 
ATOM     14  C   UNL     1     144.379 115.193 110.712  0.00  0.00    +0.000 C 
ATOM     15  C   UNL     1     143.307 114.299 107.944  0.00  0.00    +0.000 A 
ATOM     16  C   UNL     1     148.718 114.008 106.916  0.00  0.00    +0.000 A 
ATOM     17  C   UNL     1     143.163 114.375 106.508  0.00  0.00    +0.000 A 
ATOM     18  C   UNL     1     144.767 114.458 104.592  0.00  0.00    +0.000 A 
ATOM     19  C   UNL     1     146.162 114.388 104.299  0.00  0.00    +0.000 A 
ATOM     20  C   UNL     1     148.352 114.108 105.521  0.00  0.00    +0.000 A 
ATOM     21  C   UNL     1     144.072 114.451 103.280  0.00  0.00    +0.000 C 
ATOM     22  C   UNL     1     142.168 114.147 108.753  0.00  0.00    +0.000 A 
ATOM     23  C   UNL     1     146.382 114.340 102.870  0.00  0.00    +0.000 C 
ATOM     24  C   UNL     1     150.044 113.752 107.296  0.00  0.00    +0.000 A 
ATOM     25  C   UNL     1     141.868 114.312 105.957  0.00  0.00    +0.000 A 
ATOM     26  C   UNL     1     149.367 113.930 104.560  0.00  0.00    +0.000 A 
ATOM     27  C   UNL     1     140.907 114.091 108.160  0.00  0.00    +0.000 A 
ATOM     28  C   UNL     1     140.754 114.177 106.786  0.00  0.00    +0.000 A 
ATOM     29  C   UNL     1     151.009 113.591 106.301  0.00  0.00    +0.000 A 
ATOM     30  C   UNL     1     150.679 113.679 104.956  0.00  0.00    +0.000 A 
ATOM     31  H   UNL     1     144.901 114.365 101.379  0.00  0.00    +0.000 HD
ENDROOT
BRANCH   7  32
ATOM     32  O   UNL     1     144.970 111.856 109.586  0.00  0.00    +0.000 OA
ATOM     33  H   UNL     1     144.059 112.174 109.402  0.00  0.00    +0.000 HD
ENDBRANCH   7  32
BRANCH   7  35
ATOM     34  O   UNL     1     144.632 112.398 112.279  0.00  0.00    +0.000 OA
ATOM     35  C   UNL     1     145.639 112.830 111.714  0.00  0.00    +0.000 C 
BRANCH  35  36
ATOM     36  O   UNL     1     146.823 113.204 112.286  0.00  0.00    +0.000 OA
ATOM     37  C   UNL     1     146.771 114.082 113.377  0.00  0.00    +0.000 C 
ENDBRANCH  35  36
ENDBRANCH   7  35
TORSDOF 3
ENDMDL
MODEL 8
REMARK VINA RESULT:      -6.9     14.101     16.414
REMARK  Name = 490561_Nocardiopsis.pdbqt.pdb
REMARK  3 active torsions:
REMARK  status: ('A' for Active; 'I' for Inactive)
REMARK    1  A    between atoms: C_7  and  O_32
REMARK    2  A    between atoms: C_7  and  C_35
REMARK    3  A    between atoms: C_35  and  O_36
REMARK                            x       y       z     vdW  Elec       q    Type
REMARK                         _______ _______ _______ _____ _____    ______ ____
ROOT
ATOM      1  O   UNL     1     144.238 112.772 107.512  0.00  0.00    +0.000 OA
ATOM      2  O   UNL     1     142.719 115.338 114.428  0.00  0.00    +0.000 OA
ATOM      3  N   UNL     1     142.148 113.812 107.888  0.00  0.00    +0.000 N 
ATOM      4  N   UNL     1     144.743 114.086 109.372  0.00  0.00    +0.000 N 
ATOM      5  N   UNL     1     140.599 115.211 113.488  0.00  0.00    +0.000 N 
ATOM      6  C   UNL     1     143.139 113.485 106.842  0.00  0.00    +0.000 C 
ATOM      7  C   UNL     1     143.838 114.768 106.215  0.00  0.00    +0.000 C 
ATOM      8  C   UNL     1     145.037 113.796 108.051  0.00  0.00    +0.000 C 
ATOM      9  C   UNL     1     144.970 114.871 107.132  0.00  0.00    +0.000 C 
ATOM     10  C   UNL     1     142.304 114.052 109.230  0.00  0.00    +0.000 A 
ATOM     11  C   UNL     1     143.504 114.165 109.932  0.00  0.00    +0.000 A 
ATOM     12  C   UNL     1     141.174 114.300 110.013  0.00  0.00    +0.000 A 
ATOM     13  C   UNL     1     143.382 114.509 111.283  0.00  0.00    +0.000 A 
ATOM     14  C   UNL     1     142.575 112.474 105.790  0.00  0.00    +0.000 C 
ATOM     15  C   UNL     1     140.749 114.005 107.772  0.00  0.00    +0.000 A 
ATOM     16  C   UNL     1     145.540 114.469 110.466  0.00  0.00    +0.000 A 
ATOM     17  C   UNL     1     140.142 114.270 109.057  0.00  0.00    +0.000 A 
ATOM     18  C   UNL     1     141.026 114.622 111.369  0.00  0.00    +0.000 A 
ATOM     19  C   UNL     1     142.251 114.743 112.090  0.00  0.00    +0.000 A 
ATOM     20  C   UNL     1     144.734 114.704 111.644  0.00  0.00    +0.000 A 
ATOM     21  C   UNL     1     139.946 114.945 112.337  0.00  0.00    +0.000 C 
ATOM     22  C   UNL     1     139.952 113.975 106.616  0.00  0.00    +0.000 A 
ATOM     23  C   UNL     1     141.999 115.123 113.464  0.00  0.00    +0.000 C 
ATOM     24  C   UNL     1     146.935 114.614 110.508  0.00  0.00    +0.000 A 
ATOM     25  C   UNL     1     138.749 114.476 109.114  0.00  0.00    +0.000 A 
ATOM     26  C   UNL     1     145.395 115.091 112.827  0.00  0.00    +0.000 A 
ATOM     27  C   UNL     1     138.577 114.184 106.723  0.00  0.00    +0.000 A 
ATOM     28  C   UNL     1     137.981 114.424 107.951  0.00  0.00    +0.000 A 
ATOM     29  C   UNL     1     147.535 114.992 111.708  0.00  0.00    +0.000 A 
ATOM     30  C   UNL     1     146.782 115.227 112.849  0.00  0.00    +0.000 A 
ATOM     31  H   UNL     1     140.120 115.466 114.338  0.00  0.00    +0.000 HD
ENDROOT
BRANCH   7  32
ATOM     32  O   UNL     1     143.065 115.974 106.293  0.00  0.00    +0.000 OA
ATOM     33  H   UNL     1     143.690 116.710 106.475  0.00  0.00    +0.000 HD
ENDBRANCH   7  32
BRANCH   7  35
ATOM     34  O   UNL     1     143.599 114.879 103.829  0.00  0.00    +0.000 OA
ATOM     35  C   UNL     1     144.297 114.520 104.779  0.00  0.00    +0.000 C 
BRANCH  35  36
ATOM     36  O   UNL     1     145.532 113.935 104.737  0.00  0.00    +0.000 OA
ATOM     37  C   UNL     1     146.353 114.226 103.638  0.00  0.00    +0.000 C 
ENDBRANCH  35  36
ENDBRANCH   7  35
TORSDOF 3
ENDMDL
MODEL 9
REMARK VINA RESULT:      -6.8     35.899     38.602
REMARK  Name = 490561_Nocardiopsis.pdbqt.pdb
REMARK  3 active torsions:
REMARK  status: ('A' for Active; 'I' for Inactive)
REMARK    1  A    between atoms: C_7  and  O_32
REMARK    2  A    between atoms: C_7  and  C_35
REMARK    3  A    between atoms: C_35  and  O_36
REMARK                            x       y       z     vdW  Elec       q    Type
REMARK                         _______ _______ _______ _____ _____    ______ ____
ROOT
ATOM      1  O   UNL     1     138.347 133.816 132.272  0.00  0.00    +0.000 OA
ATOM      2  O   UNL     1     133.039 139.074 133.228  0.00  0.00    +0.000 OA
ATOM      3  N   UNL     1     138.387 135.102 134.255  0.00  0.00    +0.000 N 
ATOM      4  N   UNL     1     136.115 134.483 132.395  0.00  0.00    +0.000 N 
ATOM      5  N   UNL     1     134.663 139.750 134.745  0.00  0.00    +0.000 N 
ATOM      6  C   UNL     1     138.810 133.814 133.668  0.00  0.00    +0.000 C 
ATOM      7  C   UNL     1     138.079 132.559 134.314  0.00  0.00    +0.000 C 
ATOM      8  C   UNL     1     137.000 133.420 132.353  0.00  0.00    +0.000 C 
ATOM      9  C   UNL     1     136.929 132.489 133.418  0.00  0.00    +0.000 C 
ATOM     10  C   UNL     1     137.319 135.913 133.967  0.00  0.00    +0.000 A 
ATOM     11  C   UNL     1     136.266 135.642 133.092  0.00  0.00    +0.000 A 
ATOM     12  C   UNL     1     137.174 137.120 134.657  0.00  0.00    +0.000 A 
ATOM     13  C   UNL     1     135.251 136.605 133.054  0.00  0.00    +0.000 A 
ATOM     14  C   UNL     1     140.367 133.687 133.584  0.00  0.00    +0.000 C 
ATOM     15  C   UNL     1     138.964 135.838 135.320  0.00  0.00    +0.000 A 
ATOM     16  C   UNL     1     134.825 134.674 131.866  0.00  0.00    +0.000 A 
ATOM     17  C   UNL     1     138.258 137.077 135.553  0.00  0.00    +0.000 A 
ATOM     18  C   UNL     1     136.181 138.108 134.619  0.00  0.00    +0.000 A 
ATOM     19  C   UNL     1     135.101 137.833 133.729  0.00  0.00    +0.000 A 
ATOM     20  C   UNL     1     134.294 135.968 132.233  0.00  0.00    +0.000 A 
ATOM     21  C   UNL     1     135.850 139.396 135.280  0.00  0.00    +0.000 C 
ATOM     22  C   UNL     1     140.070 135.503 136.120  0.00  0.00    +0.000 A 
ATOM     23  C   UNL     1     134.106 138.882 133.793  0.00  0.00    +0.000 C 
ATOM     24  C   UNL     1     134.082 133.791 131.067  0.00  0.00    +0.000 A 
ATOM     25  C   UNL     1     138.716 137.931 136.576  0.00  0.00    +0.000 A 
ATOM     26  C   UNL     1     133.007 136.306 131.771  0.00  0.00    +0.000 A 
ATOM     27  C   UNL     1     140.486 136.381 137.120  0.00  0.00    +0.000 A 
ATOM     28  C   UNL     1     139.827 137.579 137.344  0.00  0.00    +0.000 A 
ATOM     29  C   UNL     1     132.816 134.182 130.633  0.00  0.00    +0.000 A 
ATOM     30  C   UNL     1     132.285 135.417 130.976  0.00  0.00    +0.000 A 
ATOM     31  H   UNL     1     134.179 140.597 135.006  0.00  0.00    +0.000 HD
ENDROOT
BRANCH   7  32
ATOM     32  O   UNL     1     137.612 132.758 135.657  0.00  0.00    +0.000 OA
ATOM     33  H   UNL     1     136.977 133.507 135.636  0.00  0.00    +0.000 HD
ENDBRANCH   7  32
BRANCH   7  35
ATOM     34  O   UNL     1     139.692 130.991 135.154  0.00  0.00    +0.000 OA
ATOM     35  C   UNL     1     138.936 131.297 134.229  0.00  0.00    +0.000 C 
BRANCH  35  36
ATOM     36  O   UNL     1     138.696 130.599 133.078  0.00  0.00    +0.000 OA
ATOM     37  C   UNL     1     139.320 129.353 132.930  0.00  0.00    +0.000 C 
ENDBRANCH  35  36
ENDBRANCH   7  35
TORSDOF 3
ENDMDL
