MODEL 1
REMARK VINA RESULT:      -7.6      0.000      0.000
REMARK  Name = 50922675_Encorafenib.pdbqt.pdb
REMARK  8 active torsions:
REMARK  status: ('A' for Active; 'I' for Inactive)
REMARK    1  A    between atoms: N_1  and  C_37
REMARK    2  A    between atoms: C_3  and  C_23
REMARK    3  A    between atoms: C_4  and  C_8
REMARK    4  A    between atoms: C_11  and  N_14
REMARK    5  A    between atoms: N_14  and  S_16
REMARK    6  A    between atoms: N_20  and  C_28
REMARK    7  A    between atoms: C_28  and  C_29
REMARK    8  A    between atoms: C_33  and  O_35
REMARK                            x       y       z     vdW  Elec       q    Type
REMARK                         _______ _______ _______ _____ _____    ______ ____
ROOT
ATOM      1  N   UNL     1     143.475 123.410  96.436  0.00  0.00    +0.000 N 
ATOM      2  N   UNL     1     144.620 123.699  97.150  0.00  0.00    +0.000 NA
ATOM      3  C   UNL     1     143.304 125.563  97.094  0.00  0.00    +0.000 A 
ATOM      4  C   UNL     1     144.507 124.970  97.566  0.00  0.00    +0.000 A 
ATOM      5  C   UNL     1     142.689 124.555  96.391  0.00  0.00    +0.000 A 
ENDROOT
BRANCH   4   8
ATOM      6 CL   UNL     1     146.532 125.856 102.218  0.00  0.00    +0.000 Cl
ATOM      7  F   UNL     1     146.697 126.408  96.420  0.00  0.00    +0.000 F 
ATOM      8  C   UNL     1     145.587 125.553  98.353  0.00  0.00    +0.000 A 
ATOM      9  C   UNL     1     146.631 126.269  97.754  0.00  0.00    +0.000 A 
ATOM     10  C   UNL     1     145.555 125.449  99.744  0.00  0.00    +0.000 A 
ATOM     11  C   UNL     1     147.641 126.851  98.528  0.00  0.00    +0.000 A 
ATOM     12  C   UNL     1     146.556 126.031 100.514  0.00  0.00    +0.000 A 
ATOM     13  C   UNL     1     147.589 126.745  99.916  0.00  0.00    +0.000 A 
BRANCH  11  14
ATOM     14  N   UNL     1     148.643 127.664  97.900  0.00  0.00    +0.000 N 
ATOM     15  H   UNL     1     149.531 127.675  98.411  0.00  0.00    +0.000 HD
BRANCH  14  16
ATOM     16  S   UNL     1     148.247 129.249  97.526  0.00  0.00    +0.000 S 
ATOM     17  O   UNL     1     146.860 129.522  97.792  0.00  0.00    +0.000 OA
ATOM     18  O   UNL     1     149.338 130.185  97.681  0.00  0.00    +0.000 OA
ATOM     19  C   UNL     1     148.155 129.300  95.762  0.00  0.00    +0.000 C 
ENDBRANCH  14  16
ENDBRANCH  11  14
ENDBRANCH   4   8
BRANCH   3  23
ATOM     20  N   UNL     1     141.618 128.921 100.005  0.00  0.00    +0.000 N 
ATOM     21  N   UNL     1     142.451 127.264  98.524  0.00  0.00    +0.000 NA
ATOM     22  N   UNL     1     141.610 129.315  97.715  0.00  0.00    +0.000 NA
ATOM     23  C   UNL     1     142.714 126.882  97.261  0.00  0.00    +0.000 A 
ATOM     24  C   UNL     1     141.904 128.477  98.713  0.00  0.00    +0.000 A 
ATOM     25  C   UNL     1     142.443 127.673  96.168  0.00  0.00    +0.000 A 
ATOM     26  C   UNL     1     141.887 128.891  96.469  0.00  0.00    +0.000 A 
ATOM     27  H   UNL     1     141.007 129.728  99.937  0.00  0.00    +0.000 HD
BRANCH  20  28
ATOM     28  C   UNL     1     141.318 127.901 101.002  0.00  0.00    +0.000 C 
BRANCH  28  29
ATOM     29  C   UNL     1     141.153 126.906 101.999  0.00  0.00    +0.000 C 
ATOM     30  C   UNL     1     139.978 125.983 101.878  0.00  0.00    +0.000 C 
ATOM     31  O   UNL     1     143.568 128.309 102.687  0.00  0.00    +0.000 OA
ATOM     32  N   UNL     1     142.078 126.579 102.932  0.00  0.00    +0.000 N 
ATOM     33  C   UNL     1     143.240 127.249 103.211  0.00  0.00    +0.000 C 
ATOM     34  H   UNL     1     141.887 125.722 103.444  0.00  0.00    +0.000 HD
BRANCH  33  35
ATOM     35  O   UNL     1     143.956 126.561 104.163  0.00  0.00    +0.000 OA
ATOM     36  C   UNL     1     143.586 125.235 104.444  0.00  0.00    +0.000 C 
ENDBRANCH  33  35
ENDBRANCH  28  29
ENDBRANCH  20  28
ENDBRANCH   3  23
BRANCH   1  37
ATOM     37  C   UNL     1     143.114 122.185  95.823  0.00  0.00    +0.000 C 
ATOM     38  C   UNL     1     141.720 121.597  95.957  0.00  0.00    +0.000 C 
ATOM     39  C   UNL     1     144.086 121.388  94.978  0.00  0.00    +0.000 C 
ENDBRANCH   1  37
TORSDOF 8
ENDMDL
MODEL 2
REMARK VINA RESULT:      -7.5      2.385      3.861
REMARK  Name = 50922675_Encorafenib.pdbqt.pdb
REMARK  8 active torsions:
REMARK  status: ('A' for Active; 'I' for Inactive)
REMARK    1  A    between atoms: N_1  and  C_37
REMARK    2  A    between atoms: C_3  and  C_23
REMARK    3  A    between atoms: C_4  and  C_8
REMARK    4  A    between atoms: C_11  and  N_14
REMARK    5  A    between atoms: N_14  and  S_16
REMARK    6  A    between atoms: N_20  and  C_28
REMARK    7  A    between atoms: C_28  and  C_29
REMARK    8  A    between atoms: C_33  and  O_35
REMARK                            x       y       z     vdW  Elec       q    Type
REMARK                         _______ _______ _______ _____ _____    ______ ____
ROOT
ATOM      1  N   UNL     1     143.035 123.388  97.208  0.00  0.00    +0.000 N 
ATOM      2  N   UNL     1     144.063 123.855  96.414  0.00  0.00    +0.000 NA
ATOM      3  C   UNL     1     144.539 124.349  98.591  0.00  0.00    +0.000 A 
ATOM      4  C   UNL     1     144.971 124.401  97.238  0.00  0.00    +0.000 A 
ATOM      5  C   UNL     1     143.324 123.709  98.528  0.00  0.00    +0.000 A 
ENDROOT
BRANCH   4   8
ATOM      6 CL   UNL     1     149.639 123.646  95.197  0.00  0.00    +0.000 Cl
ATOM      7  F   UNL     1     145.392 127.217  96.971  0.00  0.00    +0.000 F 
ATOM      8  C   UNL     1     146.180 124.984  96.668  0.00  0.00    +0.000 A 
ATOM      9  C   UNL     1     146.356 126.370  96.574  0.00  0.00    +0.000 A 
ATOM     10  C   UNL     1     147.217 124.146  96.256  0.00  0.00    +0.000 A 
ATOM     11  C   UNL     1     147.536 126.912  96.056  0.00  0.00    +0.000 A 
ATOM     12  C   UNL     1     148.393 124.686  95.744  0.00  0.00    +0.000 A 
ATOM     13  C   UNL     1     148.565 126.062  95.657  0.00  0.00    +0.000 A 
BRANCH  11  14
ATOM     14  N   UNL     1     147.733 128.335  96.065  0.00  0.00    +0.000 N 
ATOM     15  H   UNL     1     148.398 128.653  95.354  0.00  0.00    +0.000 HD
BRANCH  14  16
ATOM     16  S   UNL     1     148.149 129.061  97.517  0.00  0.00    +0.000 S 
ATOM     17  O   UNL     1     148.111 128.121  98.605  0.00  0.00    +0.000 OA
ATOM     18  O   UNL     1     149.072 130.166  97.385  0.00  0.00    +0.000 OA
ATOM     19  C   UNL     1     146.731 130.006  97.985  0.00  0.00    +0.000 C 
ENDBRANCH  14  16
ENDBRANCH  11  14
ENDBRANCH   4   8
BRANCH   3  23
ATOM     20  N   UNL     1     143.966 125.872 103.057  0.00  0.00    +0.000 N 
ATOM     21  N   UNL     1     144.286 125.115 100.830  0.00  0.00    +0.000 NA
ATOM     22  N   UNL     1     146.121 125.616 102.228  0.00  0.00    +0.000 NA
ATOM     23  C   UNL     1     145.138 124.784  99.843  0.00  0.00    +0.000 A 
ATOM     24  C   UNL     1     144.808 125.523 102.000  0.00  0.00    +0.000 A 
ATOM     25  C   UNL     1     146.505 124.851  99.981  0.00  0.00    +0.000 A 
ATOM     26  C   UNL     1     146.935 125.278 101.212  0.00  0.00    +0.000 A 
ATOM     27  H   UNL     1     144.514 126.369 103.751  0.00  0.00    +0.000 HD
BRANCH  20  28
ATOM     28  C   UNL     1     142.648 126.388 102.708  0.00  0.00    +0.000 C 
BRANCH  28  29
ATOM     29  C   UNL     1     141.409 126.902 102.248  0.00  0.00    +0.000 C 
ATOM     30  C   UNL     1     140.157 126.405 102.906  0.00  0.00    +0.000 C 
ATOM     31  O   UNL     1     143.432 128.239 100.702  0.00  0.00    +0.000 OA
ATOM     32  N   UNL     1     141.267 127.956 101.411  0.00  0.00    +0.000 N 
ATOM     33  C   UNL     1     142.259 128.597 100.717  0.00  0.00    +0.000 C 
ATOM     34  H   UNL     1     140.320 128.317 101.333  0.00  0.00    +0.000 HD
BRANCH  33  35
ATOM     35  O   UNL     1     141.732 129.674 100.042  0.00  0.00    +0.000 OA
ATOM     36  C   UNL     1     141.734 129.645  98.637  0.00  0.00    +0.000 C 
ENDBRANCH  33  35
ENDBRANCH  28  29
ENDBRANCH  20  28
ENDBRANCH   3  23
BRANCH   1  37
ATOM     37  C   UNL     1     141.861 122.705  96.804  0.00  0.00    +0.000 C 
ATOM     38  C   UNL     1     140.480 123.134  97.268  0.00  0.00    +0.000 C 
ATOM     39  C   UNL     1     141.901 121.514  95.869  0.00  0.00    +0.000 C 
ENDBRANCH   1  37
TORSDOF 8
ENDMDL
MODEL 3
REMARK VINA RESULT:      -7.3      2.828      4.470
REMARK  Name = 50922675_Encorafenib.pdbqt.pdb
REMARK  8 active torsions:
REMARK  status: ('A' for Active; 'I' for Inactive)
REMARK    1  A    between atoms: N_1  and  C_37
REMARK    2  A    between atoms: C_3  and  C_23
REMARK    3  A    between atoms: C_4  and  C_8
REMARK    4  A    between atoms: C_11  and  N_14
REMARK    5  A    between atoms: N_14  and  S_16
REMARK    6  A    between atoms: N_20  and  C_28
REMARK    7  A    between atoms: C_28  and  C_29
REMARK    8  A    between atoms: C_33  and  O_35
REMARK                            x       y       z     vdW  Elec       q    Type
REMARK                         _______ _______ _______ _____ _____    ______ ____
ROOT
ATOM      1  N   UNL     1     141.727 127.152  94.089  0.00  0.00    +0.000 N 
ATOM      2  N   UNL     1     142.998 127.563  94.436  0.00  0.00    +0.000 NA
ATOM      3  C   UNL     1     142.586 125.549  95.427  0.00  0.00    +0.000 A 
ATOM      4  C   UNL     1     143.520 126.598  95.209  0.00  0.00    +0.000 A 
ATOM      5  C   UNL     1     141.479 125.935  94.710  0.00  0.00    +0.000 A 
ENDROOT
BRANCH   4   8
ATOM      6 CL   UNL     1     148.459 125.144  95.086  0.00  0.00    +0.000 Cl
ATOM      7  F   UNL     1     144.191 128.442  97.289  0.00  0.00    +0.000 F 
ATOM      8  C   UNL     1     144.871 126.766  95.731  0.00  0.00    +0.000 A 
ATOM      9  C   UNL     1     145.154 127.666  96.766  0.00  0.00    +0.000 A 
ATOM     10  C   UNL     1     145.904 125.971  95.230  0.00  0.00    +0.000 A 
ATOM     11  C   UNL     1     146.451 127.789  97.277  0.00  0.00    +0.000 A 
ATOM     12  C   UNL     1     147.191 126.091  95.742  0.00  0.00    +0.000 A 
ATOM     13  C   UNL     1     147.467 126.982  96.772  0.00  0.00    +0.000 A 
BRANCH  11  14
ATOM     14  N   UNL     1     146.695 128.643  98.405  0.00  0.00    +0.000 N 
ATOM     15  H   UNL     1     147.658 128.991  98.445  0.00  0.00    +0.000 HD
BRANCH  14  16
ATOM     16  S   UNL     1     146.295 128.067  99.927  0.00  0.00    +0.000 S 
ATOM     17  O   UNL     1     147.133 128.643 100.945  0.00  0.00    +0.000 OA
ATOM     18  O   UNL     1     144.902 127.712 100.080  0.00  0.00    +0.000 OA
ATOM     19  C   UNL     1     146.955 126.429  99.992  0.00  0.00    +0.000 C 
ENDBRANCH  14  16
ENDBRANCH  11  14
ENDBRANCH   4   8
BRANCH   3  23
ATOM     20  N   UNL     1     141.801 123.166  99.464  0.00  0.00    +0.000 N 
ATOM     21  N   UNL     1     142.207 124.328  97.435  0.00  0.00    +0.000 NA
ATOM     22  N   UNL     1     142.721 122.035  97.655  0.00  0.00    +0.000 NA
ATOM     23  C   UNL     1     142.651 124.298  96.165  0.00  0.00    +0.000 A 
ATOM     24  C   UNL     1     142.256 123.187  98.145  0.00  0.00    +0.000 A 
ATOM     25  C   UNL     1     143.152 123.160  95.574  0.00  0.00    +0.000 A 
ATOM     26  C   UNL     1     143.158 122.052  96.383  0.00  0.00    +0.000 A 
ATOM     27  H   UNL     1     142.130 122.312  99.901  0.00  0.00    +0.000 HD
BRANCH  20  28
ATOM     28  C   UNL     1     141.892 124.413 100.214  0.00  0.00    +0.000 C 
BRANCH  28  29
ATOM     29  C   UNL     1     142.105 125.630 100.911  0.00  0.00    +0.000 C 
ATOM     30  C   UNL     1     141.023 126.665 100.858  0.00  0.00    +0.000 C 
ATOM     31  O   UNL     1     144.436 124.022 101.414  0.00  0.00    +0.000 OA
ATOM     32  N   UNL     1     143.107 125.855 101.792  0.00  0.00    +0.000 N 
ATOM     33  C   UNL     1     144.188 125.049 102.036  0.00  0.00    +0.000 C 
ATOM     34  H   UNL     1     143.009 126.701 102.346  0.00  0.00    +0.000 HD
BRANCH  33  35
ATOM     35  O   UNL     1     144.939 125.576 103.061  0.00  0.00    +0.000 OA
ATOM     36  C   UNL     1     144.609 126.857 103.537  0.00  0.00    +0.000 C 
ENDBRANCH  33  35
ENDBRANCH  28  29
ENDBRANCH  20  28
ENDBRANCH   3  23
BRANCH   1  37
ATOM     37  C   UNL     1     140.791 127.817  93.258  0.00  0.00    +0.000 C 
ATOM     38  C   UNL     1     140.497 129.300  93.402  0.00  0.00    +0.000 C 
ATOM     39  C   UNL     1     140.034 127.099  92.160  0.00  0.00    +0.000 C 
ENDBRANCH   1  37
TORSDOF 8
ENDMDL
MODEL 4
REMARK VINA RESULT:      -7.2      3.000      4.377
REMARK  Name = 50922675_Encorafenib.pdbqt.pdb
REMARK  8 active torsions:
REMARK  status: ('A' for Active; 'I' for Inactive)
REMARK    1  A    between atoms: N_1  and  C_37
REMARK    2  A    between atoms: C_3  and  C_23
REMARK    3  A    between atoms: C_4  and  C_8
REMARK    4  A    between atoms: C_11  and  N_14
REMARK    5  A    between atoms: N_14  and  S_16
REMARK    6  A    between atoms: N_20  and  C_28
REMARK    7  A    between atoms: C_28  and  C_29
REMARK    8  A    between atoms: C_33  and  O_35
REMARK                            x       y       z     vdW  Elec       q    Type
REMARK                         _______ _______ _______ _____ _____    ______ ____
ROOT
ATOM      1  N   UNL     1     143.063 127.455  95.153  0.00  0.00    +0.000 N 
ATOM      2  N   UNL     1     144.375 127.444  95.581  0.00  0.00    +0.000 NA
ATOM      3  C   UNL     1     143.055 128.191  97.287  0.00  0.00    +0.000 A 
ATOM      4  C   UNL     1     144.369 127.854  96.859  0.00  0.00    +0.000 A 
ATOM      5  C   UNL     1     142.270 127.928  96.190  0.00  0.00    +0.000 A 
ENDROOT
BRANCH   4   8
ATOM      6 CL   UNL     1     148.997 130.072  97.291  0.00  0.00    +0.000 Cl
ATOM      7  F   UNL     1     145.034 126.203  99.096  0.00  0.00    +0.000 F 
ATOM      8  C   UNL     1     145.634 127.943  97.577  0.00  0.00    +0.000 A 
ATOM      9  C   UNL     1     145.930 127.101  98.656  0.00  0.00    +0.000 A 
ATOM     10  C   UNL     1     146.605 128.850  97.147  0.00  0.00    +0.000 A 
ATOM     11  C   UNL     1     147.163 127.177  99.311  0.00  0.00    +0.000 A 
ATOM     12  C   UNL     1     147.833 128.923  97.797  0.00  0.00    +0.000 A 
ATOM     13  C   UNL     1     148.123 128.081  98.864  0.00  0.00    +0.000 A 
BRANCH  11  14
ATOM     14  N   UNL     1     147.481 126.235 100.348  0.00  0.00    +0.000 N 
ATOM     15  H   UNL     1     147.292 125.264 100.081  0.00  0.00    +0.000 HD
BRANCH  14  16
ATOM     16  S   UNL     1     146.820 126.487 101.867  0.00  0.00    +0.000 S 
ATOM     17  O   UNL     1     147.016 127.842 102.308  0.00  0.00    +0.000 OA
ATOM     18  O   UNL     1     145.670 125.661 102.158  0.00  0.00    +0.000 OA
ATOM     19  C   UNL     1     147.943 125.717 102.995  0.00  0.00    +0.000 C 
ENDBRANCH  14  16
ENDBRANCH  11  14
ENDBRANCH   4   8
BRANCH   3  23
ATOM     20  N   UNL     1     141.193 127.200 101.547  0.00  0.00    +0.000 N 
ATOM     21  N   UNL     1     142.119 127.728  99.426  0.00  0.00    +0.000 NA
ATOM     22  N   UNL     1     141.482 129.424 100.940  0.00  0.00    +0.000 NA
ATOM     23  C   UNL     1     142.514 128.670  98.549  0.00  0.00    +0.000 A 
ATOM     24  C   UNL     1     141.612 128.138 100.602  0.00  0.00    +0.000 A 
ATOM     25  C   UNL     1     142.416 130.018  98.805  0.00  0.00    +0.000 A 
ATOM     26  C   UNL     1     141.887 130.330 100.032  0.00  0.00    +0.000 A 
ATOM     27  H   UNL     1     140.635 127.678 102.245  0.00  0.00    +0.000 HD
BRANCH  20  28
ATOM     28  C   UNL     1     140.725 125.915 101.040  0.00  0.00    +0.000 C 
BRANCH  28  29
ATOM     29  C   UNL     1     140.150 124.709 100.567  0.00  0.00    +0.000 C 
ATOM     30  C   UNL     1     138.675 124.517 100.754  0.00  0.00    +0.000 C 
ATOM     31  O   UNL     1     142.940 124.563  99.886  0.00  0.00    +0.000 OA
ATOM     32  N   UNL     1     140.775 123.807  99.775  0.00  0.00    +0.000 N 
ATOM     33  C   UNL     1     142.103 123.787  99.437  0.00  0.00    +0.000 C 
ATOM     34  H   UNL     1     140.169 123.099  99.369  0.00  0.00    +0.000 HD
BRANCH  33  35
ATOM     35  O   UNL     1     142.340 122.766  98.545  0.00  0.00    +0.000 OA
ATOM     36  C   UNL     1     143.619 122.666  97.973  0.00  0.00    +0.000 C 
ENDBRANCH  33  35
ENDBRANCH  28  29
ENDBRANCH  20  28
ENDBRANCH   3  23
BRANCH   1  37
ATOM     37  C   UNL     1     142.555 127.074  93.886  0.00  0.00    +0.000 C 
ATOM     38  C   UNL     1     142.293 125.622  93.527  0.00  0.00    +0.000 C 
ATOM     39  C   UNL     1     142.221 128.089  92.811  0.00  0.00    +0.000 C 
ENDBRANCH   1  37
TORSDOF 8
ENDMDL
MODEL 5
REMARK VINA RESULT:      -7.0      2.270      2.902
REMARK  Name = 50922675_Encorafenib.pdbqt.pdb
REMARK  8 active torsions:
REMARK  status: ('A' for Active; 'I' for Inactive)
REMARK    1  A    between atoms: N_1  and  C_37
REMARK    2  A    between atoms: C_3  and  C_23
REMARK    3  A    between atoms: C_4  and  C_8
REMARK    4  A    between atoms: C_11  and  N_14
REMARK    5  A    between atoms: N_14  and  S_16
REMARK    6  A    between atoms: N_20  and  C_28
REMARK    7  A    between atoms: C_28  and  C_29
REMARK    8  A    between atoms: C_33  and  O_35
REMARK                            x       y       z     vdW  Elec       q    Type
REMARK                         _______ _______ _______ _____ _____    ______ ____
ROOT
ATOM      1  N   UNL     1     144.323 123.837  95.332  0.00  0.00    +0.000 N 
ATOM      2  N   UNL     1     145.423 124.353  95.988  0.00  0.00    +0.000 NA
ATOM      3  C   UNL     1     143.715 125.861  96.127  0.00  0.00    +0.000 A 
ATOM      4  C   UNL     1     145.054 125.544  96.485  0.00  0.00    +0.000 A 
ATOM      5  C   UNL     1     143.296 124.769  95.406  0.00  0.00    +0.000 A 
ENDROOT
BRANCH   4   8
ATOM      6 CL   UNL     1     148.308 129.534  96.578  0.00  0.00    +0.000 Cl
ATOM      7  F   UNL     1     145.863 124.917  99.155  0.00  0.00    +0.000 F 
ATOM      8  C   UNL     1     146.028 126.326  97.236  0.00  0.00    +0.000 A 
ATOM      9  C   UNL     1     146.413 125.973  98.535  0.00  0.00    +0.000 A 
ATOM     10  C   UNL     1     146.641 127.424  96.629  0.00  0.00    +0.000 A 
ATOM     11  C   UNL     1     147.375 126.716  99.227  0.00  0.00    +0.000 A 
ATOM     12  C   UNL     1     147.599 128.161  97.316  0.00  0.00    +0.000 A 
ATOM     13  C   UNL     1     147.982 127.804  98.604  0.00  0.00    +0.000 A 
BRANCH  11  14
ATOM     14  N   UNL     1     147.826 126.275 100.518  0.00  0.00    +0.000 N 
ATOM     15  H   UNL     1     148.162 125.308 100.517  0.00  0.00    +0.000 HD
BRANCH  14  16
ATOM     16  S   UNL     1     146.784 126.456 101.817  0.00  0.00    +0.000 S 
ATOM     17  O   UNL     1     146.503 127.842 102.078  0.00  0.00    +0.000 OA
ATOM     18  O   UNL     1     145.861 125.358 101.994  0.00  0.00    +0.000 OA
ATOM     19  C   UNL     1     147.773 126.152 103.251  0.00  0.00    +0.000 C 
ENDBRANCH  14  16
ENDBRANCH  11  14
ENDBRANCH   4   8
BRANCH   3  23
ATOM     20  N   UNL     1     141.517 128.595  99.335  0.00  0.00    +0.000 N 
ATOM     21  N   UNL     1     142.600 127.248  97.708  0.00  0.00    +0.000 NA
ATOM     22  N   UNL     1     141.259 129.086  97.079  0.00  0.00    +0.000 NA
ATOM     23  C   UNL     1     142.854 126.998  96.411  0.00  0.00    +0.000 A 
ATOM     24  C   UNL     1     141.805 128.291  98.004  0.00  0.00    +0.000 A 
ATOM     25  C   UNL     1     142.334 127.757  95.387  0.00  0.00    +0.000 A 
ATOM     26  C   UNL     1     141.538 128.797  95.795  0.00  0.00    +0.000 A 
ATOM     27  H   UNL     1     140.735 129.241  99.353  0.00  0.00    +0.000 HD
BRANCH  20  28
ATOM     28  C   UNL     1     141.527 127.486 100.282  0.00  0.00    +0.000 C 
BRANCH  28  29
ATOM     29  C   UNL     1     141.426 126.455 101.250  0.00  0.00    +0.000 C 
ATOM     30  C   UNL     1     140.598 125.253 100.908  0.00  0.00    +0.000 C 
ATOM     31  O   UNL     1     143.167 128.435 102.398  0.00  0.00    +0.000 OA
ATOM     32  N   UNL     1     142.181 126.362 102.369  0.00  0.00    +0.000 N 
ATOM     33  C   UNL     1     143.032 127.312 102.871  0.00  0.00    +0.000 C 
ATOM     34  H   UNL     1     142.122 125.471 102.854  0.00  0.00    +0.000 HD
BRANCH  33  35
ATOM     35  O   UNL     1     143.684 126.814 103.976  0.00  0.00    +0.000 OA
ATOM     36  C   UNL     1     143.539 125.449 104.275  0.00  0.00    +0.000 C 
ENDBRANCH  33  35
ENDBRANCH  28  29
ENDBRANCH  20  28
ENDBRANCH   3  23
BRANCH   1  37
ATOM     37  C   UNL     1     144.207 122.590  94.671  0.00  0.00    +0.000 C 
ATOM     38  C   UNL     1     143.439 121.427  95.275  0.00  0.00    +0.000 C 
ATOM     39  C   UNL     1     144.824 122.336  93.311  0.00  0.00    +0.000 C 
ENDBRANCH   1  37
TORSDOF 8
ENDMDL
MODEL 6
REMARK VINA RESULT:      -6.0      3.852      5.032
REMARK  Name = 50922675_Encorafenib.pdbqt.pdb
REMARK  8 active torsions:
REMARK  status: ('A' for Active; 'I' for Inactive)
REMARK    1  A    between atoms: N_1  and  C_37
REMARK    2  A    between atoms: C_3  and  C_23
REMARK    3  A    between atoms: C_4  and  C_8
REMARK    4  A    between atoms: C_11  and  N_14
REMARK    5  A    between atoms: N_14  and  S_16
REMARK    6  A    between atoms: N_20  and  C_28
REMARK    7  A    between atoms: C_28  and  C_29
REMARK    8  A    between atoms: C_33  and  O_35
REMARK                            x       y       z     vdW  Elec       q    Type
REMARK                         _______ _______ _______ _____ _____    ______ ____
ROOT
ATOM      1  N   UNL     1     142.054 125.129  97.801  0.00  0.00    +0.000 N 
ATOM      2  N   UNL     1     142.300 125.274  96.451  0.00  0.00    +0.000 NA
ATOM      3  C   UNL     1     143.791 126.559  97.606  0.00  0.00    +0.000 A 
ATOM      4  C   UNL     1     143.350 126.101  96.334  0.00  0.00    +0.000 A 
ATOM      5  C   UNL     1     142.954 125.927  98.495  0.00  0.00    +0.000 A 
ENDROOT
BRANCH   4   8
ATOM      6 CL   UNL     1     143.009 129.171  92.212  0.00  0.00    +0.000 Cl
ATOM      7  F   UNL     1     145.400 124.637  94.982  0.00  0.00    +0.000 F 
ATOM      8  C   UNL     1     143.836 126.441  95.003  0.00  0.00    +0.000 A 
ATOM      9  C   UNL     1     144.828 125.684  94.366  0.00  0.00    +0.000 A 
ATOM     10  C   UNL     1     143.262 127.510  94.314  0.00  0.00    +0.000 A 
ATOM     11  C   UNL     1     145.258 126.004  93.074  0.00  0.00    +0.000 A 
ATOM     12  C   UNL     1     143.687 127.826  93.028  0.00  0.00    +0.000 A 
ATOM     13  C   UNL     1     144.668 127.070  92.398  0.00  0.00    +0.000 A 
BRANCH  11  14
ATOM     14  N   UNL     1     146.202 125.154  92.404  0.00  0.00    +0.000 N 
ATOM     15  H   UNL     1     146.175 124.184  92.734  0.00  0.00    +0.000 HD
BRANCH  14  16
ATOM     16  S   UNL     1     147.806 125.638  92.369  0.00  0.00    +0.000 S 
ATOM     17  O   UNL     1     148.675 124.622  92.899  0.00  0.00    +0.000 OA
ATOM     18  O   UNL     1     148.128 126.547  91.291  0.00  0.00    +0.000 OA
ATOM     19  C   UNL     1     147.972 126.793  93.696  0.00  0.00    +0.000 C 
ENDBRANCH  14  16
ENDBRANCH  11  14
ENDBRANCH   4   8
BRANCH   3  23
ATOM     20  N   UNL     1     146.916 127.854 100.945  0.00  0.00    +0.000 N 
ATOM     21  N   UNL     1     145.366 127.233  99.259  0.00  0.00    +0.000 NA
ATOM     22  N   UNL     1     146.875 129.019  98.936  0.00  0.00    +0.000 NA
ATOM     23  C   UNL     1     144.867 127.441  98.026  0.00  0.00    +0.000 A 
ATOM     24  C   UNL     1     146.361 128.033  99.678  0.00  0.00    +0.000 A 
ATOM     25  C   UNL     1     145.327 128.434  97.191  0.00  0.00    +0.000 A 
ATOM     26  C   UNL     1     146.344 129.193  97.712  0.00  0.00    +0.000 A 
ATOM     27  H   UNL     1     147.467 128.674 101.172  0.00  0.00    +0.000 HD
BRANCH  20  28
ATOM     28  C   UNL     1     146.048 127.291 101.972  0.00  0.00    +0.000 C 
BRANCH  28  29
ATOM     29  C   UNL     1     145.137 126.686 102.875  0.00  0.00    +0.000 C 
ATOM     30  C   UNL     1     143.783 126.308 102.356  0.00  0.00    +0.000 C 
ATOM     31  O   UNL     1     147.554 127.118 104.374  0.00  0.00    +0.000 OA
ATOM     32  N   UNL     1     145.455 126.226 104.108  0.00  0.00    +0.000 N 
ATOM     33  C   UNL     1     146.633 126.418 104.782  0.00  0.00    +0.000 C 
ATOM     34  H   UNL     1     144.743 125.651 104.549  0.00  0.00    +0.000 HD
BRANCH  33  35
ATOM     35  O   UNL     1     146.607 125.725 105.970  0.00  0.00    +0.000 OA
ATOM     36  C   UNL     1     145.406 125.700 106.699  0.00  0.00    +0.000 C 
ENDBRANCH  33  35
ENDBRANCH  28  29
ENDBRANCH  20  28
ENDBRANCH   3  23
BRANCH   1  37
ATOM     37  C   UNL     1     141.066 124.330  98.428  0.00  0.00    +0.000 C 
ATOM     38  C   UNL     1     140.090 123.483  97.630  0.00  0.00    +0.000 C 
ATOM     39  C   UNL     1     140.928 124.252  99.935  0.00  0.00    +0.000 C 
ENDBRANCH   1  37
TORSDOF 8
ENDMDL
MODEL 7
REMARK VINA RESULT:      -6.0      2.356      2.939
REMARK  Name = 50922675_Encorafenib.pdbqt.pdb
REMARK  8 active torsions:
REMARK  status: ('A' for Active; 'I' for Inactive)
REMARK    1  A    between atoms: N_1  and  C_37
REMARK    2  A    between atoms: C_3  and  C_23
REMARK    3  A    between atoms: C_4  and  C_8
REMARK    4  A    between atoms: C_11  and  N_14
REMARK    5  A    between atoms: N_14  and  S_16
REMARK    6  A    between atoms: N_20  and  C_28
REMARK    7  A    between atoms: C_28  and  C_29
REMARK    8  A    between atoms: C_33  and  O_35
REMARK                            x       y       z     vdW  Elec       q    Type
REMARK                         _______ _______ _______ _____ _____    ______ ____
ROOT
ATOM      1  N   UNL     1     144.420 123.997  92.968  0.00  0.00    +0.000 N 
ATOM      2  N   UNL     1     145.064 123.809  94.174  0.00  0.00    +0.000 NA
ATOM      3  C   UNL     1     143.693 125.625  94.353  0.00  0.00    +0.000 A 
ATOM      4  C   UNL     1     144.612 124.759  95.007  0.00  0.00    +0.000 A 
ATOM      5  C   UNL     1     143.603 125.113  93.080  0.00  0.00    +0.000 A 
ENDROOT
BRANCH   4   8
ATOM      6 CL   UNL     1     144.442 122.894  99.805  0.00  0.00    +0.000 Cl
ATOM      7  F   UNL     1     146.619 126.602  95.874  0.00  0.00    +0.000 F 
ATOM      8  C   UNL     1     145.127 124.805  96.370  0.00  0.00    +0.000 A 
ATOM      9  C   UNL     1     146.096 125.738  96.760  0.00  0.00    +0.000 A 
ATOM     10  C   UNL     1     144.604 123.939  97.332  0.00  0.00    +0.000 A 
ATOM     11  C   UNL     1     146.554 125.791  98.080  0.00  0.00    +0.000 A 
ATOM     12  C   UNL     1     145.057 123.995  98.645  0.00  0.00    +0.000 A 
ATOM     13  C   UNL     1     146.015 124.925  99.029  0.00  0.00    +0.000 A 
BRANCH  11  14
ATOM     14  N   UNL     1     147.472 126.822  98.477  0.00  0.00    +0.000 N 
ATOM     15  H   UNL     1     148.174 126.498  99.150  0.00  0.00    +0.000 HD
BRANCH  14  16
ATOM     16  S   UNL     1     146.835 128.261  99.053  0.00  0.00    +0.000 S 
ATOM     17  O   UNL     1     147.789 129.333  98.959  0.00  0.00    +0.000 OA
ATOM     18  O   UNL     1     145.404 128.384  98.888  0.00  0.00    +0.000 OA
ATOM     19  C   UNL     1     146.846 128.102 100.813  0.00  0.00    +0.000 C 
ENDBRANCH  14  16
ENDBRANCH  11  14
ENDBRANCH   4   8
BRANCH   3  23
ATOM     20  N   UNL     1     141.994 128.241  97.939  0.00  0.00    +0.000 N 
ATOM     21  N   UNL     1     142.826 126.955  96.126  0.00  0.00    +0.000 NA
ATOM     22  N   UNL     1     141.526 128.890  95.758  0.00  0.00    +0.000 NA
ATOM     23  C   UNL     1     142.928 126.779  94.796  0.00  0.00    +0.000 A 
ATOM     24  C   UNL     1     142.124 128.013  96.569  0.00  0.00    +0.000 A 
ATOM     25  C   UNL     1     142.344 127.627  93.882  0.00  0.00    +0.000 A 
ATOM     26  C   UNL     1     141.652 128.674  94.436  0.00  0.00    +0.000 A 
ATOM     27  H   UNL     1     141.255 128.920  98.081  0.00  0.00    +0.000 HD
BRANCH  20  28
ATOM     28  C   UNL     1     142.046 127.074  98.811  0.00  0.00    +0.000 C 
BRANCH  28  29
ATOM     29  C   UNL     1     141.971 125.921  99.633  0.00  0.00    +0.000 C 
ATOM     30  C   UNL     1     141.409 124.669  99.031  0.00  0.00    +0.000 C 
ATOM     31  O   UNL     1     143.176 127.963 101.260  0.00  0.00    +0.000 OA
ATOM     32  N   UNL     1     142.556 125.791 100.846  0.00  0.00    +0.000 N 
ATOM     33  C   UNL     1     143.157 126.779 101.582  0.00  0.00    +0.000 C 
ATOM     34  H   UNL     1     142.572 124.845 101.217  0.00  0.00    +0.000 HD
BRANCH  33  35
ATOM     35  O   UNL     1     143.710 126.240 102.720  0.00  0.00    +0.000 OA
ATOM     36  C   UNL     1     144.688 125.242 102.577  0.00  0.00    +0.000 C 
ENDBRANCH  33  35
ENDBRANCH  28  29
ENDBRANCH  20  28
ENDBRANCH   3  23
BRANCH   1  37
ATOM     37  C   UNL     1     144.541 123.226  91.785  0.00  0.00    +0.000 C 
ATOM     38  C   UNL     1     144.151 123.776  90.423  0.00  0.00    +0.000 C 
ATOM     39  C   UNL     1     145.081 121.811  91.794  0.00  0.00    +0.000 C 
ENDBRANCH   1  37
TORSDOF 8
ENDMDL
MODEL 8
REMARK VINA RESULT:      -6.0     36.527     40.495
REMARK  Name = 50922675_Encorafenib.pdbqt.pdb
REMARK  8 active torsions:
REMARK  status: ('A' for Active; 'I' for Inactive)
REMARK    1  A    between atoms: N_1  and  C_37
REMARK    2  A    between atoms: C_3  and  C_23
REMARK    3  A    between atoms: C_4  and  C_8
REMARK    4  A    between atoms: C_11  and  N_14
REMARK    5  A    between atoms: N_14  and  S_16
REMARK    6  A    between atoms: N_20  and  C_28
REMARK    7  A    between atoms: C_28  and  C_29
REMARK    8  A    between atoms: C_33  and  O_35
REMARK                            x       y       z     vdW  Elec       q    Type
REMARK                         _______ _______ _______ _____ _____    ______ ____
ROOT
ATOM      1  N   UNL     1     141.359 139.293 137.584  0.00  0.00    +0.000 N 
ATOM      2  N   UNL     1     141.156 138.220 138.428  0.00  0.00    +0.000 NA
ATOM      3  C   UNL     1     139.435 138.308 136.931  0.00  0.00    +0.000 A 
ATOM      4  C   UNL     1     140.027 137.617 138.024  0.00  0.00    +0.000 A 
ATOM      5  C   UNL     1     140.299 139.350 136.689  0.00  0.00    +0.000 A 
ENDROOT
BRANCH   4   8
ATOM      6 CL   UNL     1     140.434 132.546 138.826  0.00  0.00    +0.000 Cl
ATOM      7  F   UNL     1     137.903 137.675 139.938  0.00  0.00    +0.000 F 
ATOM      8  C   UNL     1     139.561 136.439 138.743  0.00  0.00    +0.000 A 
ATOM      9  C   UNL     1     138.502 136.505 139.658  0.00  0.00    +0.000 A 
ATOM     10  C   UNL     1     140.140 135.197 138.476  0.00  0.00    +0.000 A 
ATOM     11  C   UNL     1     138.045 135.358 140.314  0.00  0.00    +0.000 A 
ATOM     12  C   UNL     1     139.683 134.056 139.126  0.00  0.00    +0.000 A 
ATOM     13  C   UNL     1     138.629 134.126 140.030  0.00  0.00    +0.000 A 
BRANCH  11  14
ATOM     14  N   UNL     1     136.894 135.435 141.170  0.00  0.00    +0.000 N 
ATOM     15  H   UNL     1     136.782 134.611 141.769  0.00  0.00    +0.000 HD
BRANCH  14  16
ATOM     16  S   UNL     1     135.411 135.760 140.462  0.00  0.00    +0.000 S 
ATOM     17  O   UNL     1     134.729 136.832 141.137  0.00  0.00    +0.000 OA
ATOM     18  O   UNL     1     135.356 135.482 139.044  0.00  0.00    +0.000 OA
ATOM     19  C   UNL     1     134.348 134.449 140.990  0.00  0.00    +0.000 C 
ENDBRANCH  14  16
ENDBRANCH  11  14
ENDBRANCH   4   8
BRANCH   3  23
ATOM     20  N   UNL     1     136.796 135.316 134.348  0.00  0.00    +0.000 N 
ATOM     21  N   UNL     1     138.092 136.835 135.631  0.00  0.00    +0.000 NA
ATOM     22  N   UNL     1     136.058 137.500 134.634  0.00  0.00    +0.000 NA
ATOM     23  C   UNL     1     138.240 138.073 136.137  0.00  0.00    +0.000 A 
ATOM     24  C   UNL     1     136.998 136.585 134.890  0.00  0.00    +0.000 A 
ATOM     25  C   UNL     1     137.328 139.082 135.924  0.00  0.00    +0.000 A 
ATOM     26  C   UNL     1     136.249 138.724 135.158  0.00  0.00    +0.000 A 
ATOM     27  H   UNL     1     136.069 135.381 133.644  0.00  0.00    +0.000 HD
BRANCH  20  28
ATOM     28  C   UNL     1     137.986 134.528 134.050  0.00  0.00    +0.000 C 
BRANCH  28  29
ATOM     29  C   UNL     1     139.213 133.870 133.781  0.00  0.00    +0.000 C 
ATOM     30  C   UNL     1     140.386 134.712 133.381  0.00  0.00    +0.000 C 
ATOM     31  O   UNL     1     137.371 131.803 134.559  0.00  0.00    +0.000 OA
ATOM     32  N   UNL     1     139.475 132.571 134.058  0.00  0.00    +0.000 N 
ATOM     33  C   UNL     1     138.579 131.617 134.465  0.00  0.00    +0.000 C 
ATOM     34  H   UNL     1     140.454 132.305 133.985  0.00  0.00    +0.000 HD
BRANCH  33  35
ATOM     35  O   UNL     1     139.241 130.440 134.728  0.00  0.00    +0.000 OA
ATOM     36  C   UNL     1     140.270 130.046 133.857  0.00  0.00    +0.000 C 
ENDBRANCH  33  35
ENDBRANCH  28  29
ENDBRANCH  20  28
ENDBRANCH   3  23
BRANCH   1  37
ATOM     37  C   UNL     1     142.434 140.216 137.588  0.00  0.00    +0.000 C 
ATOM     38  C   UNL     1     142.691 141.148 138.760  0.00  0.00    +0.000 C 
ATOM     39  C   UNL     1     143.410 140.325 136.434  0.00  0.00    +0.000 C 
ENDBRANCH   1  37
TORSDOF 8
ENDMDL
MODEL 9
REMARK VINA RESULT:      -6.0     36.282     40.698
REMARK  Name = 50922675_Encorafenib.pdbqt.pdb
REMARK  8 active torsions:
REMARK  status: ('A' for Active; 'I' for Inactive)
REMARK    1  A    between atoms: N_1  and  C_37
REMARK    2  A    between atoms: C_3  and  C_23
REMARK    3  A    between atoms: C_4  and  C_8
REMARK    4  A    between atoms: C_11  and  N_14
REMARK    5  A    between atoms: N_14  and  S_16
REMARK    6  A    between atoms: N_20  and  C_28
REMARK    7  A    between atoms: C_28  and  C_29
REMARK    8  A    between atoms: C_33  and  O_35
REMARK                            x       y       z     vdW  Elec       q    Type
REMARK                         _______ _______ _______ _____ _____    ______ ____
ROOT
ATOM      1  N   UNL     1     141.271 139.195 137.397  0.00  0.00    +0.000 N 
ATOM      2  N   UNL     1     141.193 137.820 137.497  0.00  0.00    +0.000 NA
ATOM      3  C   UNL     1     139.126 138.634 136.971  0.00  0.00    +0.000 A 
ATOM      4  C   UNL     1     139.925 137.483 137.216  0.00  0.00    +0.000 A 
ATOM      5  C   UNL     1     140.007 139.682 137.095  0.00  0.00    +0.000 A 
ENDROOT
BRANCH   4   8
ATOM      6 CL   UNL     1     139.147 133.232 140.018  0.00  0.00    +0.000 Cl
ATOM      7  F   UNL     1     139.265 135.974 134.879  0.00  0.00    +0.000 F 
ATOM      8  C   UNL     1     139.546 136.076 137.247  0.00  0.00    +0.000 A 
ATOM      9  C   UNL     1     139.250 135.367 136.077  0.00  0.00    +0.000 A 
ATOM     10  C   UNL     1     139.531 135.396 138.466  0.00  0.00    +0.000 A 
ATOM     11  C   UNL     1     138.922 134.008 136.122  0.00  0.00    +0.000 A 
ATOM     12  C   UNL     1     139.209 134.044 138.511  0.00  0.00    +0.000 A 
ATOM     13  C   UNL     1     138.921 133.343 137.346  0.00  0.00    +0.000 A 
BRANCH  11  14
ATOM     14  N   UNL     1     138.722 133.279 134.901  0.00  0.00    +0.000 N 
ATOM     15  H   UNL     1     139.204 133.698 134.099  0.00  0.00    +0.000 HD
BRANCH  14  16
ATOM     16  S   UNL     1     137.148 132.944 134.435  0.00  0.00    +0.000 S 
ATOM     17  O   UNL     1     136.786 131.586 134.743  0.00  0.00    +0.000 OA
ATOM     18  O   UNL     1     136.262 134.086 134.474  0.00  0.00    +0.000 OA
ATOM     19  C   UNL     1     137.212 132.768 132.677  0.00  0.00    +0.000 C 
ENDBRANCH  14  16
ENDBRANCH  11  14
ENDBRANCH   4   8
BRANCH   3  23
ATOM     20  N   UNL     1     134.550 138.157 138.163  0.00  0.00    +0.000 N 
ATOM     21  N   UNL     1     136.825 138.407 137.537  0.00  0.00    +0.000 NA
ATOM     22  N   UNL     1     135.080 139.093 136.104  0.00  0.00    +0.000 NA
ATOM     23  C   UNL     1     137.726 138.816 136.625  0.00  0.00    +0.000 A 
ATOM     24  C   UNL     1     135.522 138.560 137.247  0.00  0.00    +0.000 A 
ATOM     25  C   UNL     1     137.368 139.373 135.418  0.00  0.00    +0.000 A 
ATOM     26  C   UNL     1     136.015 139.485 135.220  0.00  0.00    +0.000 A 
ATOM     27  H   UNL     1     133.655 138.127 137.687  0.00  0.00    +0.000 HD
BRANCH  20  28
ATOM     28  C   UNL     1     134.901 137.061 139.059  0.00  0.00    +0.000 C 
BRANCH  28  29
ATOM     29  C   UNL     1     135.144 135.929 139.877  0.00  0.00    +0.000 C 
ATOM     30  C   UNL     1     136.476 135.830 140.557  0.00  0.00    +0.000 C 
ATOM     31  O   UNL     1     132.454 135.628 138.906  0.00  0.00    +0.000 OA
ATOM     32  N   UNL     1     134.205 135.035 140.266  0.00  0.00    +0.000 N 
ATOM     33  C   UNL     1     132.916 134.941 139.811  0.00  0.00    +0.000 C 
ATOM     34  H   UNL     1     134.498 134.397 141.002  0.00  0.00    +0.000 HD
BRANCH  33  35
ATOM     35  O   UNL     1     132.247 133.962 140.509  0.00  0.00    +0.000 OA
ATOM     36  C   UNL     1     132.960 133.224 141.468  0.00  0.00    +0.000 C 
ENDBRANCH  33  35
ENDBRANCH  28  29
ENDBRANCH  20  28
ENDBRANCH   3  23
BRANCH   1  37
ATOM     37  C   UNL     1     142.410 140.019 137.572  0.00  0.00    +0.000 C 
ATOM     38  C   UNL     1     143.484 140.148 136.506  0.00  0.00    +0.000 C 
ATOM     39  C   UNL     1     142.626 140.842 138.826  0.00  0.00    +0.000 C 
ENDBRANCH   1  37
TORSDOF 8
ENDMDL
