MODEL 1
REMARK VINA RESULT:      -8.0      0.000      0.000
REMARK  Name = 5109870_Ethoxyphenyl.pdbqt.pdb
REMARK  6 active torsions:
REMARK  status: ('A' for Active; 'I' for Inactive)
REMARK    1  A    between atoms: N_2  and  C_22
REMARK    2  A    between atoms: C_3  and  O_11
REMARK    3  A    between atoms: C_3  and  C_13
REMARK    4  A    between atoms: C_16  and  N_19
REMARK    5  A    between atoms: C_25  and  O_28
REMARK    6  A    between atoms: O_28  and  C_29
REMARK                            x       y       z     vdW  Elec       q    Type
REMARK                         _______ _______ _______ _____ _____    ______ ____
ROOT
ATOM      1  N   UNL     1     135.564 122.165 135.232  0.00  0.00    +0.000 N 
ATOM      2  N   UNL     1     137.442 123.402 134.393  0.00  0.00    +0.000 N 
ATOM      3  C   UNL     1     136.641 121.924 136.222  0.00  0.00    +0.000 C 
ATOM      4  C   UNL     1     136.186 122.911 134.092  0.00  0.00    +0.000 C 
ATOM      5  C   UNL     1     137.675 122.812 135.685  0.00  0.00    +0.000 C 
ATOM      6  C   UNL     1     134.767 121.025 134.783  0.00  0.00    +0.000 C 
ATOM      7  C   UNL     1     135.739 122.700 132.755  0.00  0.00    +0.000 C 
ATOM      8  C   UNL     1     134.072 120.237 133.660  0.00  0.00    +0.000 C 
ATOM      9  C   UNL     1     134.929 121.829 131.781  0.00  0.00    +0.000 C 
ATOM     10  C   UNL     1     134.112 120.604 132.180  0.00  0.00    +0.000 C 
ENDROOT
BRANCH   3  11
ATOM     11  C   UNL     1     136.190 122.253 137.626  0.00  0.00    +0.000 A 
ATOM     12  C   UNL     1     134.836 122.212 137.988  0.00  0.00    +0.000 A 
ATOM     13  C   UNL     1     134.433 122.473 139.295  0.00  0.00    +0.000 A 
ATOM     14  C   UNL     1     135.399 122.767 140.252  0.00  0.00    +0.000 A 
ATOM     15  C   UNL     1     136.753 122.801 139.931  0.00  0.00    +0.000 A 
ATOM     16  C   UNL     1     137.139 122.536 138.620  0.00  0.00    +0.000 A 
BRANCH  14  17
ATOM     17  N   UNL     1     134.987 123.042 141.615  0.00  0.00    +0.000 N 
ATOM     18  O   UNL     1     135.793 122.789 142.521  0.00  0.00    +0.000 OA
ATOM     19  O   UNL     1     133.855 123.514 141.789  0.00  0.00    +0.000 OA
ENDBRANCH  14  17
ENDBRANCH   3  11
BRANCH   2  20
ATOM     20  C   UNL     1     138.458 123.944 133.590  0.00  0.00    +0.000 A 
ATOM     21  C   UNL     1     138.250 125.077 132.796  0.00  0.00    +0.000 A 
ATOM     22  C   UNL     1     139.272 125.622 132.019  0.00  0.00    +0.000 A 
ATOM     23  C   UNL     1     140.540 125.044 132.026  0.00  0.00    +0.000 A 
ATOM     24  C   UNL     1     140.773 123.923 132.817  0.00  0.00    +0.000 A 
ATOM     25  C   UNL     1     139.744 123.386 133.590  0.00  0.00    +0.000 A 
BRANCH  23  26
ATOM     26  O   UNL     1     141.611 125.501 131.302  0.00  0.00    +0.000 OA
BRANCH  26  27
ATOM     27  C   UNL     1     141.339 125.813 130.037  0.00  0.00    +0.000 C 
ATOM     28  C   UNL     1     141.030 126.189 128.583  0.00  0.00    +0.000 C 
ENDBRANCH  26  27
ENDBRANCH  23  26
ENDBRANCH   2  20
BRANCH   3  29
ATOM     29  O   UNL     1     137.147 120.596 136.185  0.00  0.00    +0.000 OA
ATOM     30  H   UNL     1     136.818 120.223 135.351  0.00  0.00    +0.000 HD
ENDBRANCH   3  29
TORSDOF 6
ENDMDL
MODEL 2
REMARK VINA RESULT:      -7.7     32.979     37.414
REMARK  Name = 5109870_Ethoxyphenyl.pdbqt.pdb
REMARK  6 active torsions:
REMARK  status: ('A' for Active; 'I' for Inactive)
REMARK    1  A    between atoms: N_2  and  C_22
REMARK    2  A    between atoms: C_3  and  O_11
REMARK    3  A    between atoms: C_3  and  C_13
REMARK    4  A    between atoms: C_16  and  N_19
REMARK    5  A    between atoms: C_25  and  O_28
REMARK    6  A    between atoms: O_28  and  C_29
REMARK                            x       y       z     vdW  Elec       q    Type
REMARK                         _______ _______ _______ _____ _____    ______ ____
ROOT
ATOM      1  N   UNL     1     145.754 126.740 100.675  0.00  0.00    +0.000 N 
ATOM      2  N   UNL     1     143.476 126.077 100.312  0.00  0.00    +0.000 N 
ATOM      3  C   UNL     1     145.811 125.842  99.497  0.00  0.00    +0.000 C 
ATOM      4  C   UNL     1     144.351 126.680 101.195  0.00  0.00    +0.000 C 
ATOM      5  C   UNL     1     144.379 125.608  99.295  0.00  0.00    +0.000 C 
ATOM      6  C   UNL     1     146.748 126.561 101.732  0.00  0.00    +0.000 C 
ATOM      7  C   UNL     1     144.089 126.783 102.593  0.00  0.00    +0.000 C 
ATOM      8  C   UNL     1     147.119 126.488 103.223  0.00  0.00    +0.000 C 
ATOM      9  C   UNL     1     144.651 126.753 104.023  0.00  0.00    +0.000 C 
ATOM     10  C   UNL     1     146.127 126.593 104.377  0.00  0.00    +0.000 C 
ENDROOT
BRANCH   3  11
ATOM     11  C   UNL     1     146.517 126.496  98.332  0.00  0.00    +0.000 A 
ATOM     12  C   UNL     1     147.194 125.738  97.367  0.00  0.00    +0.000 A 
ATOM     13  C   UNL     1     147.805 126.346  96.273  0.00  0.00    +0.000 A 
ATOM     14  C   UNL     1     147.726 127.729  96.140  0.00  0.00    +0.000 A 
ATOM     15  C   UNL     1     147.050 128.511  97.071  0.00  0.00    +0.000 A 
ATOM     16  C   UNL     1     146.444 127.887  98.158  0.00  0.00    +0.000 A 
BRANCH  14  17
ATOM     17  N   UNL     1     148.362 128.369  95.005  0.00  0.00    +0.000 N 
ATOM     18  O   UNL     1     148.699 129.554  95.129  0.00  0.00    +0.000 OA
ATOM     19  O   UNL     1     148.530 127.691  93.981  0.00  0.00    +0.000 OA
ENDBRANCH  14  17
ENDBRANCH   3  11
BRANCH   2  20
ATOM     20  C   UNL     1     142.161 125.612 100.461  0.00  0.00    +0.000 A 
ATOM     21  C   UNL     1     141.209 126.307 101.214  0.00  0.00    +0.000 A 
ATOM     22  C   UNL     1     139.897 125.847 101.337  0.00  0.00    +0.000 A 
ATOM     23  C   UNL     1     139.504 124.676 100.696  0.00  0.00    +0.000 A 
ATOM     24  C   UNL     1     140.430 123.973  99.932  0.00  0.00    +0.000 A 
ATOM     25  C   UNL     1     141.739 124.441  99.815  0.00  0.00    +0.000 A 
BRANCH  23  26
ATOM     26  O   UNL     1     138.242 124.140 100.752  0.00  0.00    +0.000 OA
BRANCH  26  27
ATOM     27  C   UNL     1     137.803 123.870 101.979  0.00  0.00    +0.000 C 
ATOM     28  C   UNL     1     137.308 123.567 103.398  0.00  0.00    +0.000 C 
ENDBRANCH  26  27
ENDBRANCH  23  26
ENDBRANCH   2  20
BRANCH   3  29
ATOM     29  O   UNL     1     146.420 124.589  99.778  0.00  0.00    +0.000 OA
ATOM     30  H   UNL     1     147.352 124.795  99.961  0.00  0.00    +0.000 HD
ENDBRANCH   3  29
TORSDOF 6
ENDMDL
MODEL 3
REMARK VINA RESULT:      -7.4      2.874      8.023
REMARK  Name = 5109870_Ethoxyphenyl.pdbqt.pdb
REMARK  6 active torsions:
REMARK  status: ('A' for Active; 'I' for Inactive)
REMARK    1  A    between atoms: N_2  and  C_22
REMARK    2  A    between atoms: C_3  and  O_11
REMARK    3  A    between atoms: C_3  and  C_13
REMARK    4  A    between atoms: C_16  and  N_19
REMARK    5  A    between atoms: C_25  and  O_28
REMARK    6  A    between atoms: O_28  and  C_29
REMARK                            x       y       z     vdW  Elec       q    Type
REMARK                         _______ _______ _______ _____ _____    ______ ____
ROOT
ATOM      1  N   UNL     1     136.722 122.582 136.675  0.00  0.00    +0.000 N 
ATOM      2  N   UNL     1     135.786 120.743 135.450  0.00  0.00    +0.000 N 
ATOM      3  C   UNL     1     137.803 122.161 135.751  0.00  0.00    +0.000 C 
ATOM      4  C   UNL     1     135.626 121.570 136.545  0.00  0.00    +0.000 C 
ATOM      5  C   UNL     1     137.088 121.139 134.983  0.00  0.00    +0.000 C 
ATOM      6  C   UNL     1     137.068 122.852 138.069  0.00  0.00    +0.000 C 
ATOM      7  C   UNL     1     134.827 121.215 137.671  0.00  0.00    +0.000 C 
ATOM      8  C   UNL     1     136.761 122.734 139.572  0.00  0.00    +0.000 C 
ATOM      9  C   UNL     1     134.643 121.260 139.196  0.00  0.00    +0.000 C 
ATOM     10  C   UNL     1     135.577 121.979 140.166  0.00  0.00    +0.000 C 
ENDROOT
BRANCH   3  11
ATOM     11  C   UNL     1     138.320 123.321 134.935  0.00  0.00    +0.000 A 
ATOM     12  C   UNL     1     139.613 123.830 135.123  0.00  0.00    +0.000 A 
ATOM     13  C   UNL     1     140.098 124.872 134.337  0.00  0.00    +0.000 A 
ATOM     14  C   UNL     1     139.282 125.401 133.342  0.00  0.00    +0.000 A 
ATOM     15  C   UNL     1     137.999 124.910 133.117  0.00  0.00    +0.000 A 
ATOM     16  C   UNL     1     137.530 123.868 133.912  0.00  0.00    +0.000 A 
BRANCH  14  17
ATOM     17  N   UNL     1     139.779 126.487 132.520  0.00  0.00    +0.000 N 
ATOM     18  O   UNL     1     140.920 126.376 132.050  0.00  0.00    +0.000 OA
ATOM     19  O   UNL     1     139.033 127.460 132.337  0.00  0.00    +0.000 OA
ENDBRANCH  14  17
ENDBRANCH   3  11
BRANCH   2  20
ATOM     20  C   UNL     1     135.153 119.548 135.073  0.00  0.00    +0.000 A 
ATOM     21  C   UNL     1     134.000 119.536 134.282  0.00  0.00    +0.000 A 
ATOM     22  C   UNL     1     133.392 118.342 133.894  0.00  0.00    +0.000 A 
ATOM     23  C   UNL     1     133.935 117.121 134.286  0.00  0.00    +0.000 A 
ATOM     24  C   UNL     1     135.089 117.107 135.064  0.00  0.00    +0.000 A 
ATOM     25  C   UNL     1     135.688 118.307 135.447  0.00  0.00    +0.000 A 
BRANCH  23  26
ATOM     26  O   UNL     1     133.417 115.894 133.959  0.00  0.00    +0.000 OA
BRANCH  26  27
ATOM     27  C   UNL     1     134.314 114.996 133.558  0.00  0.00    +0.000 C 
ATOM     28  C   UNL     1     135.335 113.950 133.095  0.00  0.00    +0.000 C 
ENDBRANCH  26  27
ENDBRANCH  23  26
ENDBRANCH   2  20
BRANCH   3  29
ATOM     29  O   UNL     1     138.888 121.525 136.414  0.00  0.00    +0.000 OA
ATOM     30  H   UNL     1     139.197 120.842 135.796  0.00  0.00    +0.000 HD
ENDBRANCH   3  29
TORSDOF 6
ENDMDL
MODEL 4
REMARK VINA RESULT:      -7.4      2.856      5.678
REMARK  Name = 5109870_Ethoxyphenyl.pdbqt.pdb
REMARK  6 active torsions:
REMARK  status: ('A' for Active; 'I' for Inactive)
REMARK    1  A    between atoms: N_2  and  C_22
REMARK    2  A    between atoms: C_3  and  O_11
REMARK    3  A    between atoms: C_3  and  C_13
REMARK    4  A    between atoms: C_16  and  N_19
REMARK    5  A    between atoms: C_25  and  O_28
REMARK    6  A    between atoms: O_28  and  C_29
REMARK                            x       y       z     vdW  Elec       q    Type
REMARK                         _______ _______ _______ _____ _____    ______ ____
ROOT
ATOM      1  N   UNL     1     135.079 121.627 136.393  0.00  0.00    +0.000 N 
ATOM      2  N   UNL     1     136.675 122.710 134.966  0.00  0.00    +0.000 N 
ATOM      3  C   UNL     1     134.272 122.163 135.271  0.00  0.00    +0.000 C 
ATOM      4  C   UNL     1     136.469 122.153 136.213  0.00  0.00    +0.000 C 
ATOM      5  C   UNL     1     135.345 122.679 134.418  0.00  0.00    +0.000 C 
ATOM      6  C   UNL     1     134.584 121.816 137.756  0.00  0.00    +0.000 C 
ATOM      7  C   UNL     1     137.280 122.466 137.343  0.00  0.00    +0.000 C 
ATOM      8  C   UNL     1     134.831 122.165 139.234  0.00  0.00    +0.000 C 
ATOM      9  C   UNL     1     137.352 122.713 138.858  0.00  0.00    +0.000 C 
ATOM     10  C   UNL     1     136.172 122.593 139.819  0.00  0.00    +0.000 C 
ENDROOT
BRANCH   3  11
ATOM     11  C   UNL     1     133.419 121.089 134.637  0.00  0.00    +0.000 A 
ATOM     12  C   UNL     1     133.709 120.581 133.363  0.00  0.00    +0.000 A 
ATOM     13  C   UNL     1     132.944 119.561 132.803  0.00  0.00    +0.000 A 
ATOM     14  C   UNL     1     131.883 119.036 133.536  0.00  0.00    +0.000 A 
ATOM     15  C   UNL     1     131.577 119.506 134.809  0.00  0.00    +0.000 A 
ATOM     16  C   UNL     1     132.352 120.525 135.353  0.00  0.00    +0.000 A 
BRANCH  14  17
ATOM     17  N   UNL     1     131.081 117.975 132.959  0.00  0.00    +0.000 N 
ATOM     18  O   UNL     1     131.645 116.901 132.707  0.00  0.00    +0.000 OA
ATOM     19  O   UNL     1     129.881 118.206 132.755  0.00  0.00    +0.000 OA
ENDBRANCH  14  17
ENDBRANCH   3  11
BRANCH   2  20
ATOM     20  C   UNL     1     137.712 123.503 134.449  0.00  0.00    +0.000 A 
ATOM     21  C   UNL     1     139.058 123.223 134.706  0.00  0.00    +0.000 A 
ATOM     22  C   UNL     1     140.082 124.004 134.168  0.00  0.00    +0.000 A 
ATOM     23  C   UNL     1     139.778 125.087 133.348  0.00  0.00    +0.000 A 
ATOM     24  C   UNL     1     138.446 125.378 133.069  0.00  0.00    +0.000 A 
ATOM     25  C   UNL     1     137.430 124.592 133.612  0.00  0.00    +0.000 A 
BRANCH  23  26
ATOM     26  O   UNL     1     140.707 125.914 132.771  0.00  0.00    +0.000 OA
BRANCH  26  27
ATOM     27  C   UNL     1     140.651 125.979 131.442  0.00  0.00    +0.000 C 
ATOM     28  C   UNL     1     140.583 126.069 129.913  0.00  0.00    +0.000 C 
ENDBRANCH  26  27
ENDBRANCH  23  26
ENDBRANCH   2  20
BRANCH   3  29
ATOM     29  O   UNL     1     133.450 123.260 135.648  0.00  0.00    +0.000 OA
ATOM     30  H   UNL     1     132.778 123.325 134.950  0.00  0.00    +0.000 HD
ENDBRANCH   3  29
TORSDOF 6
ENDMDL
MODEL 5
REMARK VINA RESULT:      -7.3     32.653     37.465
REMARK  Name = 5109870_Ethoxyphenyl.pdbqt.pdb
REMARK  6 active torsions:
REMARK  status: ('A' for Active; 'I' for Inactive)
REMARK    1  A    between atoms: N_2  and  C_22
REMARK    2  A    between atoms: C_3  and  O_11
REMARK    3  A    between atoms: C_3  and  C_13
REMARK    4  A    between atoms: C_16  and  N_19
REMARK    5  A    between atoms: C_25  and  O_28
REMARK    6  A    between atoms: O_28  and  C_29
REMARK                            x       y       z     vdW  Elec       q    Type
REMARK                         _______ _______ _______ _____ _____    ______ ____
ROOT
ATOM      1  N   UNL     1     143.006 126.683  98.790  0.00  0.00    +0.000 N 
ATOM      2  N   UNL     1     143.263 124.534  97.753  0.00  0.00    +0.000 N 
ATOM      3  C   UNL     1     142.654 125.711  99.853  0.00  0.00    +0.000 C 
ATOM      4  C   UNL     1     143.185 125.895  97.529  0.00  0.00    +0.000 C 
ATOM      5  C   UNL     1     142.965 124.460  99.159  0.00  0.00    +0.000 C 
ATOM      6  C   UNL     1     142.143 127.848  98.602  0.00  0.00    +0.000 C 
ATOM      7  C   UNL     1     142.823 126.451  96.267  0.00  0.00    +0.000 C 
ATOM      8  C   UNL     1     141.398 128.827  97.679  0.00  0.00    +0.000 C 
ATOM      9  C   UNL     1     142.080 127.559  95.504  0.00  0.00    +0.000 C 
ATOM     10  C   UNL     1     141.354 128.732  96.157  0.00  0.00    +0.000 C 
ENDROOT
BRANCH   3  11
ATOM     11  C   UNL     1     143.452 125.952 101.113  0.00  0.00    +0.000 A 
ATOM     12  C   UNL     1     142.840 126.396 102.294  0.00  0.00    +0.000 A 
ATOM     13  C   UNL     1     143.575 126.574 103.463  0.00  0.00    +0.000 A 
ATOM     14  C   UNL     1     144.938 126.291 103.451  0.00  0.00    +0.000 A 
ATOM     15  C   UNL     1     145.575 125.834 102.301  0.00  0.00    +0.000 A 
ATOM     16  C   UNL     1     144.825 125.661 101.142  0.00  0.00    +0.000 A 
BRANCH  14  17
ATOM     17  N   UNL     1     145.711 126.476 104.664  0.00  0.00    +0.000 N 
ATOM     18  O   UNL     1     145.113 126.380 105.745  0.00  0.00    +0.000 OA
ATOM     19  O   UNL     1     146.920 126.716 104.545  0.00  0.00    +0.000 OA
ENDBRANCH  14  17
ENDBRANCH   3  11
BRANCH   2  20
ATOM     20  C   UNL     1     143.203 123.433  96.884  0.00  0.00    +0.000 A 
ATOM     21  C   UNL     1     142.043 122.665  96.740  0.00  0.00    +0.000 A 
ATOM     22  C   UNL     1     141.986 121.586  95.857  0.00  0.00    +0.000 A 
ATOM     23  C   UNL     1     143.097 121.255  95.085  0.00  0.00    +0.000 A 
ATOM     24  C   UNL     1     144.259 122.012  95.203  0.00  0.00    +0.000 A 
ATOM     25  C   UNL     1     144.305 123.088  96.089  0.00  0.00    +0.000 A 
BRANCH  23  26
ATOM     26  O   UNL     1     143.145 120.218  94.190  0.00  0.00    +0.000 OA
BRANCH  26  27
ATOM     27  C   UNL     1     144.369 119.781  93.903  0.00  0.00    +0.000 C 
ATOM     28  C   UNL     1     145.773 119.266  93.562  0.00  0.00    +0.000 C 
ENDBRANCH  26  27
ENDBRANCH  23  26
ENDBRANCH   2  20
BRANCH   3  29
ATOM     29  O   UNL     1     141.267 125.702 100.165  0.00  0.00    +0.000 OA
ATOM     30  H   UNL     1     141.207 125.290 101.042  0.00  0.00    +0.000 HD
ENDBRANCH   3  29
TORSDOF 6
ENDMDL
MODEL 6
REMARK VINA RESULT:      -7.3     30.839     36.229
REMARK  Name = 5109870_Ethoxyphenyl.pdbqt.pdb
REMARK  6 active torsions:
REMARK  status: ('A' for Active; 'I' for Inactive)
REMARK    1  A    between atoms: N_2  and  C_22
REMARK    2  A    between atoms: C_3  and  O_11
REMARK    3  A    between atoms: C_3  and  C_13
REMARK    4  A    between atoms: C_16  and  N_19
REMARK    5  A    between atoms: C_25  and  O_28
REMARK    6  A    between atoms: O_28  and  C_29
REMARK                            x       y       z     vdW  Elec       q    Type
REMARK                         _______ _______ _______ _____ _____    ______ ____
ROOT
ATOM      1  N   UNL     1     143.969 127.735 100.844  0.00  0.00    +0.000 N 
ATOM      2  N   UNL     1     145.561 126.778  99.324  0.00  0.00    +0.000 N 
ATOM      3  C   UNL     1     144.073 126.315 101.259  0.00  0.00    +0.000 C 
ATOM      4  C   UNL     1     144.757 127.872  99.578  0.00  0.00    +0.000 C 
ATOM      5  C   UNL     1     145.144 125.873 100.363  0.00  0.00    +0.000 C 
ATOM      6  C   UNL     1     142.638 128.330 100.739  0.00  0.00    +0.000 C 
ATOM      7  C   UNL     1     144.344 128.780  98.559  0.00  0.00    +0.000 C 
ATOM      8  C   UNL     1     141.622 129.216  99.997  0.00  0.00    +0.000 C 
ATOM      9  C   UNL     1     143.231 129.680  97.998  0.00  0.00    +0.000 C 
ATOM     10  C   UNL     1     141.876 129.908  98.662  0.00  0.00    +0.000 C 
ENDROOT
BRANCH   3  11
ATOM     11  C   UNL     1     144.385 126.188 102.732  0.00  0.00    +0.000 A 
ATOM     12  C   UNL     1     145.486 126.838 103.306  0.00  0.00    +0.000 A 
ATOM     13  C   UNL     1     145.742 126.751 104.672  0.00  0.00    +0.000 A 
ATOM     14  C   UNL     1     144.875 126.013 105.473  0.00  0.00    +0.000 A 
ATOM     15  C   UNL     1     143.764 125.368 104.939  0.00  0.00    +0.000 A 
ATOM     16  C   UNL     1     143.523 125.466 103.572  0.00  0.00    +0.000 A 
BRANCH  14  17
ATOM     17  N   UNL     1     145.135 125.916 106.896  0.00  0.00    +0.000 N 
ATOM     18  O   UNL     1     144.219 126.228 107.670  0.00  0.00    +0.000 OA
ATOM     19  O   UNL     1     146.257 125.526 107.251  0.00  0.00    +0.000 OA
ENDBRANCH  14  17
ENDBRANCH   3  11
BRANCH   2  20
ATOM     20  C   UNL     1     146.274 126.378  98.183  0.00  0.00    +0.000 A 
ATOM     21  C   UNL     1     145.753 125.459  97.267  0.00  0.00    +0.000 A 
ATOM     22  C   UNL     1     146.460 125.086  96.124  0.00  0.00    +0.000 A 
ATOM     23  C   UNL     1     147.713 125.637  95.866  0.00  0.00    +0.000 A 
ATOM     24  C   UNL     1     148.247 126.562  96.757  0.00  0.00    +0.000 A 
ATOM     25  C   UNL     1     147.532 126.928  97.897  0.00  0.00    +0.000 A 
BRANCH  23  26
ATOM     26  O   UNL     1     148.487 125.339  94.774  0.00  0.00    +0.000 OA
BRANCH  26  27
ATOM     27  C   UNL     1     148.990 126.395  94.138  0.00  0.00    +0.000 C 
ATOM     28  C   UNL     1     149.568 127.603  93.392  0.00  0.00    +0.000 C 
ENDBRANCH  26  27
ENDBRANCH  23  26
ENDBRANCH   2  20
BRANCH   3  29
ATOM     29  O   UNL     1     142.910 125.557 100.953  0.00  0.00    +0.000 OA
ATOM     30  H   UNL     1     142.261 126.205 100.635  0.00  0.00    +0.000 HD
ENDBRANCH   3  29
TORSDOF 6
ENDMDL
MODEL 7
REMARK VINA RESULT:      -7.2     31.637     38.225
REMARK  Name = 5109870_Ethoxyphenyl.pdbqt.pdb
REMARK  6 active torsions:
REMARK  status: ('A' for Active; 'I' for Inactive)
REMARK    1  A    between atoms: N_2  and  C_22
REMARK    2  A    between atoms: C_3  and  O_11
REMARK    3  A    between atoms: C_3  and  C_13
REMARK    4  A    between atoms: C_16  and  N_19
REMARK    5  A    between atoms: C_25  and  O_28
REMARK    6  A    between atoms: O_28  and  C_29
REMARK                            x       y       z     vdW  Elec       q    Type
REMARK                         _______ _______ _______ _____ _____    ______ ____
ROOT
ATOM      1  N   UNL     1     142.984 125.682  97.161  0.00  0.00    +0.000 N 
ATOM      2  N   UNL     1     143.838 125.601  99.402  0.00  0.00    +0.000 N 
ATOM      3  C   UNL     1     144.290 124.993  97.037  0.00  0.00    +0.000 C 
ATOM      4  C   UNL     1     142.882 126.160  98.576  0.00  0.00    +0.000 C 
ATOM      5  C   UNL     1     144.652 124.889  98.452  0.00  0.00    +0.000 C 
ATOM      6  C   UNL     1     142.658 126.729  96.194  0.00  0.00    +0.000 C 
ATOM      7  C   UNL     1     142.212 127.380  98.885  0.00  0.00    +0.000 C 
ATOM      8  C   UNL     1     142.080 128.117  95.868  0.00  0.00    +0.000 C 
ATOM      9  C   UNL     1     141.613 128.698  98.367  0.00  0.00    +0.000 C 
ATOM     10  C   UNL     1     141.544 129.106  96.898  0.00  0.00    +0.000 C 
ENDROOT
BRANCH   3  11
ATOM     11  C   UNL     1     144.156 123.671  96.318  0.00  0.00    +0.000 A 
ATOM     12  C   UNL     1     143.086 122.802  96.577  0.00  0.00    +0.000 A 
ATOM     13  C   UNL     1     142.946 121.606  95.878  0.00  0.00    +0.000 A 
ATOM     14  C   UNL     1     143.882 121.283  94.900  0.00  0.00    +0.000 A 
ATOM     15  C   UNL     1     144.947 122.129  94.607  0.00  0.00    +0.000 A 
ATOM     16  C   UNL     1     145.072 123.321  95.314  0.00  0.00    +0.000 A 
BRANCH  14  17
ATOM     17  N   UNL     1     143.743 120.038  94.170  0.00  0.00    +0.000 N 
ATOM     18  O   UNL     1     144.781 119.475  93.794  0.00  0.00    +0.000 OA
ATOM     19  O   UNL     1     142.597 119.613  93.969  0.00  0.00    +0.000 OA
ENDBRANCH  14  17
ENDBRANCH   3  11
BRANCH   2  20
ATOM     20  C   UNL     1     144.256 125.915 100.705  0.00  0.00    +0.000 A 
ATOM     21  C   UNL     1     143.714 125.285 101.830  0.00  0.00    +0.000 A 
ATOM     22  C   UNL     1     144.152 125.587 103.119  0.00  0.00    +0.000 A 
ATOM     23  C   UNL     1     145.159 126.530 103.312  0.00  0.00    +0.000 A 
ATOM     24  C   UNL     1     145.722 127.162 102.207  0.00  0.00    +0.000 A 
ATOM     25  C   UNL     1     145.276 126.852 100.922  0.00  0.00    +0.000 A 
BRANCH  23  26
ATOM     26  O   UNL     1     145.661 126.898 104.534  0.00  0.00    +0.000 OA
BRANCH  26  27
ATOM     27  C   UNL     1     145.139 126.249 105.572  0.00  0.00    +0.000 C 
ATOM     28  C   UNL     1     144.539 125.515 106.777  0.00  0.00    +0.000 C 
ENDBRANCH  26  27
ENDBRANCH  23  26
ENDBRANCH   2  20
BRANCH   3  29
ATOM     29  O   UNL     1     145.281 125.784  96.393  0.00  0.00    +0.000 OA
ATOM     30  H   UNL     1     145.853 126.106  97.109  0.00  0.00    +0.000 HD
ENDBRANCH   3  29
TORSDOF 6
ENDMDL
MODEL 8
REMARK VINA RESULT:      -7.1     33.087     38.244
REMARK  Name = 5109870_Ethoxyphenyl.pdbqt.pdb
REMARK  6 active torsions:
REMARK  status: ('A' for Active; 'I' for Inactive)
REMARK    1  A    between atoms: N_2  and  C_22
REMARK    2  A    between atoms: C_3  and  O_11
REMARK    3  A    between atoms: C_3  and  C_13
REMARK    4  A    between atoms: C_16  and  N_19
REMARK    5  A    between atoms: C_25  and  O_28
REMARK    6  A    between atoms: O_28  and  C_29
REMARK                            x       y       z     vdW  Elec       q    Type
REMARK                         _______ _______ _______ _____ _____    ______ ____
ROOT
ATOM      1  N   UNL     1     144.392 124.315  98.452  0.00  0.00    +0.000 N 
ATOM      2  N   UNL     1     146.077 125.312  97.065  0.00  0.00    +0.000 N 
ATOM      3  C   UNL     1     145.624 124.278  99.277  0.00  0.00    +0.000 C 
ATOM      4  C   UNL     1     144.800 124.787  97.091  0.00  0.00    +0.000 C 
ATOM      5  C   UNL     1     146.534 125.013  98.396  0.00  0.00    +0.000 C 
ATOM      6  C   UNL     1     143.557 123.116  98.399  0.00  0.00    +0.000 C 
ATOM      7  C   UNL     1     144.142 124.298  95.925  0.00  0.00    +0.000 C 
ATOM      8  C   UNL     1     142.702 122.114  97.605  0.00  0.00    +0.000 C 
ATOM      9  C   UNL     1     143.201 123.249  95.311  0.00  0.00    +0.000 C 
ATOM     10  C   UNL     1     142.488 122.151  96.095  0.00  0.00    +0.000 C 
ENDROOT
BRANCH   3  11
ATOM     11  C   UNL     1     145.405 124.910 100.632  0.00  0.00    +0.000 A 
ATOM     12  C   UNL     1     144.223 124.698 101.356  0.00  0.00    +0.000 A 
ATOM     13  C   UNL     1     144.047 125.248 102.623  0.00  0.00    +0.000 A 
ATOM     14  C   UNL     1     145.073 126.009 103.175  0.00  0.00    +0.000 A 
ATOM     15  C   UNL     1     146.265 126.226 102.491  0.00  0.00    +0.000 A 
ATOM     16  C   UNL     1     146.425 125.669 101.226  0.00  0.00    +0.000 A 
BRANCH  14  17
ATOM     17  N   UNL     1     144.896 126.586 104.493  0.00  0.00    +0.000 N 
ATOM     18  O   UNL     1     145.506 127.635 104.747  0.00  0.00    +0.000 OA
ATOM     19  O   UNL     1     144.147 125.997 105.285  0.00  0.00    +0.000 OA
ENDBRANCH  14  17
ENDBRANCH   3  11
BRANCH   2  20
ATOM     20  C   UNL     1     146.933 125.652  96.005  0.00  0.00    +0.000 A 
ATOM     21  C   UNL     1     147.832 124.734  95.453  0.00  0.00    +0.000 A 
ATOM     22  C   UNL     1     148.662 125.075  94.385  0.00  0.00    +0.000 A 
ATOM     23  C   UNL     1     148.604 126.354  93.836  0.00  0.00    +0.000 A 
ATOM     24  C   UNL     1     147.710 127.282  94.361  0.00  0.00    +0.000 A 
ATOM     25  C   UNL     1     146.885 126.930  95.429  0.00  0.00    +0.000 A 
BRANCH  23  26
ATOM     26  O   UNL     1     149.374 126.789  92.788  0.00  0.00    +0.000 OA
BRANCH  26  27
ATOM     27  C   UNL     1     149.940 127.980  92.965  0.00  0.00    +0.000 C 
ATOM     28  C   UNL     1     150.578 129.360  93.170  0.00  0.00    +0.000 C 
ENDBRANCH  26  27
ENDBRANCH  23  26
ENDBRANCH   2  20
BRANCH   3  29
ATOM     29  O   UNL     1     146.146 122.966  99.444  0.00  0.00    +0.000 OA
ATOM     30  H   UNL     1     146.278 122.866 100.401  0.00  0.00    +0.000 HD
ENDBRANCH   3  29
TORSDOF 6
ENDMDL
MODEL 9
REMARK VINA RESULT:      -7.0     32.227     39.164
REMARK  Name = 5109870_Ethoxyphenyl.pdbqt.pdb
REMARK  6 active torsions:
REMARK  status: ('A' for Active; 'I' for Inactive)
REMARK    1  A    between atoms: N_2  and  C_22
REMARK    2  A    between atoms: C_3  and  O_11
REMARK    3  A    between atoms: C_3  and  C_13
REMARK    4  A    between atoms: C_16  and  N_19
REMARK    5  A    between atoms: C_25  and  O_28
REMARK    6  A    between atoms: O_28  and  C_29
REMARK                            x       y       z     vdW  Elec       q    Type
REMARK                         _______ _______ _______ _____ _____    ______ ____
ROOT
ATOM      1  N   UNL     1     146.128 125.367  97.074  0.00  0.00    +0.000 N 
ATOM      2  N   UNL     1     146.343 126.153  99.331  0.00  0.00    +0.000 N 
ATOM      3  C   UNL     1     146.154 126.844  96.953  0.00  0.00    +0.000 C 
ATOM      4  C   UNL     1     146.069 125.056  98.538  0.00  0.00    +0.000 C 
ATOM      5  C   UNL     1     146.412 127.203  98.349  0.00  0.00    +0.000 C 
ATOM      6  C   UNL     1     145.128 124.626  96.307  0.00  0.00    +0.000 C 
ATOM      7  C   UNL     1     145.349 123.920  99.011  0.00  0.00    +0.000 C 
ATOM      8  C   UNL     1     144.079 123.506  96.204  0.00  0.00    +0.000 C 
ATOM      9  C   UNL     1     144.328 122.813  98.706  0.00  0.00    +0.000 C 
ATOM     10  C   UNL     1     143.668 122.585  97.349  0.00  0.00    +0.000 C 
ENDROOT
BRANCH   3  11
ATOM     11  C   UNL     1     147.210 127.303  95.975  0.00  0.00    +0.000 A 
ATOM     12  C   UNL     1     147.720 126.444  94.991  0.00  0.00    +0.000 A 
ATOM     13  C   UNL     1     148.662 126.887  94.066  0.00  0.00    +0.000 A 
ATOM     14  C   UNL     1     149.087 128.212  94.120  0.00  0.00    +0.000 A 
ATOM     15  C   UNL     1     148.590 129.096  95.073  0.00  0.00    +0.000 A 
ATOM     16  C   UNL     1     147.650 128.636  95.990  0.00  0.00    +0.000 A 
BRANCH  14  17
ATOM     17  N   UNL     1     150.068 128.680  93.161  0.00  0.00    +0.000 N 
ATOM     18  O   UNL     1     150.420 129.866  93.233  0.00  0.00    +0.000 OA
ATOM     19  O   UNL     1     150.496 127.867  92.330  0.00  0.00    +0.000 OA
ENDBRANCH  14  17
ENDBRANCH   3  11
BRANCH   2  20
ATOM     20  C   UNL     1     146.184 126.383 100.707  0.00  0.00    +0.000 A 
ATOM     21  C   UNL     1     147.167 126.027 101.636  0.00  0.00    +0.000 A 
ATOM     22  C   UNL     1     147.010 126.280 102.999  0.00  0.00    +0.000 A 
ATOM     23  C   UNL     1     145.857 126.909 103.465  0.00  0.00    +0.000 A 
ATOM     24  C   UNL     1     144.871 127.282 102.558  0.00  0.00    +0.000 A 
ATOM     25  C   UNL     1     145.038 127.024 101.197  0.00  0.00    +0.000 A 
BRANCH  23  26
ATOM     26  O   UNL     1     145.606 127.203 104.780  0.00  0.00    +0.000 OA
BRANCH  26  27
ATOM     27  C   UNL     1     144.948 126.259 105.450  0.00  0.00    +0.000 C 
ATOM     28  C   UNL     1     144.184 125.166 106.206  0.00  0.00    +0.000 C 
ENDBRANCH  26  27
ENDBRANCH  23  26
ENDBRANCH   2  20
BRANCH   3  29
ATOM     29  O   UNL     1     144.896 127.398  96.587  0.00  0.00    +0.000 OA
ATOM     30  H   UNL     1     144.465 126.713  96.049  0.00  0.00    +0.000 HD
ENDBRANCH   3  29
TORSDOF 6
ENDMDL
