MODEL 1
REMARK VINA RESULT:      -7.6      0.000      0.000
REMARK  Name = 5280445_Luteolin.pdbqt.pdb
REMARK  5 active torsions:
REMARK  status: ('A' for Active; 'I' for Inactive)
REMARK    1  A    between atoms: C_5  and  C_12
REMARK    2  A    between atoms: C_8  and  O_22
REMARK    3  A    between atoms: C_10  and  O_24
REMARK    4  A    between atoms: C_15  and  O_18
REMARK    5  A    between atoms: C_17  and  O_20
REMARK                            x       y       z     vdW  Elec       q    Type
REMARK                         _______ _______ _______ _____ _____    ______ ____
ROOT
ATOM      1  O   UNL     1     144.297 128.067  99.596  0.00  0.00    +0.000 OA
ATOM      2  O   UNL     1     146.242 127.044 103.073  0.00  0.00    +0.000 OA
ATOM      3  C   UNL     1     144.129 127.335 101.969  0.00  0.00    +0.000 A 
ATOM      4  C   UNL     1     143.558 127.705 100.726  0.00  0.00    +0.000 A 
ATOM      5  C   UNL     1     145.694 128.075  99.675  0.00  0.00    +0.000 A 
ATOM      6  C   UNL     1     145.601 127.335 102.079  0.00  0.00    +0.000 A 
ATOM      7  C   UNL     1     146.150 127.729 100.833  0.00  0.00    +0.000 A 
ATOM      8  C   UNL     1     143.319 126.985 103.048  0.00  0.00    +0.000 A 
ATOM      9  C   UNL     1     142.175 127.717 100.583  0.00  0.00    +0.000 A 
ATOM     10  C   UNL     1     141.378 127.365 101.671  0.00  0.00    +0.000 A 
ATOM     11  C   UNL     1     141.936 127.001 102.898  0.00  0.00    +0.000 A 
ENDROOT
BRANCH   5  12
ATOM     12  C   UNL     1     146.462 128.453  98.495  0.00  0.00    +0.000 A 
ATOM     13  C   UNL     1     147.621 129.224  98.623  0.00  0.00    +0.000 A 
ATOM     14  C   UNL     1     146.053 128.051  97.217  0.00  0.00    +0.000 A 
ATOM     15  C   UNL     1     148.344 129.579  97.492  0.00  0.00    +0.000 A 
ATOM     16  C   UNL     1     146.779 128.408  96.080  0.00  0.00    +0.000 A 
ATOM     17  C   UNL     1     147.928 129.174  96.229  0.00  0.00    +0.000 A 
BRANCH  15  18
ATOM     18  O   UNL     1     149.475 130.332  97.630  0.00  0.00    +0.000 OA
ATOM     19  H   UNL     1     149.576 130.466  98.594  0.00  0.00    +0.000 HD
ENDBRANCH  15  18
BRANCH  17  20
ATOM     20  O   UNL     1     148.675 129.551  95.146  0.00  0.00    +0.000 OA
ATOM     21  H   UNL     1     148.318 129.090  94.366  0.00  0.00    +0.000 HD
ENDBRANCH  17  20
ENDBRANCH   5  12
BRANCH   8  22
ATOM     22  O   UNL     1     143.811 126.622 104.271  0.00  0.00    +0.000 OA
ATOM     23  H   UNL     1     143.154 126.839 104.968  0.00  0.00    +0.000 HD
ENDBRANCH   8  22
BRANCH  10  24
ATOM     24  O   UNL     1     140.022 127.385 101.509  0.00  0.00    +0.000 OA
ATOM     25  H   UNL     1     139.611 127.440 102.390  0.00  0.00    +0.000 HD
ENDBRANCH  10  24
TORSDOF 5
ENDMDL
MODEL 2
REMARK VINA RESULT:      -7.5     33.665     35.436
REMARK  Name = 5280445_Luteolin.pdbqt.pdb
REMARK  5 active torsions:
REMARK  status: ('A' for Active; 'I' for Inactive)
REMARK    1  A    between atoms: C_5  and  C_12
REMARK    2  A    between atoms: C_8  and  O_22
REMARK    3  A    between atoms: C_10  and  O_24
REMARK    4  A    between atoms: C_15  and  O_18
REMARK    5  A    between atoms: C_17  and  O_20
REMARK                            x       y       z     vdW  Elec       q    Type
REMARK                         _______ _______ _______ _____ _____    ______ ____
ROOT
ATOM      1  O   UNL     1     139.832 124.597 134.884  0.00  0.00    +0.000 OA
ATOM      2  O   UNL     1     139.230 127.746 132.308  0.00  0.00    +0.000 OA
ATOM      3  C   UNL     1     140.523 126.866 134.129  0.00  0.00    +0.000 A 
ATOM      4  C   UNL     1     140.646 125.730 134.967  0.00  0.00    +0.000 A 
ATOM      5  C   UNL     1     138.820 124.561 133.917  0.00  0.00    +0.000 A 
ATOM      6  C   UNL     1     139.465 126.853 133.101  0.00  0.00    +0.000 A 
ATOM      7  C   UNL     1     138.762 125.625 133.188  0.00  0.00    +0.000 A 
ATOM      8  C   UNL     1     141.380 127.956 134.278  0.00  0.00    +0.000 A 
ATOM      9  C   UNL     1     141.633 125.704 135.947  0.00  0.00    +0.000 A 
ATOM     10  C   UNL     1     142.481 126.801 136.084  0.00  0.00    +0.000 A 
ATOM     11  C   UNL     1     142.364 127.922 135.261  0.00  0.00    +0.000 A 
ENDROOT
BRANCH   5  12
ATOM     12  C   UNL     1     137.972 123.379 133.833  0.00  0.00    +0.000 A 
ATOM     13  C   UNL     1     137.149 123.176 132.722  0.00  0.00    +0.000 A 
ATOM     14  C   UNL     1     137.967 122.427 134.861  0.00  0.00    +0.000 A 
ATOM     15  C   UNL     1     136.344 122.046 132.652  0.00  0.00    +0.000 A 
ATOM     16  C   UNL     1     137.159 121.292 134.792  0.00  0.00    +0.000 A 
ATOM     17  C   UNL     1     136.349 121.109 133.679  0.00  0.00    +0.000 A 
BRANCH  15  18
ATOM     18  O   UNL     1     135.545 121.861 131.560  0.00  0.00    +0.000 OA
ATOM     19  H   UNL     1     135.225 120.939 131.632  0.00  0.00    +0.000 HD
ENDBRANCH  15  18
BRANCH  17  20
ATOM     20  O   UNL     1     135.538 120.013 133.562  0.00  0.00    +0.000 OA
ATOM     21  H   UNL     1     134.665 120.252 133.922  0.00  0.00    +0.000 HD
ENDBRANCH  17  20
ENDBRANCH   5  12
BRANCH   8  22
ATOM     22  O   UNL     1     141.309 129.078 133.501  0.00  0.00    +0.000 OA
ATOM     23  H   UNL     1     141.182 128.821 132.561  0.00  0.00    +0.000 HD
ENDBRANCH   8  22
BRANCH  10  24
ATOM     24  O   UNL     1     143.442 126.755 137.053  0.00  0.00    +0.000 OA
ATOM     25  H   UNL     1     143.507 125.838 137.375  0.00  0.00    +0.000 HD
ENDBRANCH  10  24
TORSDOF 5
ENDMDL
MODEL 3
REMARK VINA RESULT:      -7.3     32.286     34.956
REMARK  Name = 5280445_Luteolin.pdbqt.pdb
REMARK  5 active torsions:
REMARK  status: ('A' for Active; 'I' for Inactive)
REMARK    1  A    between atoms: C_5  and  C_12
REMARK    2  A    between atoms: C_8  and  O_22
REMARK    3  A    between atoms: C_10  and  O_24
REMARK    4  A    between atoms: C_15  and  O_18
REMARK    5  A    between atoms: C_17  and  O_20
REMARK                            x       y       z     vdW  Elec       q    Type
REMARK                         _______ _______ _______ _____ _____    ______ ____
ROOT
ATOM      1  O   UNL     1     138.830 124.209 134.706  0.00  0.00    +0.000 OA
ATOM      2  O   UNL     1     136.841 122.289 131.659  0.00  0.00    +0.000 OA
ATOM      3  C   UNL     1     137.321 122.355 134.011  0.00  0.00    +0.000 A 
ATOM      4  C   UNL     1     138.046 123.086 134.985  0.00  0.00    +0.000 A 
ATOM      5  C   UNL     1     138.922 124.657 133.383  0.00  0.00    +0.000 A 
ATOM      6  C   UNL     1     137.401 122.807 132.609  0.00  0.00    +0.000 A 
ATOM      7  C   UNL     1     138.240 123.948 132.547  0.00  0.00    +0.000 A 
ATOM      8  C   UNL     1     136.561 121.245 134.376  0.00  0.00    +0.000 A 
ATOM      9  C   UNL     1     137.995 122.691 136.318  0.00  0.00    +0.000 A 
ATOM     10  C   UNL     1     137.230 121.579 136.667  0.00  0.00    +0.000 A 
ATOM     11  C   UNL     1     136.516 120.855 135.711  0.00  0.00    +0.000 A 
ENDROOT
BRANCH   5  12
ATOM     12  C   UNL     1     139.740 125.828 133.094  0.00  0.00    +0.000 A 
ATOM     13  C   UNL     1     140.469 126.450 134.112  0.00  0.00    +0.000 A 
ATOM     14  C   UNL     1     139.813 126.348 131.795  0.00  0.00    +0.000 A 
ATOM     15  C   UNL     1     141.245 127.566 133.827  0.00  0.00    +0.000 A 
ATOM     16  C   UNL     1     140.592 127.469 131.508  0.00  0.00    +0.000 A 
ATOM     17  C   UNL     1     141.308 128.072 132.534  0.00  0.00    +0.000 A 
BRANCH  15  18
ATOM     18  O   UNL     1     141.951 128.164 134.831  0.00  0.00    +0.000 OA
ATOM     19  H   UNL     1     141.534 127.850 135.658  0.00  0.00    +0.000 HD
ENDBRANCH  15  18
BRANCH  17  20
ATOM     20  O   UNL     1     142.087 129.173 132.304  0.00  0.00    +0.000 OA
ATOM     21  H   UNL     1     142.371 129.145 131.373  0.00  0.00    +0.000 HD
ENDBRANCH  17  20
ENDBRANCH   5  12
BRANCH   8  22
ATOM     22  O   UNL     1     135.842 120.500 133.482  0.00  0.00    +0.000 OA
ATOM     23  H   UNL     1     136.202 120.634 132.578  0.00  0.00    +0.000 HD
ENDBRANCH   8  22
BRANCH  10  24
ATOM     24  O   UNL     1     137.195 121.208 137.980  0.00  0.00    +0.000 OA
ATOM     25  H   UNL     1     138.103 121.243 138.331  0.00  0.00    +0.000 HD
ENDBRANCH  10  24
TORSDOF 5
ENDMDL
MODEL 4
REMARK VINA RESULT:      -7.2      1.248      2.799
REMARK  Name = 5280445_Luteolin.pdbqt.pdb
REMARK  5 active torsions:
REMARK  status: ('A' for Active; 'I' for Inactive)
REMARK    1  A    between atoms: C_5  and  C_12
REMARK    2  A    between atoms: C_8  and  O_22
REMARK    3  A    between atoms: C_10  and  O_24
REMARK    4  A    between atoms: C_15  and  O_18
REMARK    5  A    between atoms: C_17  and  O_20
REMARK                            x       y       z     vdW  Elec       q    Type
REMARK                         _______ _______ _______ _____ _____    ______ ____
ROOT
ATOM      1  O   UNL     1     146.350 127.583 100.844  0.00  0.00    +0.000 OA
ATOM      2  O   UNL     1     142.239 127.541 100.702  0.00  0.00    +0.000 OA
ATOM      3  C   UNL     1     144.203 127.132 102.021  0.00  0.00    +0.000 A 
ATOM      4  C   UNL     1     145.618 127.181 101.965  0.00  0.00    +0.000 A 
ATOM      5  C   UNL     1     145.659 127.965  99.687  0.00  0.00    +0.000 A 
ATOM      6  C   UNL     1     143.451 127.529 100.815  0.00  0.00    +0.000 A 
ATOM      7  C   UNL     1     144.375 127.897  99.804  0.00  0.00    +0.000 A 
ATOM      8  C   UNL     1     143.551 126.720 103.182  0.00  0.00    +0.000 A 
ATOM      9  C   UNL     1     146.362 126.815 103.082  0.00  0.00    +0.000 A 
ATOM     10  C   UNL     1     145.696 126.405 104.235  0.00  0.00    +0.000 A 
ATOM     11  C   UNL     1     144.302 126.354 104.295  0.00  0.00    +0.000 A 
ENDROOT
BRANCH   5  12
ATOM     12  C   UNL     1     146.424 128.383  98.520  0.00  0.00    +0.000 A 
ATOM     13  C   UNL     1     147.579 129.156  98.670  0.00  0.00    +0.000 A 
ATOM     14  C   UNL     1     146.017 128.019  97.229  0.00  0.00    +0.000 A 
ATOM     15  C   UNL     1     148.300 129.550  97.551  0.00  0.00    +0.000 A 
ATOM     16  C   UNL     1     146.741 128.414  96.104  0.00  0.00    +0.000 A 
ATOM     17  C   UNL     1     147.885 129.182  96.276  0.00  0.00    +0.000 A 
BRANCH  15  18
ATOM     18  O   UNL     1     149.427 130.305  97.712  0.00  0.00    +0.000 OA
ATOM     19  H   UNL     1     149.446 130.903  96.938  0.00  0.00    +0.000 HD
ENDBRANCH  15  18
BRANCH  17  20
ATOM     20  O   UNL     1     148.631 129.595  95.206  0.00  0.00    +0.000 OA
ATOM     21  H   UNL     1     148.715 130.564  95.260  0.00  0.00    +0.000 HD
ENDBRANCH  17  20
ENDBRANCH   5  12
BRANCH   8  22
ATOM     22  O   UNL     1     142.190 126.650 103.295  0.00  0.00    +0.000 OA
ATOM     23  H   UNL     1     141.791 126.556 102.403  0.00  0.00    +0.000 HD
ENDBRANCH   8  22
BRANCH  10  24
ATOM     24  O   UNL     1     146.446 126.049 105.320  0.00  0.00    +0.000 OA
ATOM     25  H   UNL     1     146.203 126.630 106.062  0.00  0.00    +0.000 HD
ENDBRANCH  10  24
TORSDOF 5
ENDMDL
MODEL 5
REMARK VINA RESULT:      -7.1      4.369      6.630
REMARK  Name = 5280445_Luteolin.pdbqt.pdb
REMARK  5 active torsions:
REMARK  status: ('A' for Active; 'I' for Inactive)
REMARK    1  A    between atoms: C_5  and  C_12
REMARK    2  A    between atoms: C_8  and  O_22
REMARK    3  A    between atoms: C_10  and  O_24
REMARK    4  A    between atoms: C_15  and  O_18
REMARK    5  A    between atoms: C_17  and  O_20
REMARK                            x       y       z     vdW  Elec       q    Type
REMARK                         _______ _______ _______ _____ _____    ______ ____
ROOT
ATOM      1  O   UNL     1     144.366 124.037  99.580  0.00  0.00    +0.000 OA
ATOM      2  O   UNL     1     140.378 124.803 100.235  0.00  0.00    +0.000 OA
ATOM      3  C   UNL     1     142.009 123.716  98.847  0.00  0.00    +0.000 A 
ATOM      4  C   UNL     1     143.405 123.513  98.711  0.00  0.00    +0.000 A 
ATOM      5  C   UNL     1     143.945 124.819 100.663  0.00  0.00    +0.000 A 
ATOM      6  C   UNL     1     141.538 124.536  99.980  0.00  0.00    +0.000 A 
ATOM      7  C   UNL     1     142.664 124.964 100.729  0.00  0.00    +0.000 A 
ATOM      8  C   UNL     1     141.116 123.156  97.935  0.00  0.00    +0.000 A 
ATOM      9  C   UNL     1     143.886 122.746  97.656  0.00  0.00    +0.000 A 
ATOM     10  C   UNL     1     142.982 122.193  96.751  0.00  0.00    +0.000 A 
ATOM     11  C   UNL     1     141.606 122.390  96.881  0.00  0.00    +0.000 A 
ENDROOT
BRANCH   5  12
ATOM     12  C   UNL     1     144.949 125.363 101.567  0.00  0.00    +0.000 A 
ATOM     13  C   UNL     1     144.563 126.047 102.724  0.00  0.00    +0.000 A 
ATOM     14  C   UNL     1     146.315 125.211 101.295  0.00  0.00    +0.000 A 
ATOM     15  C   UNL     1     145.529 126.563 103.578  0.00  0.00    +0.000 A 
ATOM     16  C   UNL     1     147.285 125.729 102.153  0.00  0.00    +0.000 A 
ATOM     17  C   UNL     1     146.881 126.405 103.297  0.00  0.00    +0.000 A 
BRANCH  15  18
ATOM     18  O   UNL     1     145.138 127.229 104.705  0.00  0.00    +0.000 OA
ATOM     19  H   UNL     1     145.815 127.013 105.377  0.00  0.00    +0.000 HD
ENDBRANCH  15  18
BRANCH  17  20
ATOM     20  O   UNL     1     147.792 126.932 104.171  0.00  0.00    +0.000 OA
ATOM     21  H   UNL     1     148.444 126.236 104.373  0.00  0.00    +0.000 HD
ENDBRANCH  17  20
ENDBRANCH   5  12
BRANCH   8  22
ATOM     22  O   UNL     1     139.761 123.317  98.014  0.00  0.00    +0.000 OA
ATOM     23  H   UNL     1     139.378 122.610  98.578  0.00  0.00    +0.000 HD
ENDBRANCH   8  22
BRANCH  10  24
ATOM     24  O   UNL     1     143.477 121.444  95.722  0.00  0.00    +0.000 OA
ATOM     25  H   UNL     1     143.001 120.594  95.707  0.00  0.00    +0.000 HD
ENDBRANCH  10  24
TORSDOF 5
ENDMDL
MODEL 6
REMARK VINA RESULT:      -6.6     33.071     36.883
REMARK  Name = 5280445_Luteolin.pdbqt.pdb
REMARK  5 active torsions:
REMARK  status: ('A' for Active; 'I' for Inactive)
REMARK    1  A    between atoms: C_5  and  C_12
REMARK    2  A    between atoms: C_8  and  O_22
REMARK    3  A    between atoms: C_10  and  O_24
REMARK    4  A    between atoms: C_15  and  O_18
REMARK    5  A    between atoms: C_17  and  O_20
REMARK                            x       y       z     vdW  Elec       q    Type
REMARK                         _______ _______ _______ _____ _____    ______ ____
ROOT
ATOM      1  O   UNL     1     137.510 123.089 136.293  0.00  0.00    +0.000 OA
ATOM      2  O   UNL     1     133.721 122.317 134.888  0.00  0.00    +0.000 OA
ATOM      3  C   UNL     1     135.186 122.348 136.791  0.00  0.00    +0.000 A 
ATOM      4  C   UNL     1     136.519 122.642 137.172  0.00  0.00    +0.000 A 
ATOM      5  C   UNL     1     137.186 123.265 134.942  0.00  0.00    +0.000 A 
ATOM      6  C   UNL     1     134.819 122.525 135.373  0.00  0.00    +0.000 A 
ATOM      7  C   UNL     1     135.958 122.981 134.662  0.00  0.00    +0.000 A 
ATOM      8  C   UNL     1     134.258 121.907 137.733  0.00  0.00    +0.000 A 
ATOM      9  C   UNL     1     136.903 122.487 138.499  0.00  0.00    +0.000 A 
ATOM     10  C   UNL     1     135.964 122.045 139.430  0.00  0.00    +0.000 A 
ATOM     11  C   UNL     1     134.650 121.754 139.059  0.00  0.00    +0.000 A 
ENDROOT
BRANCH   5  12
ATOM     12  C   UNL     1     138.221 123.732 134.028  0.00  0.00    +0.000 A 
ATOM     13  C   UNL     1     137.974 124.809 133.172  0.00  0.00    +0.000 A 
ATOM     14  C   UNL     1     139.477 123.112 133.993  0.00  0.00    +0.000 A 
ATOM     15  C   UNL     1     138.967 125.246 132.304  0.00  0.00    +0.000 A 
ATOM     16  C   UNL     1     140.475 123.551 133.121  0.00  0.00    +0.000 A 
ATOM     17  C   UNL     1     140.209 124.622 132.279  0.00  0.00    +0.000 A 
BRANCH  15  18
ATOM     18  O   UNL     1     138.713 126.299 131.473  0.00  0.00    +0.000 OA
ATOM     19  H   UNL     1     138.445 127.031 132.063  0.00  0.00    +0.000 HD
ENDBRANCH  15  18
BRANCH  17  20
ATOM     20  O   UNL     1     141.154 125.090 131.406  0.00  0.00    +0.000 OA
ATOM     21  H   UNL     1     141.799 124.375 131.258  0.00  0.00    +0.000 HD
ENDBRANCH  17  20
ENDBRANCH   5  12
BRANCH   8  22
ATOM     22  O   UNL     1     132.960 121.607 137.426  0.00  0.00    +0.000 OA
ATOM     23  H   UNL     1     132.689 120.791 137.900  0.00  0.00    +0.000 HD
ENDBRANCH   8  22
BRANCH  10  24
ATOM     24  O   UNL     1     136.363 121.899 140.727  0.00  0.00    +0.000 OA
ATOM     25  H   UNL     1     135.913 122.578 141.263  0.00  0.00    +0.000 HD
ENDBRANCH  10  24
TORSDOF 5
ENDMDL
MODEL 7
REMARK VINA RESULT:      -6.6      1.792      7.171
REMARK  Name = 5280445_Luteolin.pdbqt.pdb
REMARK  5 active torsions:
REMARK  status: ('A' for Active; 'I' for Inactive)
REMARK    1  A    between atoms: C_5  and  C_12
REMARK    2  A    between atoms: C_8  and  O_22
REMARK    3  A    between atoms: C_10  and  O_24
REMARK    4  A    between atoms: C_15  and  O_18
REMARK    5  A    between atoms: C_17  and  O_20
REMARK                            x       y       z     vdW  Elec       q    Type
REMARK                         _______ _______ _______ _____ _____    ______ ____
ROOT
ATOM      1  O   UNL     1     146.321 127.957 100.054  0.00  0.00    +0.000 OA
ATOM      2  O   UNL     1     144.218 126.696  96.751  0.00  0.00    +0.000 OA
ATOM      3  C   UNL     1     146.086 127.959  97.576  0.00  0.00    +0.000 A 
ATOM      4  C   UNL     1     146.738 128.339  98.775  0.00  0.00    +0.000 A 
ATOM      5  C   UNL     1     145.186 127.147 100.181  0.00  0.00    +0.000 A 
ATOM      6  C   UNL     1     144.887 127.106  97.682  0.00  0.00    +0.000 A 
ATOM      7  C   UNL     1     144.641 126.837  99.053  0.00  0.00    +0.000 A 
ATOM      8  C   UNL     1     146.569 128.384  96.339  0.00  0.00    +0.000 A 
ATOM      9  C   UNL     1     147.871 129.143  98.716  0.00  0.00    +0.000 A 
ATOM     10  C   UNL     1     148.342 129.559  97.472  0.00  0.00    +0.000 A 
ATOM     11  C   UNL     1     147.703 129.189  96.288  0.00  0.00    +0.000 A 
ENDROOT
BRANCH   5  12
ATOM     12  C   UNL     1     144.754 126.750 101.515  0.00  0.00    +0.000 A 
ATOM     13  C   UNL     1     145.679 126.653 102.559  0.00  0.00    +0.000 A 
ATOM     14  C   UNL     1     143.408 126.460 101.775  0.00  0.00    +0.000 A 
ATOM     15  C   UNL     1     145.257 126.273 103.826  0.00  0.00    +0.000 A 
ATOM     16  C   UNL     1     142.984 126.078 103.048  0.00  0.00    +0.000 A 
ATOM     17  C   UNL     1     143.918 125.988 104.071  0.00  0.00    +0.000 A 
BRANCH  15  18
ATOM     18  O   UNL     1     146.171 126.183 104.837  0.00  0.00    +0.000 OA
ATOM     19  H   UNL     1     145.826 125.488 105.432  0.00  0.00    +0.000 HD
ENDBRANCH  15  18
BRANCH  17  20
ATOM     20  O   UNL     1     143.553 125.619 105.336  0.00  0.00    +0.000 OA
ATOM     21  H   UNL     1     143.577 124.646 105.379  0.00  0.00    +0.000 HD
ENDBRANCH  17  20
ENDBRANCH   5  12
BRANCH   8  22
ATOM     22  O   UNL     1     145.983 128.052  95.149  0.00  0.00    +0.000 OA
ATOM     23  H   UNL     1     145.164 128.579  95.027  0.00  0.00    +0.000 HD
ENDBRANCH   8  22
BRANCH  10  24
ATOM     24  O   UNL     1     149.456 130.349  97.437  0.00  0.00    +0.000 OA
ATOM     25  H   UNL     1     149.471 130.817  96.582  0.00  0.00    +0.000 HD
ENDBRANCH  10  24
TORSDOF 5
ENDMDL
MODEL 8
REMARK VINA RESULT:      -6.4      4.100      6.394
REMARK  Name = 5280445_Luteolin.pdbqt.pdb
REMARK  5 active torsions:
REMARK  status: ('A' for Active; 'I' for Inactive)
REMARK    1  A    between atoms: C_5  and  C_12
REMARK    2  A    between atoms: C_8  and  O_22
REMARK    3  A    between atoms: C_10  and  O_24
REMARK    4  A    between atoms: C_15  and  O_18
REMARK    5  A    between atoms: C_17  and  O_20
REMARK                            x       y       z     vdW  Elec       q    Type
REMARK                         _______ _______ _______ _____ _____    ______ ____
ROOT
ATOM      1  O   UNL     1     144.803 125.596  98.944  0.00  0.00    +0.000 OA
ATOM      2  O   UNL     1     144.118 125.268 102.986  0.00  0.00    +0.000 OA
ATOM      3  C   UNL     1     145.298 126.419 101.240  0.00  0.00    +0.000 A 
ATOM      4  C   UNL     1     145.464 126.449  99.833  0.00  0.00    +0.000 A 
ATOM      5  C   UNL     1     143.916 124.641  99.454  0.00  0.00    +0.000 A 
ATOM      6  C   UNL     1     144.369 125.421 101.804  0.00  0.00    +0.000 A 
ATOM      7  C   UNL     1     143.812 124.667 100.741  0.00  0.00    +0.000 A 
ATOM      8  C   UNL     1     145.996 127.307 102.057  0.00  0.00    +0.000 A 
ATOM      9  C   UNL     1     146.331 127.375  99.264  0.00  0.00    +0.000 A 
ATOM     10  C   UNL     1     147.021 128.257 100.094  0.00  0.00    +0.000 A 
ATOM     11  C   UNL     1     146.862 128.231 101.480  0.00  0.00    +0.000 A 
ENDROOT
BRANCH   5  12
ATOM     12  C   UNL     1     143.229 123.754  98.525  0.00  0.00    +0.000 A 
ATOM     13  C   UNL     1     141.835 123.777  98.424  0.00  0.00    +0.000 A 
ATOM     14  C   UNL     1     143.952 122.866  97.717  0.00  0.00    +0.000 A 
ATOM     15  C   UNL     1     141.191 122.926  97.535  0.00  0.00    +0.000 A 
ATOM     16  C   UNL     1     143.305 122.011  96.824  0.00  0.00    +0.000 A 
ATOM     17  C   UNL     1     141.919 122.050  96.739  0.00  0.00    +0.000 A 
BRANCH  15  18
ATOM     18  O   UNL     1     139.828 122.959  97.447  0.00  0.00    +0.000 OA
ATOM     19  H   UNL     1     139.523 122.150  97.903  0.00  0.00    +0.000 HD
ENDBRANCH  15  18
BRANCH  17  20
ATOM     20  O   UNL     1     141.237 121.233  95.879  0.00  0.00    +0.000 OA
ATOM     21  H   UNL     1     140.808 121.799  95.212  0.00  0.00    +0.000 HD
ENDBRANCH  17  20
ENDBRANCH   5  12
BRANCH   8  22
ATOM     22  O   UNL     1     145.878 127.326 103.420  0.00  0.00    +0.000 OA
ATOM     23  H   UNL     1     146.736 127.074 103.827  0.00  0.00    +0.000 HD
ENDBRANCH   8  22
BRANCH  10  24
ATOM     24  O   UNL     1     147.868 129.158  99.514  0.00  0.00    +0.000 OA
ATOM     25  H   UNL     1     147.626 129.242  98.574  0.00  0.00    +0.000 HD
ENDBRANCH  10  24
TORSDOF 5
ENDMDL
MODEL 9
REMARK VINA RESULT:      -6.4      3.225      4.001
REMARK  Name = 5280445_Luteolin.pdbqt.pdb
REMARK  5 active torsions:
REMARK  status: ('A' for Active; 'I' for Inactive)
REMARK    1  A    between atoms: C_5  and  C_12
REMARK    2  A    between atoms: C_8  and  O_22
REMARK    3  A    between atoms: C_10  and  O_24
REMARK    4  A    between atoms: C_15  and  O_18
REMARK    5  A    between atoms: C_17  and  O_20
REMARK                            x       y       z     vdW  Elec       q    Type
REMARK                         _______ _______ _______ _____ _____    ______ ____
ROOT
ATOM      1  O   UNL     1     144.705 125.658  98.048  0.00  0.00    +0.000 OA
ATOM      2  O   UNL     1     141.807 126.851 100.711  0.00  0.00    +0.000 OA
ATOM      3  C   UNL     1     142.548 125.154  99.183  0.00  0.00    +0.000 A 
ATOM      4  C   UNL     1     143.599 124.837  98.287  0.00  0.00    +0.000 A 
ATOM      5  C   UNL     1     144.801 126.879  98.726  0.00  0.00    +0.000 A 
ATOM      6  C   UNL     1     142.624 126.434  99.911  0.00  0.00    +0.000 A 
ATOM      7  C   UNL     1     143.813 127.106  99.526  0.00  0.00    +0.000 A 
ATOM      8  C   UNL     1     141.480 124.276  99.364  0.00  0.00    +0.000 A 
ATOM      9  C   UNL     1     143.563 123.638  97.583  0.00  0.00    +0.000 A 
ATOM     10  C   UNL     1     142.488 122.772  97.774  0.00  0.00    +0.000 A 
ATOM     11  C   UNL     1     141.450 123.079  98.655  0.00  0.00    +0.000 A 
ENDROOT
BRANCH   5  12
ATOM     12  C   UNL     1     145.955 127.732  98.475  0.00  0.00    +0.000 A 
ATOM     13  C   UNL     1     147.249 127.257  98.707  0.00  0.00    +0.000 A 
ATOM     14  C   UNL     1     145.788 129.039  97.997  0.00  0.00    +0.000 A 
ATOM     15  C   UNL     1     148.342 128.080  98.464  0.00  0.00    +0.000 A 
ATOM     16  C   UNL     1     146.886 129.865  97.754  0.00  0.00    +0.000 A 
ATOM     17  C   UNL     1     148.163 129.374  97.990  0.00  0.00    +0.000 A 
BRANCH  15  18
ATOM     18  O   UNL     1     149.601 127.603  98.695  0.00  0.00    +0.000 OA
ATOM     19  H   UNL     1     149.735 126.902  98.025  0.00  0.00    +0.000 HD
ENDBRANCH  15  18
BRANCH  17  20
ATOM     20  O   UNL     1     149.272 130.144  97.768  0.00  0.00    +0.000 OA
ATOM     21  H   UNL     1     149.031 130.828  97.117  0.00  0.00    +0.000 HD
ENDBRANCH  17  20
ENDBRANCH   5  12
BRANCH   8  22
ATOM     22  O   UNL     1     140.437 124.527 100.213  0.00  0.00    +0.000 OA
ATOM     23  H   UNL     1     140.178 123.697 100.669  0.00  0.00    +0.000 HD
ENDBRANCH   8  22
BRANCH  10  24
ATOM     24  O   UNL     1     142.472 121.601  97.072  0.00  0.00    +0.000 OA
ATOM     25  H   UNL     1     141.545 121.376  96.875  0.00  0.00    +0.000 HD
ENDBRANCH  10  24
TORSDOF 5
ENDMDL
