MODEL 1
REMARK VINA RESULT:      -7.4      0.000      0.000
REMARK  Name = 5281224_Astaxanthin.pdbqt.pdb
REMARK  16 active torsions:
REMARK  status: ('A' for Active; 'I' for Inactive)
REMARK    1  A    between atoms: C_1  and  C_5
REMARK    2  A    between atoms: C_2  and  C_27
REMARK    3  A    between atoms: C_3  and  C_5
REMARK    4  A    between atoms: C_3  and  C_7
REMARK    5  A    between atoms: C_6  and  C_10
REMARK    6  A    between atoms: C_8  and  C_10
REMARK    7  A    between atoms: C_8  and  C_12
REMARK    8  A    between atoms: C_11  and  C_16
REMARK    9  A    between atoms: C_17  and  O_23
REMARK   10  A    between atoms: C_25  and  C_27
REMARK   11  A    between atoms: C_25  and  C_29
REMARK   12  A    between atoms: C_28  and  C_32
REMARK   13  A    between atoms: C_30  and  C_32
REMARK   14  A    between atoms: C_30  and  C_34
REMARK   15  A    between atoms: C_33  and  C_38
REMARK   16  A    between atoms: C_39  and  O_45
REMARK                            x       y       z     vdW  Elec       q    Type
REMARK                         _______ _______ _______ _____ _____    ______ ____
ROOT
ATOM      1  C   UNL     1     150.170 134.631 125.448  0.00  0.00    +0.000 C 
ATOM      2  C   UNL     1     150.184 135.669 124.846  0.00  0.00    +0.000 C 
ENDROOT
BRANCH   2   3
ATOM      3  C   UNL     1     150.196 136.993 124.071  0.00  0.00    +0.000 C 
BRANCH   3   4
ATOM      4  C   UNL     1     150.212 138.112 123.419  0.00  0.00    +0.000 C 
ATOM      5  C   UNL     1     149.622 139.345 124.034  0.00  0.00    +0.000 C 
BRANCH   4   7
ATOM      6  C   UNL     1     151.137 138.182 120.973  0.00  0.00    +0.000 C 
ATOM      7  C   UNL     1     150.713 138.152 122.095  0.00  0.00    +0.000 C 
BRANCH   6   8
ATOM      8  C   UNL     1     151.677 138.218 119.538  0.00  0.00    +0.000 C 
BRANCH   8   9
ATOM      9  C   UNL     1     152.135 138.240 118.325  0.00  0.00    +0.000 C 
ATOM     10  C   UNL     1     153.570 137.900 118.062  0.00  0.00    +0.000 C 
BRANCH   9  12
ATOM     11  C   UNL     1     150.493 138.580 116.312  0.00  0.00    +0.000 C 
ATOM     12  C   UNL     1     151.244 138.435 117.241  0.00  0.00    +0.000 C 
BRANCH  11  16
ATOM     13  O   UNL     1     149.631 140.031 111.710  0.00  0.00    +0.000 OA
ATOM     14  C   UNL     1     148.132 138.257 115.358  0.00  0.00    +0.000 C 
ATOM     15  C   UNL     1     147.483 138.541 114.089  0.00  0.00    +0.000 C 
ATOM     16  C   UNL     1     149.595 138.741 115.185  0.00  0.00    +0.000 C 
ATOM     17  C   UNL     1     147.818 139.094 112.858  0.00  0.00    +0.000 C 
ATOM     18  C   UNL     1     148.133 136.734 115.628  0.00  0.00    +0.000 C 
ATOM     19  C   UNL     1     147.456 139.056 116.494  0.00  0.00    +0.000 C 
ATOM     20  C   UNL     1     150.057 139.299 114.027  0.00  0.00    +0.000 C 
ATOM     21  C   UNL     1     149.228 139.534 112.753  0.00  0.00    +0.000 C 
ATOM     22  C   UNL     1     151.528 139.732 113.954  0.00  0.00    +0.000 C 
BRANCH  17  23
ATOM     23  O   UNL     1     146.927 139.218 111.826  0.00  0.00    +0.000 OA
ATOM     24  H   UNL     1     147.186 139.949 111.229  0.00  0.00    +0.000 HD
ENDBRANCH  17  23
ENDBRANCH  11  16
ENDBRANCH   9  12
ENDBRANCH   8   9
ENDBRANCH   6   8
ENDBRANCH   4   7
ENDBRANCH   3   4
ENDBRANCH   2   3
BRANCH   1  25
ATOM     25  C   UNL     1     150.144 133.302 126.212  0.00  0.00    +0.000 C 
BRANCH  25  26
ATOM     26  C   UNL     1     150.121 132.181 126.862  0.00  0.00    +0.000 C 
ATOM     27  C   UNL     1     151.408 131.507 127.234  0.00  0.00    +0.000 C 
BRANCH  26  29
ATOM     28  C   UNL     1     147.839 131.014 127.381  0.00  0.00    +0.000 C 
ATOM     29  C   UNL     1     148.886 131.551 127.144  0.00  0.00    +0.000 C 
BRANCH  28  30
ATOM     30  C   UNL     1     146.501 130.326 127.682  0.00  0.00    +0.000 C 
BRANCH  30  31
ATOM     31  C   UNL     1     145.367 129.749 127.930  0.00  0.00    +0.000 C 
ATOM     32  C   UNL     1     144.699 129.950 129.256  0.00  0.00    +0.000 C 
BRANCH  31  34
ATOM     33  C   UNL     1     144.118 128.492 126.000  0.00  0.00    +0.000 C 
ATOM     34  C   UNL     1     144.687 129.061 126.893  0.00  0.00    +0.000 C 
BRANCH  33  38
ATOM     35  O   UNL     1     141.684 128.638 121.748  0.00  0.00    +0.000 OA
ATOM     36  C   UNL     1     143.346 126.274 124.965  0.00  0.00    +0.000 C 
ATOM     37  C   UNL     1     142.622 125.890 123.765  0.00  0.00    +0.000 C 
ATOM     38  C   UNL     1     143.435 127.820 124.911  0.00  0.00    +0.000 C 
ATOM     39  C   UNL     1     142.038 126.514 122.667  0.00  0.00    +0.000 C 
ATOM     40  C   UNL     1     144.775 125.683 124.938  0.00  0.00    +0.000 C 
ATOM     41  C   UNL     1     142.556 125.848 126.222  0.00  0.00    +0.000 C 
ATOM     42  C   UNL     1     142.908 128.556 123.889  0.00  0.00    +0.000 C 
ATOM     43  C   UNL     1     142.160 127.988 122.671  0.00  0.00    +0.000 C 
ATOM     44  C   UNL     1     143.065 130.082 123.922  0.00  0.00    +0.000 C 
BRANCH  39  45
ATOM     45  O   UNL     1     141.407 125.826 121.666  0.00  0.00    +0.000 OA
ATOM     46  H   UNL     1     140.670 125.290 122.025  0.00  0.00    +0.000 HD
ENDBRANCH  39  45
ENDBRANCH  33  38
ENDBRANCH  31  34
ENDBRANCH  30  31
ENDBRANCH  28  30
ENDBRANCH  26  29
ENDBRANCH  25  26
ENDBRANCH   1  25
TORSDOF 16
ENDMDL
MODEL 2
REMARK VINA RESULT:      -7.0     16.864     22.184
REMARK  Name = 5281224_Astaxanthin.pdbqt.pdb
REMARK  16 active torsions:
REMARK  status: ('A' for Active; 'I' for Inactive)
REMARK    1  A    between atoms: C_1  and  C_5
REMARK    2  A    between atoms: C_2  and  C_27
REMARK    3  A    between atoms: C_3  and  C_5
REMARK    4  A    between atoms: C_3  and  C_7
REMARK    5  A    between atoms: C_6  and  C_10
REMARK    6  A    between atoms: C_8  and  C_10
REMARK    7  A    between atoms: C_8  and  C_12
REMARK    8  A    between atoms: C_11  and  C_16
REMARK    9  A    between atoms: C_17  and  O_23
REMARK   10  A    between atoms: C_25  and  C_27
REMARK   11  A    between atoms: C_25  and  C_29
REMARK   12  A    between atoms: C_28  and  C_32
REMARK   13  A    between atoms: C_30  and  C_32
REMARK   14  A    between atoms: C_30  and  C_34
REMARK   15  A    between atoms: C_33  and  C_38
REMARK   16  A    between atoms: C_39  and  O_45
REMARK                            x       y       z     vdW  Elec       q    Type
REMARK                         _______ _______ _______ _____ _____    ______ ____
ROOT
ATOM      1  C   UNL     1     148.648 114.627 114.372  0.00  0.00    +0.000 C 
ATOM      2  C   UNL     1     149.406 114.810 115.284  0.00  0.00    +0.000 C 
ENDROOT
BRANCH   2   3
ATOM      3  C   UNL     1     150.370 115.049 116.453  0.00  0.00    +0.000 C 
BRANCH   3   4
ATOM      4  C   UNL     1     151.180 115.255 117.443  0.00  0.00    +0.000 C 
ATOM      5  C   UNL     1     152.603 115.645 117.177  0.00  0.00    +0.000 C 
BRANCH   4   7
ATOM      6  C   UNL     1     150.373 114.843 119.898  0.00  0.00    +0.000 C 
ATOM      7  C   UNL     1     150.744 115.034 118.772  0.00  0.00    +0.000 C 
BRANCH   6   8
ATOM      8  C   UNL     1     149.902 114.595 121.335  0.00  0.00    +0.000 C 
BRANCH   8   9
ATOM      9  C   UNL     1     149.495 114.390 122.550  0.00  0.00    +0.000 C 
ATOM     10  C   UNL     1     148.941 113.052 122.937  0.00  0.00    +0.000 C 
BRANCH   9  12
ATOM     11  C   UNL     1     149.904 116.231 124.367  0.00  0.00    +0.000 C 
ATOM     12  C   UNL     1     149.718 115.377 123.541  0.00  0.00    +0.000 C 
BRANCH  11  16
ATOM     13  O   UNL     1     151.697 120.622 125.603  0.00  0.00    +0.000 OA
ATOM     14  C   UNL     1     149.590 117.036 126.785  0.00  0.00    +0.000 C 
ATOM     15  C   UNL     1     149.956 118.226 127.533  0.00  0.00    +0.000 C 
ATOM     16  C   UNL     1     150.130 117.273 125.350  0.00  0.00    +0.000 C 
ATOM     17  C   UNL     1     150.617 119.429 127.303  0.00  0.00    +0.000 C 
ATOM     18  C   UNL     1     148.051 116.894 126.728  0.00  0.00    +0.000 C 
ATOM     19  C   UNL     1     150.274 115.792 127.393  0.00  0.00    +0.000 C 
ATOM     20  C   UNL     1     150.792 118.411 124.989  0.00  0.00    +0.000 C 
ATOM     21  C   UNL     1     151.105 119.598 125.916  0.00  0.00    +0.000 C 
ATOM     22  C   UNL     1     151.273 118.554 123.539  0.00  0.00    +0.000 C 
BRANCH  17  23
ATOM     23  O   UNL     1     150.798 120.379 128.272  0.00  0.00    +0.000 OA
ATOM     24  H   UNL     1     150.223 121.155 128.108  0.00  0.00    +0.000 HD
ENDBRANCH  17  23
ENDBRANCH  11  16
ENDBRANCH   9  12
ENDBRANCH   8   9
ENDBRANCH   6   8
ENDBRANCH   4   7
ENDBRANCH   3   4
ENDBRANCH   2   3
BRANCH   1  25
ATOM     25  C   UNL     1     147.673 114.402 113.211  0.00  0.00    +0.000 C 
BRANCH  25  26
ATOM     26  C   UNL     1     146.850 114.216 112.227  0.00  0.00    +0.000 C 
ATOM     27  C   UNL     1     147.178 113.218 111.157  0.00  0.00    +0.000 C 
BRANCH  26  29
ATOM     28  C   UNL     1     144.699 115.691 112.027  0.00  0.00    +0.000 C 
ATOM     29  C   UNL     1     145.687 115.014 112.118  0.00  0.00    +0.000 C 
BRANCH  28  30
ATOM     30  C   UNL     1     143.435 116.553 111.914  0.00  0.00    +0.000 C 
BRANCH  30  31
ATOM     31  C   UNL     1     142.369 117.282 111.810  0.00  0.00    +0.000 C 
ATOM     32  C   UNL     1     142.490 118.753 111.549  0.00  0.00    +0.000 C 
BRANCH  31  34
ATOM     33  C   UNL     1     140.006 116.149 111.782  0.00  0.00    +0.000 C 
ATOM     34  C   UNL     1     141.094 116.663 111.785  0.00  0.00    +0.000 C 
BRANCH  33  38
ATOM     35  O   UNL     1     136.649 113.197 109.774  0.00  0.00    +0.000 OA
ATOM     36  C   UNL     1     137.749 115.888 112.975  0.00  0.00    +0.000 C 
ATOM     37  C   UNL     1     136.528 115.141 112.723  0.00  0.00    +0.000 C 
ATOM     38  C   UNL     1     138.691 115.537 111.795  0.00  0.00    +0.000 C 
ATOM     39  C   UNL     1     136.034 114.260 111.766  0.00  0.00    +0.000 C 
ATOM     40  C   UNL     1     138.399 115.417 114.298  0.00  0.00    +0.000 C 
ATOM     41  C   UNL     1     137.457 117.404 112.968  0.00  0.00    +0.000 C 
ATOM     42  C   UNL     1     138.334 114.685 110.790  0.00  0.00    +0.000 C 
ATOM     43  C   UNL     1     136.981 113.963 110.669  0.00  0.00    +0.000 C 
ATOM     44  C   UNL     1     139.347 114.392 109.676  0.00  0.00    +0.000 C 
BRANCH  39  45
ATOM     45  O   UNL     1     134.782 113.712 111.832  0.00  0.00    +0.000 OA
ATOM     46  H   UNL     1     134.167 114.177 111.228  0.00  0.00    +0.000 HD
ENDBRANCH  39  45
ENDBRANCH  33  38
ENDBRANCH  31  34
ENDBRANCH  30  31
ENDBRANCH  28  30
ENDBRANCH  26  29
ENDBRANCH  25  26
ENDBRANCH   1  25
TORSDOF 16
ENDMDL
MODEL 3
REMARK VINA RESULT:      -6.8     17.129     21.446
REMARK  Name = 5281224_Astaxanthin.pdbqt.pdb
REMARK  16 active torsions:
REMARK  status: ('A' for Active; 'I' for Inactive)
REMARK    1  A    between atoms: C_1  and  C_5
REMARK    2  A    between atoms: C_2  and  C_27
REMARK    3  A    between atoms: C_3  and  C_5
REMARK    4  A    between atoms: C_3  and  C_7
REMARK    5  A    between atoms: C_6  and  C_10
REMARK    6  A    between atoms: C_8  and  C_10
REMARK    7  A    between atoms: C_8  and  C_12
REMARK    8  A    between atoms: C_11  and  C_16
REMARK    9  A    between atoms: C_17  and  O_23
REMARK   10  A    between atoms: C_25  and  C_27
REMARK   11  A    between atoms: C_25  and  C_29
REMARK   12  A    between atoms: C_28  and  C_32
REMARK   13  A    between atoms: C_30  and  C_32
REMARK   14  A    between atoms: C_30  and  C_34
REMARK   15  A    between atoms: C_33  and  C_38
REMARK   16  A    between atoms: C_39  and  O_45
REMARK                            x       y       z     vdW  Elec       q    Type
REMARK                         _______ _______ _______ _____ _____    ______ ____
ROOT
ATOM      1  C   UNL     1     149.431 114.863 115.405  0.00  0.00    +0.000 C 
ATOM      2  C   UNL     1     148.684 114.673 114.485  0.00  0.00    +0.000 C 
ENDROOT
BRANCH   2   3
ATOM      3  C   UNL     1     147.727 114.440 113.309  0.00  0.00    +0.000 C 
BRANCH   3   4
ATOM      4  C   UNL     1     146.924 114.244 112.311  0.00  0.00    +0.000 C 
ATOM      5  C   UNL     1     147.284 113.253 111.245  0.00  0.00    +0.000 C 
BRANCH   4   7
ATOM      6  C   UNL     1     144.754 115.685 112.080  0.00  0.00    +0.000 C 
ATOM      7  C   UNL     1     145.749 115.022 112.186  0.00  0.00    +0.000 C 
BRANCH   6   8
ATOM      8  C   UNL     1     143.485 116.535 111.943  0.00  0.00    +0.000 C 
BRANCH   8   9
ATOM      9  C   UNL     1     142.414 117.259 111.835  0.00  0.00    +0.000 C 
ATOM     10  C   UNL     1     142.529 118.735 111.605  0.00  0.00    +0.000 C 
BRANCH   9  12
ATOM     11  C   UNL     1     140.059 116.114 111.750  0.00  0.00    +0.000 C 
ATOM     12  C   UNL     1     141.144 116.631 111.781  0.00  0.00    +0.000 C 
BRANCH  11  16
ATOM     13  O   UNL     1     136.774 113.135 109.663  0.00  0.00    +0.000 OA
ATOM     14  C   UNL     1     137.762 115.864 112.868  0.00  0.00    +0.000 C 
ATOM     15  C   UNL     1     136.551 115.113 112.584  0.00  0.00    +0.000 C 
ATOM     16  C   UNL     1     138.745 115.501 111.725  0.00  0.00    +0.000 C 
ATOM     17  C   UNL     1     136.090 114.222 111.620  0.00  0.00    +0.000 C 
ATOM     18  C   UNL     1     138.366 115.411 114.218  0.00  0.00    +0.000 C 
ATOM     19  C   UNL     1     137.470 117.381 112.833  0.00  0.00    +0.000 C 
ATOM     20  C   UNL     1     138.421 114.637 110.719  0.00  0.00    +0.000 C 
ATOM     21  C   UNL     1     137.074 113.913 110.559  0.00  0.00    +0.000 C 
ATOM     22  C   UNL     1     139.473 114.332 109.643  0.00  0.00    +0.000 C 
BRANCH  17  23
ATOM     23  O   UNL     1     134.837 113.671 111.650  0.00  0.00    +0.000 OA
ATOM     24  H   UNL     1     134.203 114.225 111.151  0.00  0.00    +0.000 HD
ENDBRANCH  17  23
ENDBRANCH  11  16
ENDBRANCH   9  12
ENDBRANCH   8   9
ENDBRANCH   6   8
ENDBRANCH   4   7
ENDBRANCH   3   4
ENDBRANCH   2   3
BRANCH   1  25
ATOM     25  C   UNL     1     150.383 115.115 116.580  0.00  0.00    +0.000 C 
BRANCH  25  26
ATOM     26  C   UNL     1     151.185 115.332 117.574  0.00  0.00    +0.000 C 
ATOM     27  C   UNL     1     152.606 115.733 117.313  0.00  0.00    +0.000 C 
BRANCH  26  29
ATOM     28  C   UNL     1     150.376 114.915 120.026  0.00  0.00    +0.000 C 
ATOM     29  C   UNL     1     150.746 115.107 118.900  0.00  0.00    +0.000 C 
BRANCH  28  30
ATOM     30  C   UNL     1     149.907 114.670 121.466  0.00  0.00    +0.000 C 
BRANCH  30  31
ATOM     31  C   UNL     1     149.511 114.454 122.681  0.00  0.00    +0.000 C 
ATOM     32  C   UNL     1     149.002 113.099 123.072  0.00  0.00    +0.000 C 
BRANCH  31  34
ATOM     33  C   UNL     1     149.873 116.276 124.528  0.00  0.00    +0.000 C 
ATOM     34  C   UNL     1     149.708 115.447 123.672  0.00  0.00    +0.000 C 
BRANCH  33  38
ATOM     35  O   UNL     1     148.420 118.442 128.678  0.00  0.00    +0.000 OA
ATOM     36  C   UNL     1     151.322 118.166 125.484  0.00  0.00    +0.000 C 
ATOM     37  C   UNL     1     151.250 119.036 126.645  0.00  0.00    +0.000 C 
ATOM     38  C   UNL     1     150.066 117.262 125.574  0.00  0.00    +0.000 C 
ATOM     39  C   UNL     1     150.405 119.244 127.731  0.00  0.00    +0.000 C 
ATOM     40  C   UNL     1     152.589 117.281 125.558  0.00  0.00    +0.000 C 
ATOM     41  C   UNL     1     151.262 119.002 124.187  0.00  0.00    +0.000 C 
ATOM     42  C   UNL     1     149.158 117.357 126.589  0.00  0.00    +0.000 C 
ATOM     43  C   UNL     1     149.228 118.348 127.762  0.00  0.00    +0.000 C 
ATOM     44  C   UNL     1     147.956 116.402 126.593  0.00  0.00    +0.000 C 
BRANCH  39  45
ATOM     45  O   UNL     1     150.640 120.190 128.691  0.00  0.00    +0.000 OA
ATOM     46  H   UNL     1     150.292 121.062 128.410  0.00  0.00    +0.000 HD
ENDBRANCH  39  45
ENDBRANCH  33  38
ENDBRANCH  31  34
ENDBRANCH  30  31
ENDBRANCH  28  30
ENDBRANCH  26  29
ENDBRANCH  25  26
ENDBRANCH   1  25
TORSDOF 16
ENDMDL
MODEL 4
REMARK VINA RESULT:      -6.7     16.834     21.167
REMARK  Name = 5281224_Astaxanthin.pdbqt.pdb
REMARK  16 active torsions:
REMARK  status: ('A' for Active; 'I' for Inactive)
REMARK    1  A    between atoms: C_1  and  C_5
REMARK    2  A    between atoms: C_2  and  C_27
REMARK    3  A    between atoms: C_3  and  C_5
REMARK    4  A    between atoms: C_3  and  C_7
REMARK    5  A    between atoms: C_6  and  C_10
REMARK    6  A    between atoms: C_8  and  C_10
REMARK    7  A    between atoms: C_8  and  C_12
REMARK    8  A    between atoms: C_11  and  C_16
REMARK    9  A    between atoms: C_17  and  O_23
REMARK   10  A    between atoms: C_25  and  C_27
REMARK   11  A    between atoms: C_25  and  C_29
REMARK   12  A    between atoms: C_28  and  C_32
REMARK   13  A    between atoms: C_30  and  C_32
REMARK   14  A    between atoms: C_30  and  C_34
REMARK   15  A    between atoms: C_33  and  C_38
REMARK   16  A    between atoms: C_39  and  O_45
REMARK                            x       y       z     vdW  Elec       q    Type
REMARK                         _______ _______ _______ _____ _____    ______ ____
ROOT
ATOM      1  C   UNL     1     150.466 114.957 116.488  0.00  0.00    +0.000 C 
ATOM      2  C   UNL     1     149.808 114.653 115.532  0.00  0.00    +0.000 C 
ENDROOT
BRANCH   2   3
ATOM      3  C   UNL     1     148.964 114.258 114.313  0.00  0.00    +0.000 C 
BRANCH   3   4
ATOM      4  C   UNL     1     148.255 113.919 113.283  0.00  0.00    +0.000 C 
ATOM      5  C   UNL     1     148.823 114.066 111.904  0.00  0.00    +0.000 C 
BRANCH   4   7
ATOM      6  C   UNL     1     145.783 113.123 113.600  0.00  0.00    +0.000 C 
ATOM      7  C   UNL     1     146.918 113.487 113.455  0.00  0.00    +0.000 C 
BRANCH   6   8
ATOM      8  C   UNL     1     144.333 112.662 113.782  0.00  0.00    +0.000 C 
BRANCH   8   9
ATOM      9  C   UNL     1     143.108 112.266 113.942  0.00  0.00    +0.000 C 
ATOM     10  C   UNL     1     142.827 110.853 114.354  0.00  0.00    +0.000 C 
BRANCH   9  12
ATOM     11  C   UNL     1     141.145 113.997 113.838  0.00  0.00    +0.000 C 
ATOM     12  C   UNL     1     142.051 113.207 113.876  0.00  0.00    +0.000 C 
BRANCH  11  16
ATOM     13  O   UNL     1     138.619 117.538 111.578  0.00  0.00    +0.000 OA
ATOM     14  C   UNL     1     139.087 114.970 115.025  0.00  0.00    +0.000 C 
ATOM     15  C   UNL     1     138.103 115.992 114.715  0.00  0.00    +0.000 C 
ATOM     16  C   UNL     1     140.045 114.941 113.806  0.00  0.00    +0.000 C 
ATOM     17  C   UNL     1     137.827 116.881 113.680  0.00  0.00    +0.000 C 
ATOM     18  C   UNL     1     138.400 113.591 115.161  0.00  0.00    +0.000 C 
ATOM     19  C   UNL     1     139.880 115.360 116.292  0.00  0.00    +0.000 C 
ATOM     20  C   UNL     1     139.885 115.757 112.722  0.00  0.00    +0.000 C 
ATOM     21  C   UNL     1     138.772 116.803 112.545  0.00  0.00    +0.000 C 
ATOM     22  C   UNL     1     140.880 115.638 111.559  0.00  0.00    +0.000 C 
BRANCH  17  23
ATOM     23  O   UNL     1     136.769 117.750 113.704  0.00  0.00    +0.000 OA
ATOM     24  H   UNL     1     137.051 118.647 113.434  0.00  0.00    +0.000 HD
ENDBRANCH  17  23
ENDBRANCH  11  16
ENDBRANCH   9  12
ENDBRANCH   8   9
ENDBRANCH   6   8
ENDBRANCH   4   7
ENDBRANCH   3   4
ENDBRANCH   2   3
BRANCH   1  25
ATOM     25  C   UNL     1     151.304 115.336 117.715  0.00  0.00    +0.000 C 
BRANCH  25  26
ATOM     26  C   UNL     1     152.017 115.653 118.750  0.00  0.00    +0.000 C 
ATOM     27  C   UNL     1     153.420 116.148 118.567  0.00  0.00    +0.000 C 
BRANCH  26  29
ATOM     28  C   UNL     1     151.067 115.276 121.158  0.00  0.00    +0.000 C 
ATOM     29  C   UNL     1     151.503 115.450 120.052  0.00  0.00    +0.000 C 
BRANCH  28  30
ATOM     30  C   UNL     1     150.512 115.049 122.570  0.00  0.00    +0.000 C 
BRANCH  30  31
ATOM     31  C   UNL     1     150.036 114.863 123.760  0.00  0.00    +0.000 C 
ATOM     32  C   UNL     1     149.681 113.480 124.216  0.00  0.00    +0.000 C 
BRANCH  31  34
ATOM     33  C   UNL     1     149.981 116.842 125.476  0.00  0.00    +0.000 C 
ATOM     34  C   UNL     1     150.002 115.941 124.680  0.00  0.00    +0.000 C 
BRANCH  33  38
ATOM     35  O   UNL     1     147.853 119.155 129.237  0.00  0.00    +0.000 OA
ATOM     36  C   UNL     1     151.132 118.930 126.426  0.00  0.00    +0.000 C 
ATOM     37  C   UNL     1     150.843 119.872 127.495  0.00  0.00    +0.000 C 
ATOM     38  C   UNL     1     149.959 117.916 126.450  0.00  0.00    +0.000 C 
ATOM     39  C   UNL     1     149.858 120.076 128.456  0.00  0.00    +0.000 C 
ATOM     40  C   UNL     1     152.454 118.182 126.718  0.00  0.00    +0.000 C 
ATOM     41  C   UNL     1     151.154 119.659 125.065  0.00  0.00    +0.000 C 
ATOM     42  C   UNL     1     148.930 117.996 127.344  0.00  0.00    +0.000 C 
ATOM     43  C   UNL     1     148.770 119.073 128.430  0.00  0.00    +0.000 C 
ATOM     44  C   UNL     1     147.825 116.932 127.293  0.00  0.00    +0.000 C 
BRANCH  39  45
ATOM     45  O   UNL     1     149.892 121.109 129.353  0.00  0.00    +0.000 OA
ATOM     46  H   UNL     1     150.763 121.153 129.798  0.00  0.00    +0.000 HD
ENDBRANCH  39  45
ENDBRANCH  33  38
ENDBRANCH  31  34
ENDBRANCH  30  31
ENDBRANCH  28  30
ENDBRANCH  26  29
ENDBRANCH  25  26
ENDBRANCH   1  25
TORSDOF 16
ENDMDL
MODEL 5
REMARK VINA RESULT:      -6.7     18.574     23.438
REMARK  Name = 5281224_Astaxanthin.pdbqt.pdb
REMARK  16 active torsions:
REMARK  status: ('A' for Active; 'I' for Inactive)
REMARK    1  A    between atoms: C_1  and  C_5
REMARK    2  A    between atoms: C_2  and  C_27
REMARK    3  A    between atoms: C_3  and  C_5
REMARK    4  A    between atoms: C_3  and  C_7
REMARK    5  A    between atoms: C_6  and  C_10
REMARK    6  A    between atoms: C_8  and  C_10
REMARK    7  A    between atoms: C_8  and  C_12
REMARK    8  A    between atoms: C_11  and  C_16
REMARK    9  A    between atoms: C_17  and  O_23
REMARK   10  A    between atoms: C_25  and  C_27
REMARK   11  A    between atoms: C_25  and  C_29
REMARK   12  A    between atoms: C_28  and  C_32
REMARK   13  A    between atoms: C_30  and  C_32
REMARK   14  A    between atoms: C_30  and  C_34
REMARK   15  A    between atoms: C_33  and  C_38
REMARK   16  A    between atoms: C_39  and  O_45
REMARK                            x       y       z     vdW  Elec       q    Type
REMARK                         _______ _______ _______ _____ _____    ______ ____
ROOT
ATOM      1  C   UNL     1     129.745 127.757 140.722  0.00  0.00    +0.000 C 
ATOM      2  C   UNL     1     130.303 128.646 141.303  0.00  0.00    +0.000 C 
ENDROOT
BRANCH   2   3
ATOM      3  C   UNL     1     131.019 129.786 142.038  0.00  0.00    +0.000 C 
BRANCH   3   4
ATOM      4  C   UNL     1     131.629 130.746 142.659  0.00  0.00    +0.000 C 
ATOM      5  C   UNL     1     131.823 130.671 144.144  0.00  0.00    +0.000 C 
BRANCH   4   7
ATOM      6  C   UNL     1     132.387 132.877 141.345  0.00  0.00    +0.000 C 
ATOM      7  C   UNL     1     132.041 131.899 141.950  0.00  0.00    +0.000 C 
BRANCH   6   8
ATOM      8  C   UNL     1     132.826 134.125 140.571  0.00  0.00    +0.000 C 
BRANCH   8   9
ATOM      9  C   UNL     1     133.192 135.186 139.920  0.00  0.00    +0.000 C 
ATOM     10  C   UNL     1     132.235 136.327 139.752  0.00  0.00    +0.000 C 
BRANCH   9  12
ATOM     11  C   UNL     1     135.676 135.452 139.131  0.00  0.00    +0.000 C 
ATOM     12  C   UNL     1     134.539 135.325 139.504  0.00  0.00    +0.000 C 
BRANCH  11  16
ATOM     13  O   UNL     1     138.920 135.893 135.484  0.00  0.00    +0.000 OA
ATOM     14  C   UNL     1     138.157 135.706 139.736  0.00  0.00    +0.000 C 
ATOM     15  C   UNL     1     139.393 135.857 138.987  0.00  0.00    +0.000 C 
ATOM     16  C   UNL     1     137.040 135.609 138.666  0.00  0.00    +0.000 C 
ATOM     17  C   UNL     1     139.792 135.930 137.656  0.00  0.00    +0.000 C 
ATOM     18  C   UNL     1     137.909 136.956 140.614  0.00  0.00    +0.000 C 
ATOM     19  C   UNL     1     138.191 134.403 140.564  0.00  0.00    +0.000 C 
ATOM     20  C   UNL     1     137.294 135.671 137.325  0.00  0.00    +0.000 C 
ATOM     21  C   UNL     1     138.681 135.835 136.683  0.00  0.00    +0.000 C 
ATOM     22  C   UNL     1     136.114 135.580 136.348  0.00  0.00    +0.000 C 
BRANCH  17  23
ATOM     23  O   UNL     1     141.098 136.082 137.275  0.00  0.00    +0.000 OA
ATOM     24  H   UNL     1     141.585 136.636 137.919  0.00  0.00    +0.000 HD
ENDBRANCH  17  23
ENDBRANCH  11  16
ENDBRANCH   9  12
ENDBRANCH   8   9
ENDBRANCH   6   8
ENDBRANCH   4   7
ENDBRANCH   3   4
ENDBRANCH   2   3
BRANCH   1  25
ATOM     25  C   UNL     1     129.037 126.623 139.971  0.00  0.00    +0.000 C 
BRANCH  25  26
ATOM     26  C   UNL     1     128.442 125.664 139.333  0.00  0.00    +0.000 C 
ATOM     27  C   UNL     1     126.954 125.698 139.151  0.00  0.00    +0.000 C 
BRANCH  26  29
ATOM     28  C   UNL     1     129.816 123.597 138.507  0.00  0.00    +0.000 C 
ATOM     29  C   UNL     1     129.184 124.545 138.887  0.00  0.00    +0.000 C 
BRANCH  28  30
ATOM     30  C   UNL     1     130.626 122.388 138.022  0.00  0.00    +0.000 C 
BRANCH  30  31
ATOM     31  C   UNL     1     131.306 121.368 137.605  0.00  0.00    +0.000 C 
ATOM     32  C   UNL     1     130.923 119.984 138.037  0.00  0.00    +0.000 C 
BRANCH  31  34
ATOM     33  C   UNL     1     133.174 121.705 135.798  0.00  0.00    +0.000 C 
ATOM     34  C   UNL     1     132.309 121.547 136.619  0.00  0.00    +0.000 C 
BRANCH  33  38
ATOM     35  O   UNL     1     136.613 124.523 133.737  0.00  0.00    +0.000 OA
ATOM     36  C   UNL     1     134.562 120.719 133.877  0.00  0.00    +0.000 C 
ATOM     37  C   UNL     1     135.636 121.202 133.026  0.00  0.00    +0.000 C 
ATOM     38  C   UNL     1     134.228 121.902 134.821  0.00  0.00    +0.000 C 
ATOM     39  C   UNL     1     136.381 122.366 132.860  0.00  0.00    +0.000 C 
ATOM     40  C   UNL     1     135.049 119.519 134.723  0.00  0.00    +0.000 C 
ATOM     41  C   UNL     1     133.321 120.374 133.025  0.00  0.00    +0.000 C 
ATOM     42  C   UNL     1     134.883 123.099 134.769  0.00  0.00    +0.000 C 
ATOM     43  C   UNL     1     136.017 123.455 133.793  0.00  0.00    +0.000 C 
ATOM     44  C   UNL     1     134.486 124.201 135.760  0.00  0.00    +0.000 C 
BRANCH  39  45
ATOM     45  O   UNL     1     137.367 122.494 131.921  0.00  0.00    +0.000 OA
ATOM     46  H   UNL     1     137.158 121.962 131.125  0.00  0.00    +0.000 HD
ENDBRANCH  39  45
ENDBRANCH  33  38
ENDBRANCH  31  34
ENDBRANCH  30  31
ENDBRANCH  28  30
ENDBRANCH  26  29
ENDBRANCH  25  26
ENDBRANCH   1  25
TORSDOF 16
ENDMDL
MODEL 6
REMARK VINA RESULT:      -6.7     17.401     25.093
REMARK  Name = 5281224_Astaxanthin.pdbqt.pdb
REMARK  16 active torsions:
REMARK  status: ('A' for Active; 'I' for Inactive)
REMARK    1  A    between atoms: C_1  and  C_5
REMARK    2  A    between atoms: C_2  and  C_27
REMARK    3  A    between atoms: C_3  and  C_5
REMARK    4  A    between atoms: C_3  and  C_7
REMARK    5  A    between atoms: C_6  and  C_10
REMARK    6  A    between atoms: C_8  and  C_10
REMARK    7  A    between atoms: C_8  and  C_12
REMARK    8  A    between atoms: C_11  and  C_16
REMARK    9  A    between atoms: C_17  and  O_23
REMARK   10  A    between atoms: C_25  and  C_27
REMARK   11  A    between atoms: C_25  and  C_29
REMARK   12  A    between atoms: C_28  and  C_32
REMARK   13  A    between atoms: C_30  and  C_32
REMARK   14  A    between atoms: C_30  and  C_34
REMARK   15  A    between atoms: C_33  and  C_38
REMARK   16  A    between atoms: C_39  and  O_45
REMARK                            x       y       z     vdW  Elec       q    Type
REMARK                         _______ _______ _______ _____ _____    ______ ____
ROOT
ATOM      1  C   UNL     1     136.439 124.886 143.327  0.00  0.00    +0.000 C 
ATOM      2  C   UNL     1     137.203 125.380 144.109  0.00  0.00    +0.000 C 
ENDROOT
BRANCH   2   3
ATOM      3  C   UNL     1     138.182 126.018 145.103  0.00  0.00    +0.000 C 
BRANCH   3   4
ATOM      4  C   UNL     1     139.005 126.561 145.944  0.00  0.00    +0.000 C 
ATOM      5  C   UNL     1     138.589 127.773 146.721  0.00  0.00    +0.000 C 
BRANCH   4   7
ATOM      6  C   UNL     1     141.442 125.636 146.174  0.00  0.00    +0.000 C 
ATOM      7  C   UNL     1     140.323 126.059 146.069  0.00  0.00    +0.000 C 
BRANCH   6   8
ATOM      8  C   UNL     1     142.871 125.100 146.309  0.00  0.00    +0.000 C 
BRANCH   8   9
ATOM      9  C   UNL     1     144.080 124.644 146.430  0.00  0.00    +0.000 C 
ATOM     10  C   UNL     1     144.309 123.173 146.603  0.00  0.00    +0.000 C 
BRANCH   9  12
ATOM     11  C   UNL     1     146.107 126.270 146.101  0.00  0.00    +0.000 C 
ATOM     12  C   UNL     1     145.182 125.514 146.246  0.00  0.00    +0.000 C 
BRANCH  11  16
ATOM     13  O   UNL     1     150.498 127.381 144.228  0.00  0.00    +0.000 OA
ATOM     14  C   UNL     1     147.107 128.574 146.631  0.00  0.00    +0.000 C 
ATOM     15  C   UNL     1     148.335 129.270 146.289  0.00  0.00    +0.000 C 
ATOM     16  C   UNL     1     147.212 127.193 145.932  0.00  0.00    +0.000 C 
ATOM     17  C   UNL     1     149.489 129.028 145.551  0.00  0.00    +0.000 C 
ATOM     18  C   UNL     1     145.886 129.335 146.064  0.00  0.00    +0.000 C 
ATOM     19  C   UNL     1     147.016 128.371 148.160  0.00  0.00    +0.000 C 
ATOM     20  C   UNL     1     148.288 126.829 145.175  0.00  0.00    +0.000 C 
ATOM     21  C   UNL     1     149.529 127.696 144.906  0.00  0.00    +0.000 C 
ATOM     22  C   UNL     1     148.287 125.444 144.513  0.00  0.00    +0.000 C 
BRANCH  17  23
ATOM     23  O   UNL     1     150.501 129.941 145.425  0.00  0.00    +0.000 OA
ATOM     24  H   UNL     1     150.697 130.114 144.482  0.00  0.00    +0.000 HD
ENDBRANCH  17  23
ENDBRANCH  11  16
ENDBRANCH   9  12
ENDBRANCH   8   9
ENDBRANCH   6   8
ENDBRANCH   4   7
ENDBRANCH   3   4
ENDBRANCH   2   3
BRANCH   1  25
ATOM     25  C   UNL     1     135.469 124.259 142.319  0.00  0.00    +0.000 C 
BRANCH  25  26
ATOM     26  C   UNL     1     134.646 123.726 141.471  0.00  0.00    +0.000 C 
ATOM     27  C   UNL     1     133.191 123.609 141.815  0.00  0.00    +0.000 C 
BRANCH  26  29
ATOM     28  C   UNL     1     135.544 122.711 139.235  0.00  0.00    +0.000 C 
ATOM     29  C   UNL     1     135.133 123.178 140.262  0.00  0.00    +0.000 C 
BRANCH  28  30
ATOM     30  C   UNL     1     136.067 122.111 137.923  0.00  0.00    +0.000 C 
BRANCH  30  31
ATOM     31  C   UNL     1     136.502 121.600 136.815  0.00  0.00    +0.000 C 
ATOM     32  C   UNL     1     136.015 120.254 136.370  0.00  0.00    +0.000 C 
BRANCH  31  34
ATOM     33  C   UNL     1     138.013 123.043 135.234  0.00  0.00    +0.000 C 
ATOM     34  C   UNL     1     137.312 122.379 135.951  0.00  0.00    +0.000 C 
BRANCH  33  38
ATOM     35  O   UNL     1     138.689 125.804 131.242  0.00  0.00    +0.000 OA
ATOM     36  C   UNL     1     140.345 124.034 134.823  0.00  0.00    +0.000 C 
ATOM     37  C   UNL     1     140.944 124.873 133.799  0.00  0.00    +0.000 C 
ATOM     38  C   UNL     1     138.869 123.850 134.386  0.00  0.00    +0.000 C 
ATOM     39  C   UNL     1     140.557 125.502 132.620  0.00  0.00    +0.000 C 
ATOM     40  C   UNL     1     140.380 124.755 136.191  0.00  0.00    +0.000 C 
ATOM     41  C   UNL     1     141.046 122.658 134.863  0.00  0.00    +0.000 C 
ATOM     42  C   UNL     1     138.357 124.415 133.253  0.00  0.00    +0.000 C 
ATOM     43  C   UNL     1     139.137 125.292 132.260  0.00  0.00    +0.000 C 
ATOM     44  C   UNL     1     136.877 124.183 132.918  0.00  0.00    +0.000 C 
BRANCH  39  45
ATOM     45  O   UNL     1     141.410 126.254 131.860  0.00  0.00    +0.000 OA
ATOM     46  H   UNL     1     141.348 127.201 132.103  0.00  0.00    +0.000 HD
ENDBRANCH  39  45
ENDBRANCH  33  38
ENDBRANCH  31  34
ENDBRANCH  30  31
ENDBRANCH  28  30
ENDBRANCH  26  29
ENDBRANCH  25  26
ENDBRANCH   1  25
TORSDOF 16
ENDMDL
MODEL 7
REMARK VINA RESULT:      -6.6      9.667     17.689
REMARK  Name = 5281224_Astaxanthin.pdbqt.pdb
REMARK  16 active torsions:
REMARK  status: ('A' for Active; 'I' for Inactive)
REMARK    1  A    between atoms: C_1  and  C_5
REMARK    2  A    between atoms: C_2  and  C_27
REMARK    3  A    between atoms: C_3  and  C_5
REMARK    4  A    between atoms: C_3  and  C_7
REMARK    5  A    between atoms: C_6  and  C_10
REMARK    6  A    between atoms: C_8  and  C_10
REMARK    7  A    between atoms: C_8  and  C_12
REMARK    8  A    between atoms: C_11  and  C_16
REMARK    9  A    between atoms: C_17  and  O_23
REMARK   10  A    between atoms: C_25  and  C_27
REMARK   11  A    between atoms: C_25  and  C_29
REMARK   12  A    between atoms: C_28  and  C_32
REMARK   13  A    between atoms: C_30  and  C_32
REMARK   14  A    between atoms: C_30  and  C_34
REMARK   15  A    between atoms: C_33  and  C_38
REMARK   16  A    between atoms: C_39  and  O_45
REMARK                            x       y       z     vdW  Elec       q    Type
REMARK                         _______ _______ _______ _____ _____    ______ ____
ROOT
ATOM      1  C   UNL     1     146.725 141.441 133.309  0.00  0.00    +0.000 C 
ATOM      2  C   UNL     1     145.722 141.735 133.899  0.00  0.00    +0.000 C 
ENDROOT
BRANCH   2   3
ATOM      3  C   UNL     1     144.437 142.104 134.650  0.00  0.00    +0.000 C 
BRANCH   3   4
ATOM      4  C   UNL     1     143.348 142.418 135.279  0.00  0.00    +0.000 C 
ATOM      5  C   UNL     1     142.748 143.780 135.102  0.00  0.00    +0.000 C 
BRANCH   4   7
ATOM      6  C   UNL     1     142.282 140.732 136.971  0.00  0.00    +0.000 C 
ATOM      7  C   UNL     1     142.771 141.504 136.193  0.00  0.00    +0.000 C 
BRANCH   6   8
ATOM      8  C   UNL     1     141.656 139.748 137.967  0.00  0.00    +0.000 C 
BRANCH   8   9
ATOM      9  C   UNL     1     141.135 138.915 138.813  0.00  0.00    +0.000 C 
ATOM     10  C   UNL     1     141.044 139.280 140.263  0.00  0.00    +0.000 C 
BRANCH   9  12
ATOM     11  C   UNL     1     140.000 136.713 137.960  0.00  0.00    +0.000 C 
ATOM     12  C   UNL     1     140.516 137.730 138.342  0.00  0.00    +0.000 C 
BRANCH  11  16
ATOM     13  O   UNL     1     137.756 134.072 134.494  0.00  0.00    +0.000 OA
ATOM     14  C   UNL     1     139.339 134.295 138.512  0.00  0.00    +0.000 C 
ATOM     15  C   UNL     1     138.682 133.215 137.796  0.00  0.00    +0.000 C 
ATOM     16  C   UNL     1     139.386 135.479 137.511  0.00  0.00    +0.000 C 
ATOM     17  C   UNL     1     138.129 132.994 136.538  0.00  0.00    +0.000 C 
ATOM     18  C   UNL     1     140.784 133.888 138.882  0.00  0.00    +0.000 C 
ATOM     19  C   UNL     1     138.506 134.700 139.748  0.00  0.00    +0.000 C 
ATOM     20  C   UNL     1     138.884 135.395 136.244  0.00  0.00    +0.000 C 
ATOM     21  C   UNL     1     138.208 134.159 135.628  0.00  0.00    +0.000 C 
ATOM     22  C   UNL     1     138.995 136.620 135.325  0.00  0.00    +0.000 C 
BRANCH  17  23
ATOM     23  O   UNL     1     137.564 131.803 136.168  0.00  0.00    +0.000 OA
ATOM     24  H   UNL     1     137.220 131.852 135.254  0.00  0.00    +0.000 HD
ENDBRANCH  17  23
ENDBRANCH  11  16
ENDBRANCH   9  12
ENDBRANCH   8   9
ENDBRANCH   6   8
ENDBRANCH   4   7
ENDBRANCH   3   4
ENDBRANCH   2   3
BRANCH   1  25
ATOM     25  C   UNL     1     148.001 141.056 132.552  0.00  0.00    +0.000 C 
BRANCH  25  26
ATOM     26  C   UNL     1     149.078 140.727 131.909  0.00  0.00    +0.000 C 
ATOM     27  C   UNL     1     150.405 140.766 132.606  0.00  0.00    +0.000 C 
BRANCH  26  29
ATOM     28  C   UNL     1     148.956 140.149 129.361  0.00  0.00    +0.000 C 
ATOM     29  C   UNL     1     149.012 140.416 130.531  0.00  0.00    +0.000 C 
BRANCH  28  30
ATOM     30  C   UNL     1     148.885 139.805 127.867  0.00  0.00    +0.000 C 
BRANCH  30  31
ATOM     31  C   UNL     1     148.832 139.520 126.605  0.00  0.00    +0.000 C 
ATOM     32  C   UNL     1     148.629 140.613 125.599  0.00  0.00    +0.000 C 
BRANCH  31  34
ATOM     33  C   UNL     1     149.368 137.079 125.818  0.00  0.00    +0.000 C 
ATOM     34  C   UNL     1     149.123 138.203 126.168  0.00  0.00    +0.000 C 
BRANCH  33  38
ATOM     35  O   UNL     1     151.043 132.589 126.847  0.00  0.00    +0.000 OA
ATOM     36  C   UNL     1     149.355 135.320 123.950  0.00  0.00    +0.000 C 
ATOM     37  C   UNL     1     149.751 133.925 123.841  0.00  0.00    +0.000 C 
ATOM     38  C   UNL     1     149.667 135.718 125.415  0.00  0.00    +0.000 C 
ATOM     39  C   UNL     1     150.295 132.939 124.657  0.00  0.00    +0.000 C 
ATOM     40  C   UNL     1     147.835 135.464 123.699  0.00  0.00    +0.000 C 
ATOM     41  C   UNL     1     150.195 136.189 122.989  0.00  0.00    +0.000 C 
ATOM     42  C   UNL     1     150.199 134.847 126.322  0.00  0.00    +0.000 C 
ATOM     43  C   UNL     1     150.566 133.380 126.043  0.00  0.00    +0.000 C 
ATOM     44  C   UNL     1     150.456 135.338 127.753  0.00  0.00    +0.000 C 
BRANCH  39  45
ATOM     45  O   UNL     1     150.555 131.668 124.220  0.00  0.00    +0.000 OA
ATOM     46  H   UNL     1     150.882 131.109 124.955  0.00  0.00    +0.000 HD
ENDBRANCH  39  45
ENDBRANCH  33  38
ENDBRANCH  31  34
ENDBRANCH  30  31
ENDBRANCH  28  30
ENDBRANCH  26  29
ENDBRANCH  25  26
ENDBRANCH   1  25
TORSDOF 16
ENDMDL
MODEL 8
REMARK VINA RESULT:      -6.6     17.448     23.813
REMARK  Name = 5281224_Astaxanthin.pdbqt.pdb
REMARK  16 active torsions:
REMARK  status: ('A' for Active; 'I' for Inactive)
REMARK    1  A    between atoms: C_1  and  C_5
REMARK    2  A    between atoms: C_2  and  C_27
REMARK    3  A    between atoms: C_3  and  C_5
REMARK    4  A    between atoms: C_3  and  C_7
REMARK    5  A    between atoms: C_6  and  C_10
REMARK    6  A    between atoms: C_8  and  C_10
REMARK    7  A    between atoms: C_8  and  C_12
REMARK    8  A    between atoms: C_11  and  C_16
REMARK    9  A    between atoms: C_17  and  O_23
REMARK   10  A    between atoms: C_25  and  C_27
REMARK   11  A    between atoms: C_25  and  C_29
REMARK   12  A    between atoms: C_28  and  C_32
REMARK   13  A    between atoms: C_30  and  C_32
REMARK   14  A    between atoms: C_30  and  C_34
REMARK   15  A    between atoms: C_33  and  C_38
REMARK   16  A    between atoms: C_39  and  O_45
REMARK                            x       y       z     vdW  Elec       q    Type
REMARK                         _______ _______ _______ _____ _____    ______ ____
ROOT
ATOM      1  C   UNL     1     133.742 135.300 144.779  0.00  0.00    +0.000 C 
ATOM      2  C   UNL     1     134.739 135.718 144.260  0.00  0.00    +0.000 C 
ENDROOT
BRANCH   2   3
ATOM      3  C   UNL     1     136.010 136.255 143.588  0.00  0.00    +0.000 C 
BRANCH   3   4
ATOM      4  C   UNL     1     137.082 136.703 143.016  0.00  0.00    +0.000 C 
ATOM      5  C   UNL     1     137.674 138.009 143.456  0.00  0.00    +0.000 C 
BRANCH   4   7
ATOM      6  C   UNL     1     138.125 135.405 140.999  0.00  0.00    +0.000 C 
ATOM      7  C   UNL     1     137.648 136.002 141.925  0.00  0.00    +0.000 C 
BRANCH   6   8
ATOM      8  C   UNL     1     138.730 134.642 139.815  0.00  0.00    +0.000 C 
BRANCH   8   9
ATOM      9  C   UNL     1     139.242 134.003 138.808  0.00  0.00    +0.000 C 
ATOM     10  C   UNL     1     140.438 133.124 139.012  0.00  0.00    +0.000 C 
BRANCH   9  12
ATOM     11  C   UNL     1     138.031 134.016 136.486  0.00  0.00    +0.000 C 
ATOM     12  C   UNL     1     138.580 134.019 137.556  0.00  0.00    +0.000 C 
BRANCH  11  16
ATOM     13  O   UNL     1     137.018 131.781 132.243  0.00  0.00    +0.000 OA
ATOM     14  C   UNL     1     136.539 135.240 134.793  0.00  0.00    +0.000 C 
ATOM     15  C   UNL     1     136.019 134.942 133.470  0.00  0.00    +0.000 C 
ATOM     16  C   UNL     1     137.381 134.000 135.190  0.00  0.00    +0.000 C 
ATOM     17  C   UNL     1     136.083 133.907 132.543  0.00  0.00    +0.000 C 
ATOM     18  C   UNL     1     135.375 135.403 135.800  0.00  0.00    +0.000 C 
ATOM     19  C   UNL     1     137.450 136.486 134.741  0.00  0.00    +0.000 C 
ATOM     20  C   UNL     1     137.524 132.913 134.375  0.00  0.00    +0.000 C 
ATOM     21  C   UNL     1     136.898 132.751 132.980  0.00  0.00    +0.000 C 
ATOM     22  C   UNL     1     138.367 131.729 134.868  0.00  0.00    +0.000 C 
BRANCH  17  23
ATOM     23  O   UNL     1     135.444 133.946 131.333  0.00  0.00    +0.000 OA
ATOM     24  H   UNL     1     134.476 133.858 131.449  0.00  0.00    +0.000 HD
ENDBRANCH  17  23
ENDBRANCH  11  16
ENDBRANCH   9  12
ENDBRANCH   8   9
ENDBRANCH   6   8
ENDBRANCH   4   7
ENDBRANCH   3   4
ENDBRANCH   2   3
BRANCH   1  25
ATOM     25  C   UNL     1     132.462 134.767 145.434  0.00  0.00    +0.000 C 
BRANCH  25  26
ATOM     26  C   UNL     1     131.378 134.315 145.983  0.00  0.00    +0.000 C 
ATOM     27  C   UNL     1     130.505 135.237 146.780  0.00  0.00    +0.000 C 
BRANCH  26  29
ATOM     28  C   UNL     1     130.802 131.768 145.837  0.00  0.00    +0.000 C 
ATOM     29  C   UNL     1     131.066 132.938 145.903  0.00  0.00    +0.000 C 
BRANCH  28  30
ATOM     30  C   UNL     1     130.470 130.273 145.754  0.00  0.00    +0.000 C 
BRANCH  30  31
ATOM     31  C   UNL     1     130.194 129.009 145.677  0.00  0.00    +0.000 C 
ATOM     32  C   UNL     1     128.793 128.533 145.916  0.00  0.00    +0.000 C 
BRANCH  31  34
ATOM     33  C   UNL     1     131.999 127.319 144.810  0.00  0.00    +0.000 C 
ATOM     34  C   UNL     1     131.179 128.102 145.213  0.00  0.00    +0.000 C 
BRANCH  33  38
ATOM     35  O   UNL     1     133.126 123.313 142.222  0.00  0.00    +0.000 OA
ATOM     36  C   UNL     1     134.455 126.576 144.729  0.00  0.00    +0.000 C 
ATOM     37  C   UNL     1     135.184 125.486 144.103  0.00  0.00    +0.000 C 
ATOM     38  C   UNL     1     132.974 126.363 144.321  0.00  0.00    +0.000 C 
ATOM     39  C   UNL     1     134.908 124.388 143.293  0.00  0.00    +0.000 C 
ATOM     40  C   UNL     1     134.943 127.934 144.173  0.00  0.00    +0.000 C 
ATOM     41  C   UNL     1     134.582 126.489 146.266  0.00  0.00    +0.000 C 
ATOM     42  C   UNL     1     132.567 125.330 143.527  0.00  0.00    +0.000 C 
ATOM     43  C   UNL     1     133.480 124.243 142.935  0.00  0.00    +0.000 C 
ATOM     44  C   UNL     1     131.079 125.219 143.168  0.00  0.00    +0.000 C 
BRANCH  39  45
ATOM     45  O   UNL     1     135.872 123.519 142.860  0.00  0.00    +0.000 OA
ATOM     46  H   UNL     1     135.493 122.861 142.241  0.00  0.00    +0.000 HD
ENDBRANCH  39  45
ENDBRANCH  33  38
ENDBRANCH  31  34
ENDBRANCH  30  31
ENDBRANCH  28  30
ENDBRANCH  26  29
ENDBRANCH  25  26
ENDBRANCH   1  25
TORSDOF 16
ENDMDL
MODEL 9
REMARK VINA RESULT:      -6.5      2.982      4.966
REMARK  Name = 5281224_Astaxanthin.pdbqt.pdb
REMARK  16 active torsions:
REMARK  status: ('A' for Active; 'I' for Inactive)
REMARK    1  A    between atoms: C_1  and  C_5
REMARK    2  A    between atoms: C_2  and  C_27
REMARK    3  A    between atoms: C_3  and  C_5
REMARK    4  A    between atoms: C_3  and  C_7
REMARK    5  A    between atoms: C_6  and  C_10
REMARK    6  A    between atoms: C_8  and  C_10
REMARK    7  A    between atoms: C_8  and  C_12
REMARK    8  A    between atoms: C_11  and  C_16
REMARK    9  A    between atoms: C_17  and  O_23
REMARK   10  A    between atoms: C_25  and  C_27
REMARK   11  A    between atoms: C_25  and  C_29
REMARK   12  A    between atoms: C_28  and  C_32
REMARK   13  A    between atoms: C_30  and  C_32
REMARK   14  A    between atoms: C_30  and  C_34
REMARK   15  A    between atoms: C_33  and  C_38
REMARK   16  A    between atoms: C_39  and  O_45
REMARK                            x       y       z     vdW  Elec       q    Type
REMARK                         _______ _______ _______ _____ _____    ______ ____
ROOT
ATOM      1  C   UNL     1     150.164 134.566 125.493  0.00  0.00    +0.000 C 
ATOM      2  C   UNL     1     150.185 135.602 124.887  0.00  0.00    +0.000 C 
ENDROOT
BRANCH   2   3
ATOM      3  C   UNL     1     150.204 136.923 124.109  0.00  0.00    +0.000 C 
BRANCH   3   4
ATOM      4  C   UNL     1     150.227 138.040 123.452  0.00  0.00    +0.000 C 
ATOM      5  C   UNL     1     149.717 139.295 124.094  0.00  0.00    +0.000 C 
BRANCH   4   7
ATOM      6  C   UNL     1     151.021 138.073 120.960  0.00  0.00    +0.000 C 
ATOM      7  C   UNL     1     150.658 138.060 122.104  0.00  0.00    +0.000 C 
BRANCH   6   8
ATOM      8  C   UNL     1     151.484 138.087 119.499  0.00  0.00    +0.000 C 
BRANCH   8   9
ATOM      9  C   UNL     1     151.872 138.107 118.261  0.00  0.00    +0.000 C 
ATOM     10  C   UNL     1     150.913 138.511 117.183  0.00  0.00    +0.000 C 
BRANCH   9  12
ATOM     11  C   UNL     1     154.402 137.714 117.707  0.00  0.00    +0.000 C 
ATOM     12  C   UNL     1     153.238 137.895 117.950  0.00  0.00    +0.000 C 
BRANCH  11  16
ATOM     13  O   UNL     1     157.967 135.468 115.203  0.00  0.00    +0.000 OA
ATOM     14  C   UNL     1     156.837 138.309 118.261  0.00  0.00    +0.000 C 
ATOM     15  C   UNL     1     158.139 137.889 117.773  0.00  0.00    +0.000 C 
ATOM     16  C   UNL     1     155.809 137.496 117.432  0.00  0.00    +0.000 C 
ATOM     17  C   UNL     1     158.654 137.010 116.826  0.00  0.00    +0.000 C 
ATOM     18  C   UNL     1     156.626 139.817 117.987  0.00  0.00    +0.000 C 
ATOM     19  C   UNL     1     156.687 137.956 119.757  0.00  0.00    +0.000 C 
ATOM     20  C   UNL     1     156.179 136.602 116.468  0.00  0.00    +0.000 C 
ATOM     21  C   UNL     1     157.624 136.266 116.066  0.00  0.00    +0.000 C 
ATOM     22  C   UNL     1     155.082 135.858 115.694  0.00  0.00    +0.000 C 
BRANCH  17  23
ATOM     23  O   UNL     1     159.996 136.848 116.607  0.00  0.00    +0.000 OA
ATOM     24  H   UNL     1     160.245 135.903 116.666  0.00  0.00    +0.000 HD
ENDBRANCH  17  23
ENDBRANCH  11  16
ENDBRANCH   9  12
ENDBRANCH   8   9
ENDBRANCH   6   8
ENDBRANCH   4   7
ENDBRANCH   3   4
ENDBRANCH   2   3
BRANCH   1  25
ATOM     25  C   UNL     1     150.130 133.240 126.261  0.00  0.00    +0.000 C 
BRANCH  25  26
ATOM     26  C   UNL     1     150.101 132.121 126.915  0.00  0.00    +0.000 C 
ATOM     27  C   UNL     1     151.384 131.448 127.300  0.00  0.00    +0.000 C 
BRANCH  26  29
ATOM     28  C   UNL     1     147.813 130.958 127.418  0.00  0.00    +0.000 C 
ATOM     29  C   UNL     1     148.863 131.493 127.188  0.00  0.00    +0.000 C 
BRANCH  28  30
ATOM     30  C   UNL     1     146.472 130.272 127.710  0.00  0.00    +0.000 C 
BRANCH  30  31
ATOM     31  C   UNL     1     145.336 129.697 127.949  0.00  0.00    +0.000 C 
ATOM     32  C   UNL     1     144.662 129.895 129.273  0.00  0.00    +0.000 C 
BRANCH  31  34
ATOM     33  C   UNL     1     144.092 128.451 126.008  0.00  0.00    +0.000 C 
ATOM     34  C   UNL     1     144.659 129.015 126.907  0.00  0.00    +0.000 C 
BRANCH  33  38
ATOM     35  O   UNL     1     141.694 128.622 121.737  0.00  0.00    +0.000 OA
ATOM     36  C   UNL     1     143.307 126.241 124.967  0.00  0.00    +0.000 C 
ATOM     37  C   UNL     1     142.589 125.865 123.761  0.00  0.00    +0.000 C 
ATOM     38  C   UNL     1     143.412 127.787 124.914  0.00  0.00    +0.000 C 
ATOM     39  C   UNL     1     142.019 126.495 122.658  0.00  0.00    +0.000 C 
ATOM     40  C   UNL     1     144.730 125.636 124.951  0.00  0.00    +0.000 C 
ATOM     41  C   UNL     1     142.502 125.823 126.218  0.00  0.00    +0.000 C 
ATOM     42  C   UNL     1     142.900 128.528 123.887  0.00  0.00    +0.000 C 
ATOM     43  C   UNL     1     142.157 127.968 122.664  0.00  0.00    +0.000 C 
ATOM     44  C   UNL     1     143.072 130.053 123.923  0.00  0.00    +0.000 C 
BRANCH  39  45
ATOM     45  O   UNL     1     141.390 125.813 121.652  0.00  0.00    +0.000 OA
ATOM     46  H   UNL     1     140.645 125.284 122.005  0.00  0.00    +0.000 HD
ENDBRANCH  39  45
ENDBRANCH  33  38
ENDBRANCH  31  34
ENDBRANCH  30  31
ENDBRANCH  28  30
ENDBRANCH  26  29
ENDBRANCH  25  26
ENDBRANCH   1  25
TORSDOF 16
ENDMDL
