MODEL 1
REMARK VINA RESULT:      -7.4      0.000      0.000
REMARK  Name = 5281698_sexangularetin.pdbqt.pdb
REMARK  6 active torsions:
REMARK  status: ('A' for Active; 'I' for Inactive)
REMARK    1  A    between atoms: C_5  and  C_12
REMARK    2  A    between atoms: C_6  and  O_20
REMARK    3  A    between atoms: C_8  and  O_22
REMARK    4  A    between atoms: C_9  and  O_24
REMARK    5  A    between atoms: C_10  and  O_26
REMARK    6  A    between atoms: C_17  and  O_18
REMARK                            x       y       z     vdW  Elec       q    Type
REMARK                         _______ _______ _______ _____ _____    ______ ____
ROOT
ATOM      1  O   UNL     1     138.332 123.342 135.441  0.00  0.00    +0.000 OA
ATOM      2  O   UNL     1     137.703 122.971 131.456  0.00  0.00    +0.000 OA
ATOM      3  C   UNL     1     136.822 122.785 133.631  0.00  0.00    +0.000 A 
ATOM      4  C   UNL     1     137.106 122.922 134.989  0.00  0.00    +0.000 A 
ATOM      5  C   UNL     1     139.355 123.589 134.533  0.00  0.00    +0.000 A 
ATOM      6  C   UNL     1     136.109 122.643 135.934  0.00  0.00    +0.000 A 
ATOM      7  C   UNL     1     137.887 123.069 132.667  0.00  0.00    +0.000 A 
ATOM      8  C   UNL     1     139.203 123.486 133.199  0.00  0.00    +0.000 A 
ATOM      9  C   UNL     1     135.545 122.396 133.211  0.00  0.00    +0.000 A 
ATOM     10  C   UNL     1     134.824 122.294 135.504  0.00  0.00    +0.000 A 
ATOM     11  C   UNL     1     134.544 122.159 134.147  0.00  0.00    +0.000 A 
ENDROOT
BRANCH   5  12
ATOM     12  C   UNL     1     140.616 123.997 135.185  0.00  0.00    +0.000 A 
ATOM     13  C   UNL     1     140.675 125.209 135.884  0.00  0.00    +0.000 A 
ATOM     14  C   UNL     1     141.748 123.175 135.189  0.00  0.00    +0.000 A 
ATOM     15  C   UNL     1     141.835 125.603 136.546  0.00  0.00    +0.000 A 
ATOM     16  C   UNL     1     142.915 123.559 135.846  0.00  0.00    +0.000 A 
ATOM     17  C   UNL     1     142.948 124.772 136.521  0.00  0.00    +0.000 A 
BRANCH  17  18
ATOM     18  O   UNL     1     144.100 125.129 137.160  0.00  0.00    +0.000 OA
ATOM     19  H   UNL     1     143.991 124.940 138.109  0.00  0.00    +0.000 HD
ENDBRANCH  17  18
ENDBRANCH   5  12
BRANCH   6  20
ATOM     20  O   UNL     1     136.340 122.796 137.280  0.00  0.00    +0.000 OA
ATOM     21  C   UNL     1     136.877 121.619 137.839  0.00  0.00    +0.000 C 
ENDBRANCH   6  20
BRANCH   8  22
ATOM     22  O   UNL     1     140.193 123.764 132.275  0.00  0.00    +0.000 OA
ATOM     23  H   UNL     1     140.436 124.702 132.422  0.00  0.00    +0.000 HD
ENDBRANCH   8  22
BRANCH   9  24
ATOM     24  O   UNL     1     135.201 122.247 131.895  0.00  0.00    +0.000 OA
ATOM     25  H   UNL     1     134.739 123.061 131.592  0.00  0.00    +0.000 HD
ENDBRANCH   9  24
BRANCH  10  26
ATOM     26  O   UNL     1     133.829 122.101 136.419  0.00  0.00    +0.000 OA
ATOM     27  H   UNL     1     133.378 121.260 136.216  0.00  0.00    +0.000 HD
ENDBRANCH  10  26
TORSDOF 6
ENDMDL
MODEL 2
REMARK VINA RESULT:      -6.8     33.720     36.072
REMARK  Name = 5281698_sexangularetin.pdbqt.pdb
REMARK  6 active torsions:
REMARK  status: ('A' for Active; 'I' for Inactive)
REMARK    1  A    between atoms: C_5  and  C_12
REMARK    2  A    between atoms: C_6  and  O_20
REMARK    3  A    between atoms: C_8  and  O_22
REMARK    4  A    between atoms: C_9  and  O_24
REMARK    5  A    between atoms: C_10  and  O_26
REMARK    6  A    between atoms: C_17  and  O_18
REMARK                            x       y       z     vdW  Elec       q    Type
REMARK                         _______ _______ _______ _____ _____    ______ ____
ROOT
ATOM      1  O   UNL     1     143.655 126.784  99.757  0.00  0.00    +0.000 OA
ATOM      2  O   UNL     1     146.755 124.919 101.582  0.00  0.00    +0.000 OA
ATOM      3  C   UNL     1     146.038 126.666 100.177  0.00  0.00    +0.000 A 
ATOM      4  C   UNL     1     144.930 127.255  99.569  0.00  0.00    +0.000 A 
ATOM      5  C   UNL     1     143.447 125.648 100.531  0.00  0.00    +0.000 A 
ATOM      6  C   UNL     1     145.108 128.379  98.750  0.00  0.00    +0.000 A 
ATOM      7  C   UNL     1     145.823 125.485 101.014  0.00  0.00    +0.000 A 
ATOM      8  C   UNL     1     144.437 124.990 101.163  0.00  0.00    +0.000 A 
ATOM      9  C   UNL     1     147.316 127.205  99.993  0.00  0.00    +0.000 A 
ATOM     10  C   UNL     1     146.385 128.935  98.605  0.00  0.00    +0.000 A 
ATOM     11  C   UNL     1     147.489 128.345  99.214  0.00  0.00    +0.000 A 
ENDROOT
BRANCH   5  12
ATOM     12  C   UNL     1     142.025 125.254 100.602  0.00  0.00    +0.000 A 
ATOM     13  C   UNL     1     141.144 125.984 101.409  0.00  0.00    +0.000 A 
ATOM     14  C   UNL     1     141.505 124.209  99.832  0.00  0.00    +0.000 A 
ATOM     15  C   UNL     1     139.788 125.667 101.466  0.00  0.00    +0.000 A 
ATOM     16  C   UNL     1     140.152 123.880  99.881  0.00  0.00    +0.000 A 
ATOM     17  C   UNL     1     139.303 124.614 100.700  0.00  0.00    +0.000 A 
BRANCH  17  18
ATOM     18  O   UNL     1     137.981 124.278 100.733  0.00  0.00    +0.000 OA
ATOM     19  H   UNL     1     137.500 124.881 100.138  0.00  0.00    +0.000 HD
ENDBRANCH  17  18
ENDBRANCH   5  12
BRANCH   6  20
ATOM     20  O   UNL     1     144.040 129.007  98.158  0.00  0.00    +0.000 OA
ATOM     21  C   UNL     1     143.673 128.363  96.960  0.00  0.00    +0.000 C 
ENDBRANCH   6  20
BRANCH   8  22
ATOM     22  O   UNL     1     144.250 123.883 101.969  0.00  0.00    +0.000 OA
ATOM     23  H   UNL     1     143.294 123.870 102.185  0.00  0.00    +0.000 HD
ENDBRANCH   8  22
BRANCH   9  24
ATOM     24  O   UNL     1     148.442 126.677 100.564  0.00  0.00    +0.000 OA
ATOM     25  H   UNL     1     149.134 127.376 100.610  0.00  0.00    +0.000 HD
ENDBRANCH   9  24
BRANCH  10  26
ATOM     26  O   UNL     1     146.550 130.077  97.874  0.00  0.00    +0.000 OA
ATOM     27  H   UNL     1     147.046 129.859  97.062  0.00  0.00    +0.000 HD
ENDBRANCH  10  26
TORSDOF 6
ENDMDL
MODEL 3
REMARK VINA RESULT:      -6.8     33.700     35.996
REMARK  Name = 5281698_sexangularetin.pdbqt.pdb
REMARK  6 active torsions:
REMARK  status: ('A' for Active; 'I' for Inactive)
REMARK    1  A    between atoms: C_5  and  C_12
REMARK    2  A    between atoms: C_6  and  O_20
REMARK    3  A    between atoms: C_8  and  O_22
REMARK    4  A    between atoms: C_9  and  O_24
REMARK    5  A    between atoms: C_10  and  O_26
REMARK    6  A    between atoms: C_17  and  O_18
REMARK                            x       y       z     vdW  Elec       q    Type
REMARK                         _______ _______ _______ _____ _____    ______ ____
ROOT
ATOM      1  O   UNL     1     144.198 127.463 100.052  0.00  0.00    +0.000 OA
ATOM      2  O   UNL     1     142.500 124.636  97.697  0.00  0.00    +0.000 OA
ATOM      3  C   UNL     1     142.407 125.870  99.700  0.00  0.00    +0.000 A 
ATOM      4  C   UNL     1     143.047 126.842 100.468  0.00  0.00    +0.000 A 
ATOM      5  C   UNL     1     144.792 127.083  98.853  0.00  0.00    +0.000 A 
ATOM      6  C   UNL     1     142.496 127.221 101.700  0.00  0.00    +0.000 A 
ATOM      7  C   UNL     1     143.013 125.483  98.425  0.00  0.00    +0.000 A 
ATOM      8  C   UNL     1     144.272 126.153  98.030  0.00  0.00    +0.000 A 
ATOM      9  C   UNL     1     141.211 125.293 100.141  0.00  0.00    +0.000 A 
ATOM     10  C   UNL     1     141.279 126.668 102.114  0.00  0.00    +0.000 A 
ATOM     11  C   UNL     1     140.643 125.698 101.345  0.00  0.00    +0.000 A 
ENDROOT
BRANCH   5  12
ATOM     12  C   UNL     1     146.040 127.822  98.572  0.00  0.00    +0.000 A 
ATOM     13  C   UNL     1     145.975 129.102  98.009  0.00  0.00    +0.000 A 
ATOM     14  C   UNL     1     147.296 127.312  98.913  0.00  0.00    +0.000 A 
ATOM     15  C   UNL     1     147.130 129.844  97.771  0.00  0.00    +0.000 A 
ATOM     16  C   UNL     1     148.460 128.042  98.678  0.00  0.00    +0.000 A 
ATOM     17  C   UNL     1     148.366 129.306  98.108  0.00  0.00    +0.000 A 
BRANCH  17  18
ATOM     18  O   UNL     1     149.516 130.006  97.887  0.00  0.00    +0.000 OA
ATOM     19  H   UNL     1     149.636 130.631  98.623  0.00  0.00    +0.000 HD
ENDBRANCH  17  18
ENDBRANCH   5  12
BRANCH   6  20
ATOM     20  O   UNL     1     143.079 128.197 102.472  0.00  0.00    +0.000 OA
ATOM     21  C   UNL     1     144.113 127.664 103.267  0.00  0.00    +0.000 C 
ENDBRANCH   6  20
BRANCH   8  22
ATOM     22  O   UNL     1     144.823 125.788  96.817  0.00  0.00    +0.000 OA
ATOM     23  H   UNL     1     145.422 125.037  97.013  0.00  0.00    +0.000 HD
ENDBRANCH   8  22
BRANCH   9  24
ATOM     24  O   UNL     1     140.533 124.338  99.435  0.00  0.00    +0.000 OA
ATOM     25  H   UNL     1     139.632 124.238  99.817  0.00  0.00    +0.000 HD
ENDBRANCH   9  24
BRANCH  10  26
ATOM     26  O   UNL     1     140.698 127.094 103.275  0.00  0.00    +0.000 OA
ATOM     27  H   UNL     1     139.850 127.525 103.060  0.00  0.00    +0.000 HD
ENDBRANCH  10  26
TORSDOF 6
ENDMDL
MODEL 4
REMARK VINA RESULT:      -6.7     33.672     36.071
REMARK  Name = 5281698_sexangularetin.pdbqt.pdb
REMARK  6 active torsions:
REMARK  status: ('A' for Active; 'I' for Inactive)
REMARK    1  A    between atoms: C_5  and  C_12
REMARK    2  A    between atoms: C_6  and  O_20
REMARK    3  A    between atoms: C_8  and  O_22
REMARK    4  A    between atoms: C_9  and  O_24
REMARK    5  A    between atoms: C_10  and  O_26
REMARK    6  A    between atoms: C_17  and  O_18
REMARK                            x       y       z     vdW  Elec       q    Type
REMARK                         _______ _______ _______ _____ _____    ______ ____
ROOT
ATOM      1  O   UNL     1     144.577 127.877  99.607  0.00  0.00    +0.000 OA
ATOM      2  O   UNL     1     146.276 125.633 102.521  0.00  0.00    +0.000 OA
ATOM      3  C   UNL     1     144.329 126.659 101.686  0.00  0.00    +0.000 A 
ATOM      4  C   UNL     1     143.809 127.444 100.658  0.00  0.00    +0.000 A 
ATOM      5  C   UNL     1     145.935 127.583  99.578  0.00  0.00    +0.000 A 
ATOM      6  C   UNL     1     142.451 127.792 100.676  0.00  0.00    +0.000 A 
ATOM      7  C   UNL     1     145.754 126.323 101.649  0.00  0.00    +0.000 A 
ATOM      8  C   UNL     1     146.553 126.840 100.516  0.00  0.00    +0.000 A 
ATOM      9  C   UNL     1     143.500 126.200 102.716  0.00  0.00    +0.000 A 
ATOM     10  C   UNL     1     141.622 127.295 101.688  0.00  0.00    +0.000 A 
ATOM     11  C   UNL     1     142.145 126.512 102.713  0.00  0.00    +0.000 A 
ENDROOT
BRANCH   5  12
ATOM     12  C   UNL     1     146.622 128.154  98.402  0.00  0.00    +0.000 A 
ATOM     13  C   UNL     1     147.615 129.125  98.582  0.00  0.00    +0.000 A 
ATOM     14  C   UNL     1     146.362 127.708  97.102  0.00  0.00    +0.000 A 
ATOM     15  C   UNL     1     148.312 129.654  97.498  0.00  0.00    +0.000 A 
ATOM     16  C   UNL     1     147.051 128.230  96.009  0.00  0.00    +0.000 A 
ATOM     17  C   UNL     1     148.022 129.200  96.217  0.00  0.00    +0.000 A 
BRANCH  17  18
ATOM     18  O   UNL     1     148.687 129.697  95.134  0.00  0.00    +0.000 OA
ATOM     19  H   UNL     1     148.110 130.347  94.696  0.00  0.00    +0.000 HD
ENDBRANCH  17  18
ENDBRANCH   5  12
BRANCH   6  20
ATOM     20  O   UNL     1     141.892 128.537  99.666  0.00  0.00    +0.000 OA
ATOM     21  C   UNL     1     141.899 129.909  99.985  0.00  0.00    +0.000 C 
ENDBRANCH   6  20
BRANCH   8  22
ATOM     22  O   UNL     1     147.893 126.502 100.488  0.00  0.00    +0.000 OA
ATOM     23  H   UNL     1     147.928 125.540 100.676  0.00  0.00    +0.000 HD
ENDBRANCH   8  22
BRANCH   9  24
ATOM     24  O   UNL     1     143.948 125.426 103.750  0.00  0.00    +0.000 OA
ATOM     25  H   UNL     1     144.256 126.012 104.478  0.00  0.00    +0.000 HD
ENDBRANCH   9  24
BRANCH  10  26
ATOM     26  O   UNL     1     140.282 127.566 101.664  0.00  0.00    +0.000 OA
ATOM     27  H   UNL     1     140.037 127.849 100.764  0.00  0.00    +0.000 HD
ENDBRANCH  10  26
TORSDOF 6
ENDMDL
MODEL 5
REMARK VINA RESULT:      -6.7     32.314     35.084
REMARK  Name = 5281698_sexangularetin.pdbqt.pdb
REMARK  6 active torsions:
REMARK  status: ('A' for Active; 'I' for Inactive)
REMARK    1  A    between atoms: C_5  and  C_12
REMARK    2  A    between atoms: C_6  and  O_20
REMARK    3  A    between atoms: C_8  and  O_22
REMARK    4  A    between atoms: C_9  and  O_24
REMARK    5  A    between atoms: C_10  and  O_26
REMARK    6  A    between atoms: C_17  and  O_18
REMARK                            x       y       z     vdW  Elec       q    Type
REMARK                         _______ _______ _______ _____ _____    ______ ____
ROOT
ATOM      1  O   UNL     1     144.022 127.765 100.811  0.00  0.00    +0.000 OA
ATOM      2  O   UNL     1     141.634 126.140 103.653  0.00  0.00    +0.000 OA
ATOM      3  C   UNL     1     143.797 126.834 103.037  0.00  0.00    +0.000 A 
ATOM      4  C   UNL     1     144.565 127.388 102.014  0.00  0.00    +0.000 A 
ATOM      5  C   UNL     1     142.672 127.542 100.565  0.00  0.00    +0.000 A 
ATOM      6  C   UNL     1     145.938 127.591 102.214  0.00  0.00    +0.000 A 
ATOM      7  C   UNL     1     142.370 126.620 102.794  0.00  0.00    +0.000 A 
ATOM      8  C   UNL     1     141.830 127.009 101.471  0.00  0.00    +0.000 A 
ATOM      9  C   UNL     1     144.384 126.505 104.264  0.00  0.00    +0.000 A 
ATOM     10  C   UNL     1     146.508 127.296 103.458  0.00  0.00    +0.000 A 
ATOM     11  C   UNL     1     145.738 126.743 104.477  0.00  0.00    +0.000 A 
ENDROOT
BRANCH   5  12
ATOM     12  C   UNL     1     142.256 127.970  99.214  0.00  0.00    +0.000 A 
ATOM     13  C   UNL     1     141.844 129.291  99.002  0.00  0.00    +0.000 A 
ATOM     14  C   UNL     1     142.325 127.113  98.111  0.00  0.00    +0.000 A 
ATOM     15  C   UNL     1     141.486 129.740  97.732  0.00  0.00    +0.000 A 
ATOM     16  C   UNL     1     141.968 127.549  96.836  0.00  0.00    +0.000 A 
ATOM     17  C   UNL     1     141.551 128.862  96.657  0.00  0.00    +0.000 A 
BRANCH  17  18
ATOM     18  O   UNL     1     141.209 129.270  95.401  0.00  0.00    +0.000 OA
ATOM     19  H   UNL     1     140.611 130.034  95.483  0.00  0.00    +0.000 HD
ENDBRANCH  17  18
ENDBRANCH   5  12
BRANCH   6  20
ATOM     20  O   UNL     1     146.724 128.162 101.243  0.00  0.00    +0.000 OA
ATOM     21  C   UNL     1     147.280 127.182 100.398  0.00  0.00    +0.000 C 
ENDBRANCH   6  20
BRANCH   8  22
ATOM     22  O   UNL     1     140.478 126.814 101.264  0.00  0.00    +0.000 OA
ATOM     23  H   UNL     1     140.161 127.620 100.805  0.00  0.00    +0.000 HD
ENDBRANCH   8  22
BRANCH   9  24
ATOM     24  O   UNL     1     143.686 125.962 105.307  0.00  0.00    +0.000 OA
ATOM     25  H   UNL     1     144.034 126.330 106.150  0.00  0.00    +0.000 HD
ENDBRANCH   9  24
BRANCH  10  26
ATOM     26  O   UNL     1     147.828 127.567 103.683  0.00  0.00    +0.000 OA
ATOM     27  H   UNL     1     148.207 126.846 104.219  0.00  0.00    +0.000 HD
ENDBRANCH  10  26
TORSDOF 6
ENDMDL
MODEL 6
REMARK VINA RESULT:      -6.6      1.897      2.889
REMARK  Name = 5281698_sexangularetin.pdbqt.pdb
REMARK  6 active torsions:
REMARK  status: ('A' for Active; 'I' for Inactive)
REMARK    1  A    between atoms: C_5  and  C_12
REMARK    2  A    between atoms: C_6  and  O_20
REMARK    3  A    between atoms: C_8  and  O_22
REMARK    4  A    between atoms: C_9  and  O_24
REMARK    5  A    between atoms: C_10  and  O_26
REMARK    6  A    between atoms: C_17  and  O_18
REMARK                            x       y       z     vdW  Elec       q    Type
REMARK                         _______ _______ _______ _____ _____    ______ ____
ROOT
ATOM      1  O   UNL     1     136.097 122.919 135.048  0.00  0.00    +0.000 OA
ATOM      2  O   UNL     1     134.979 120.946 131.691  0.00  0.00    +0.000 OA
ATOM      3  C   UNL     1     134.529 121.436 133.948  0.00  0.00    +0.000 A 
ATOM      4  C   UNL     1     134.974 122.132 135.072  0.00  0.00    +0.000 A 
ATOM      5  C   UNL     1     136.863 122.993 133.889  0.00  0.00    +0.000 A 
ATOM      6  C   UNL     1     134.247 122.048 136.268  0.00  0.00    +0.000 A 
ATOM      7  C   UNL     1     135.316 121.530 132.718  0.00  0.00    +0.000 A 
ATOM      8  C   UNL     1     136.539 122.363 132.745  0.00  0.00    +0.000 A 
ATOM      9  C   UNL     1     133.353 120.680 134.004  0.00  0.00    +0.000 A 
ATOM     10  C   UNL     1     133.051 121.322 136.303  0.00  0.00    +0.000 A 
ATOM     11  C   UNL     1     132.610 120.629 135.179  0.00  0.00    +0.000 A 
ENDROOT
BRANCH   5  12
ATOM     12  C   UNL     1     138.055 123.852 134.043  0.00  0.00    +0.000 A 
ATOM     13  C   UNL     1     138.160 125.032 133.296  0.00  0.00    +0.000 A 
ATOM     14  C   UNL     1     139.063 123.563 134.968  0.00  0.00    +0.000 A 
ATOM     15  C   UNL     1     139.250 125.886 133.447  0.00  0.00    +0.000 A 
ATOM     16  C   UNL     1     140.159 124.409 135.129  0.00  0.00    +0.000 A 
ATOM     17  C   UNL     1     140.243 125.566 134.365  0.00  0.00    +0.000 A 
BRANCH  17  18
ATOM     18  O   UNL     1     141.323 126.382 134.537  0.00  0.00    +0.000 OA
ATOM     19  H   UNL     1     141.104 127.256 134.169  0.00  0.00    +0.000 HD
ENDBRANCH  17  18
ENDBRANCH   5  12
BRANCH   6  20
ATOM     20  O   UNL     1     134.635 122.742 137.388  0.00  0.00    +0.000 OA
ATOM     21  C   UNL     1     135.486 121.965 138.197  0.00  0.00    +0.000 C 
ENDBRANCH   6  20
BRANCH   8  22
ATOM     22  O   UNL     1     137.262 122.453 131.571  0.00  0.00    +0.000 OA
ATOM     23  H   UNL     1     138.072 122.957 131.796  0.00  0.00    +0.000 HD
ENDBRANCH   8  22
BRANCH   9  24
ATOM     24  O   UNL     1     132.862 119.977 132.938  0.00  0.00    +0.000 OA
ATOM     25  H   UNL     1     133.509 119.279 132.690  0.00  0.00    +0.000 HD
ENDBRANCH   9  24
BRANCH  10  26
ATOM     26  O   UNL     1     132.299 121.304 137.443  0.00  0.00    +0.000 OA
ATOM     27  H   UNL     1     131.730 120.511 137.429  0.00  0.00    +0.000 HD
ENDBRANCH  10  26
TORSDOF 6
ENDMDL
MODEL 7
REMARK VINA RESULT:      -6.5     33.805     36.217
REMARK  Name = 5281698_sexangularetin.pdbqt.pdb
REMARK  6 active torsions:
REMARK  status: ('A' for Active; 'I' for Inactive)
REMARK    1  A    between atoms: C_5  and  C_12
REMARK    2  A    between atoms: C_6  and  O_20
REMARK    3  A    between atoms: C_8  and  O_22
REMARK    4  A    between atoms: C_9  and  O_24
REMARK    5  A    between atoms: C_10  and  O_26
REMARK    6  A    between atoms: C_17  and  O_18
REMARK                            x       y       z     vdW  Elec       q    Type
REMARK                         _______ _______ _______ _____ _____    ______ ____
ROOT
ATOM      1  O   UNL     1     143.778 125.831  99.148  0.00  0.00    +0.000 OA
ATOM      2  O   UNL     1     142.902 121.941  98.434  0.00  0.00    +0.000 OA
ATOM      3  C   UNL     1     142.550 124.194  97.852  0.00  0.00    +0.000 A 
ATOM      4  C   UNL     1     142.885 125.513  98.156  0.00  0.00    +0.000 A 
ATOM      5  C   UNL     1     144.334 124.822  99.926  0.00  0.00    +0.000 A 
ATOM      6  C   UNL     1     142.313 126.558  97.417  0.00  0.00    +0.000 A 
ATOM      7  C   UNL     1     143.152 123.124  98.651  0.00  0.00    +0.000 A 
ATOM      8  C   UNL     1     144.082 123.513  99.733  0.00  0.00    +0.000 A 
ATOM      9  C   UNL     1     141.669 123.911  96.803  0.00  0.00    +0.000 A 
ATOM     10  C   UNL     1     141.465 126.263  96.343  0.00  0.00    +0.000 A 
ATOM     11  C   UNL     1     141.132 124.945  96.043  0.00  0.00    +0.000 A 
ENDROOT
BRANCH   5  12
ATOM     12  C   UNL     1     145.243 125.337 100.970  0.00  0.00    +0.000 A 
ATOM     13  C   UNL     1     144.710 125.945 102.114  0.00  0.00    +0.000 A 
ATOM     14  C   UNL     1     146.630 125.177 100.891  0.00  0.00    +0.000 A 
ATOM     15  C   UNL     1     145.537 126.402 103.138  0.00  0.00    +0.000 A 
ATOM     16  C   UNL     1     147.468 125.632 101.907  0.00  0.00    +0.000 A 
ATOM     17  C   UNL     1     146.912 126.242 103.025  0.00  0.00    +0.000 A 
BRANCH  17  18
ATOM     18  O   UNL     1     147.749 126.679 104.010  0.00  0.00    +0.000 OA
ATOM     19  H   UNL     1     147.206 127.065 104.720  0.00  0.00    +0.000 HD
ENDBRANCH  17  18
ENDBRANCH   5  12
BRANCH   6  20
ATOM     20  O   UNL     1     142.641 127.869  97.664  0.00  0.00    +0.000 OA
ATOM     21  C   UNL     1     141.788 128.431  98.634  0.00  0.00    +0.000 C 
ENDBRANCH   6  20
BRANCH   8  22
ATOM     22  O   UNL     1     144.653 122.491 100.467  0.00  0.00    +0.000 OA
ATOM     23  H   UNL     1     144.104 121.698 100.289  0.00  0.00    +0.000 HD
ENDBRANCH   8  22
BRANCH   9  24
ATOM     24  O   UNL     1     141.303 122.640  96.453  0.00  0.00    +0.000 OA
ATOM     25  H   UNL     1     140.323 122.565  96.505  0.00  0.00    +0.000 HD
ENDBRANCH   9  24
BRANCH  10  26
ATOM     26  O   UNL     1     140.969 127.275  95.570  0.00  0.00    +0.000 OA
ATOM     27  H   UNL     1     141.702 127.874  95.333  0.00  0.00    +0.000 HD
ENDBRANCH  10  26
TORSDOF 6
ENDMDL
MODEL 8
REMARK VINA RESULT:      -6.2     34.927     37.786
REMARK  Name = 5281698_sexangularetin.pdbqt.pdb
REMARK  6 active torsions:
REMARK  status: ('A' for Active; 'I' for Inactive)
REMARK    1  A    between atoms: C_5  and  C_12
REMARK    2  A    between atoms: C_6  and  O_20
REMARK    3  A    between atoms: C_8  and  O_22
REMARK    4  A    between atoms: C_9  and  O_24
REMARK    5  A    between atoms: C_10  and  O_26
REMARK    6  A    between atoms: C_17  and  O_18
REMARK                            x       y       z     vdW  Elec       q    Type
REMARK                         _______ _______ _______ _____ _____    ______ ____
ROOT
ATOM      1  O   UNL     1     145.194 125.795  97.863  0.00  0.00    +0.000 OA
ATOM      2  O   UNL     1     145.026 126.478 101.853  0.00  0.00    +0.000 OA
ATOM      3  C   UNL     1     146.022 127.011  99.788  0.00  0.00    +0.000 A 
ATOM      4  C   UNL     1     146.037 126.721  98.424  0.00  0.00    +0.000 A 
ATOM      5  C   UNL     1     144.327 125.071  98.674  0.00  0.00    +0.000 A 
ATOM      6  C   UNL     1     146.926 127.405  97.583  0.00  0.00    +0.000 A 
ATOM      7  C   UNL     1     145.094 126.270 100.644  0.00  0.00    +0.000 A 
ATOM      8  C   UNL     1     144.226 125.257 100.004  0.00  0.00    +0.000 A 
ATOM      9  C   UNL     1     146.869 127.994 100.312  0.00  0.00    +0.000 A 
ATOM     10  C   UNL     1     147.740 128.414  98.109  0.00  0.00    +0.000 A 
ATOM     11  C   UNL     1     147.722 128.701  99.472  0.00  0.00    +0.000 A 
ENDROOT
BRANCH   5  12
ATOM     12  C   UNL     1     143.517 124.093  97.919  0.00  0.00    +0.000 A 
ATOM     13  C   UNL     1     144.126 122.944  97.400  0.00  0.00    +0.000 A 
ATOM     14  C   UNL     1     142.136 124.239  97.760  0.00  0.00    +0.000 A 
ATOM     15  C   UNL     1     143.384 121.980  96.720  0.00  0.00    +0.000 A 
ATOM     16  C   UNL     1     141.382 123.284  97.080  0.00  0.00    +0.000 A 
ATOM     17  C   UNL     1     142.015 122.159  96.565  0.00  0.00    +0.000 A 
BRANCH  17  18
ATOM     18  O   UNL     1     141.260 121.234  95.905  0.00  0.00    +0.000 OA
ATOM     19  H   UNL     1     140.823 120.671  96.568  0.00  0.00    +0.000 HD
ENDBRANCH  17  18
ENDBRANCH   5  12
BRANCH   6  20
ATOM     20  O   UNL     1     146.951 127.171  96.229  0.00  0.00    +0.000 OA
ATOM     21  C   UNL     1     145.996 127.960  95.560  0.00  0.00    +0.000 C 
ENDBRANCH   6  20
BRANCH   8  22
ATOM     22  O   UNL     1     143.345 124.577 100.823  0.00  0.00    +0.000 OA
ATOM     23  H   UNL     1     142.858 123.961 100.237  0.00  0.00    +0.000 HD
ENDBRANCH   8  22
BRANCH   9  24
ATOM     24  O   UNL     1     146.900 128.327 101.638  0.00  0.00    +0.000 OA
ATOM     25  H   UNL     1     146.479 129.209 101.755  0.00  0.00    +0.000 HD
ENDBRANCH   9  24
BRANCH  10  26
ATOM     26  O   UNL     1     148.549 129.138  97.280  0.00  0.00    +0.000 OA
ATOM     27  H   UNL     1     148.128 129.191  96.402  0.00  0.00    +0.000 HD
ENDBRANCH  10  26
TORSDOF 6
ENDMDL
MODEL 9
REMARK VINA RESULT:      -6.1     33.404     36.068
REMARK  Name = 5281698_sexangularetin.pdbqt.pdb
REMARK  6 active torsions:
REMARK  status: ('A' for Active; 'I' for Inactive)
REMARK    1  A    between atoms: C_5  and  C_12
REMARK    2  A    between atoms: C_6  and  O_20
REMARK    3  A    between atoms: C_8  and  O_22
REMARK    4  A    between atoms: C_9  and  O_24
REMARK    5  A    between atoms: C_10  and  O_26
REMARK    6  A    between atoms: C_17  and  O_18
REMARK                            x       y       z     vdW  Elec       q    Type
REMARK                         _______ _______ _______ _____ _____    ______ ____
ROOT
ATOM      1  O   UNL     1     143.406 126.905 100.127  0.00  0.00    +0.000 OA
ATOM      2  O   UNL     1     147.067 128.640 100.192  0.00  0.00    +0.000 OA
ATOM      3  C   UNL     1     145.329 127.626 101.412  0.00  0.00    +0.000 A 
ATOM      4  C   UNL     1     144.063 127.049 101.323  0.00  0.00    +0.000 A 
ATOM      5  C   UNL     1     143.982 127.398  98.961  0.00  0.00    +0.000 A 
ATOM      6  C   UNL     1     143.436 126.576 102.485  0.00  0.00    +0.000 A 
ATOM      7  C   UNL     1     145.952 128.124 100.185  0.00  0.00    +0.000 A 
ATOM      8  C   UNL     1     145.195 127.980  98.921  0.00  0.00    +0.000 A 
ATOM      9  C   UNL     1     145.982 127.712 102.647  0.00  0.00    +0.000 A 
ATOM     10  C   UNL     1     144.114 126.630 103.708  0.00  0.00    +0.000 A 
ATOM     11  C   UNL     1     145.378 127.207 103.794  0.00  0.00    +0.000 A 
ENDROOT
BRANCH   5  12
ATOM     12  C   UNL     1     143.130 127.196  97.771  0.00  0.00    +0.000 A 
ATOM     13  C   UNL     1     142.326 128.245  97.308  0.00  0.00    +0.000 A 
ATOM     14  C   UNL     1     143.148 126.005  97.040  0.00  0.00    +0.000 A 
ATOM     15  C   UNL     1     141.544 128.104  96.164  0.00  0.00    +0.000 A 
ATOM     16  C   UNL     1     142.368 125.849  95.895  0.00  0.00    +0.000 A 
ATOM     17  C   UNL     1     141.572 126.903  95.466  0.00  0.00    +0.000 A 
BRANCH  17  18
ATOM     18  O   UNL     1     140.818 126.732  94.342  0.00  0.00    +0.000 OA
ATOM     19  H   UNL     1     141.210 127.267  93.629  0.00  0.00    +0.000 HD
ENDBRANCH  17  18
ENDBRANCH   5  12
BRANCH   6  20
ATOM     20  O   UNL     1     142.203 125.973 102.435  0.00  0.00    +0.000 OA
ATOM     21  C   UNL     1     141.169 126.920 102.577  0.00  0.00    +0.000 C 
ENDBRANCH   6  20
BRANCH   8  22
ATOM     22  O   UNL     1     145.804 128.442  97.770  0.00  0.00    +0.000 OA
ATOM     23  H   UNL     1     145.380 127.955  97.032  0.00  0.00    +0.000 HD
ENDBRANCH   8  22
BRANCH   9  24
ATOM     24  O   UNL     1     147.224 128.263 102.801  0.00  0.00    +0.000 OA
ATOM     25  H   UNL     1     147.903 127.600 102.539  0.00  0.00    +0.000 HD
ENDBRANCH   9  24
BRANCH  10  26
ATOM     26  O   UNL     1     143.540 126.098 104.828  0.00  0.00    +0.000 OA
ATOM     27  H   UNL     1     144.078 126.347 105.603  0.00  0.00    +0.000 HD
ENDBRANCH  10  26
TORSDOF 6
ENDMDL
