MODEL 1
REMARK VINA RESULT:      -6.4      0.000      0.000
REMARK  Name = 5281416_Esculetin.pdbqt.pdb
REMARK  2 active torsions:
REMARK  status: ('A' for Active; 'I' for Inactive)
REMARK    1  A    between atoms: C_7  and  O_12
REMARK    2  A    between atoms: C_8  and  O_14
REMARK                            x       y       z     vdW  Elec       q    Type
REMARK                         _______ _______ _______ _____ _____    ______ ____
ROOT
ATOM      1  O   UNL     1     139.791 126.243 110.226  0.00  0.00    +0.000 OA
ATOM      2  O   UNL     1     139.798 126.163 107.881  0.00  0.00    +0.000 OA
ATOM      3  C   UNL     1     137.880 127.443 111.286  0.00  0.00    +0.000 A 
ATOM      4  C   UNL     1     139.091 126.708 111.404  0.00  0.00    +0.000 A 
ATOM      5  C   UNL     1     137.204 127.891 112.409  0.00  0.00    +0.000 A 
ATOM      6  C   UNL     1     139.641 126.413 112.643  0.00  0.00    +0.000 A 
ATOM      7  C   UNL     1     137.758 127.593 113.652  0.00  0.00    +0.000 A 
ATOM      8  C   UNL     1     138.954 126.868 113.764  0.00  0.00    +0.000 A 
ATOM      9  C   UNL     1     137.461 127.655 109.949  0.00  0.00    +0.000 A 
ATOM     10  C   UNL     1     138.054 127.263 108.990  0.00  0.00    +0.000 A 
ATOM     11  C   UNL     1     139.278 126.514 108.928  0.00  0.00    +0.000 A 
ENDROOT
BRANCH   7  12
ATOM     12  O   UNL     1     137.150 128.001 114.810  0.00  0.00    +0.000 OA
ATOM     13  H   UNL     1     137.370 127.355 115.506  0.00  0.00    +0.000 HD
ENDBRANCH   7  12
BRANCH   8  14
ATOM     14  O   UNL     1     139.463 126.598 115.005  0.00  0.00    +0.000 OA
ATOM     15  H   UNL     1     140.431 126.701 114.915  0.00  0.00    +0.000 HD
ENDBRANCH   8  14
TORSDOF 2
ENDMDL
MODEL 2
REMARK VINA RESULT:      -5.6     21.235     23.286
REMARK  Name = 5281416_Esculetin.pdbqt.pdb
REMARK  2 active torsions:
REMARK  status: ('A' for Active; 'I' for Inactive)
REMARK    1  A    between atoms: C_7  and  O_12
REMARK    2  A    between atoms: C_8  and  O_14
REMARK                            x       y       z     vdW  Elec       q    Type
REMARK                         _______ _______ _______ _____ _____    ______ ____
ROOT
ATOM      1  O   UNL     1     134.280 121.089 133.821  0.00  0.00    +0.000 OA
ATOM      2  O   UNL     1     132.396 120.367 135.019  0.00  0.00    +0.000 OA
ATOM      3  C   UNL     1     135.277 123.260 134.535  0.00  0.00    +0.000 A 
ATOM      4  C   UNL     1     135.280 122.125 133.678  0.00  0.00    +0.000 A 
ATOM      5  C   UNL     1     136.231 124.256 134.404  0.00  0.00    +0.000 A 
ATOM      6  C   UNL     1     136.233 121.973 132.682  0.00  0.00    +0.000 A 
ATOM      7  C   UNL     1     137.187 124.100 133.403  0.00  0.00    +0.000 A 
ATOM      8  C   UNL     1     137.186 122.979 132.559  0.00  0.00    +0.000 A 
ATOM      9  C   UNL     1     134.236 123.257 135.495  0.00  0.00    +0.000 A 
ATOM     10  C   UNL     1     133.420 122.391 135.597  0.00  0.00    +0.000 A 
ATOM     11  C   UNL     1     133.276 121.189 134.824  0.00  0.00    +0.000 A 
ENDROOT
BRANCH   7  12
ATOM     12  O   UNL     1     138.164 125.041 133.209  0.00  0.00    +0.000 OA
ATOM     13  H   UNL     1     138.259 125.179 132.248  0.00  0.00    +0.000 HD
ENDBRANCH   7  12
BRANCH   8  14
ATOM     14  O   UNL     1     138.144 122.866 131.589  0.00  0.00    +0.000 OA
ATOM     15  H   UNL     1     137.689 123.083 130.750  0.00  0.00    +0.000 HD
ENDBRANCH   8  14
TORSDOF 2
ENDMDL
MODEL 3
REMARK VINA RESULT:      -5.3     10.207     12.131
REMARK  Name = 5281416_Esculetin.pdbqt.pdb
REMARK  2 active torsions:
REMARK  status: ('A' for Active; 'I' for Inactive)
REMARK    1  A    between atoms: C_7  and  O_12
REMARK    2  A    between atoms: C_8  and  O_14
REMARK                            x       y       z     vdW  Elec       q    Type
REMARK                         _______ _______ _______ _____ _____    ______ ____
ROOT
ATOM      1  O   UNL     1     142.066 123.862  99.163  0.00  0.00    +0.000 OA
ATOM      2  O   UNL     1     143.036 122.098  97.958  0.00  0.00    +0.000 OA
ATOM      3  C   UNL     1     143.447 124.842 100.993  0.00  0.00    +0.000 A 
ATOM      4  C   UNL     1     142.243 124.815 100.238  0.00  0.00    +0.000 A 
ATOM      5  C   UNL     1     143.624 125.751 102.023  0.00  0.00    +0.000 A 
ATOM      6  C   UNL     1     141.202 125.694 100.503  0.00  0.00    +0.000 A 
ATOM      7  C   UNL     1     142.578 126.632 102.286  0.00  0.00    +0.000 A 
ATOM      8  C   UNL     1     141.390 126.602 101.539  0.00  0.00    +0.000 A 
ATOM      9  C   UNL     1     144.404 123.877 100.590  0.00  0.00    +0.000 A 
ATOM     10  C   UNL     1     144.238 123.100  99.700  0.00  0.00    +0.000 A 
ATOM     11  C   UNL     1     143.096 122.935  98.844  0.00  0.00    +0.000 A 
ENDROOT
BRANCH   7  12
ATOM     12  O   UNL     1     142.675 127.561 103.289  0.00  0.00    +0.000 OA
ATOM     13  H   UNL     1     141.803 127.627 103.721  0.00  0.00    +0.000 HD
ENDBRANCH   7  12
BRANCH   8  14
ATOM     14  O   UNL     1     140.389 127.486 101.832  0.00  0.00    +0.000 OA
ATOM     15  H   UNL     1     140.337 127.503 102.809  0.00  0.00    +0.000 HD
ENDBRANCH   8  14
TORSDOF 2
ENDMDL
MODEL 4
REMARK VINA RESULT:      -5.2     10.138     11.944
REMARK  Name = 5281416_Esculetin.pdbqt.pdb
REMARK  2 active torsions:
REMARK  status: ('A' for Active; 'I' for Inactive)
REMARK    1  A    between atoms: C_7  and  O_12
REMARK    2  A    between atoms: C_8  and  O_14
REMARK                            x       y       z     vdW  Elec       q    Type
REMARK                         _______ _______ _______ _____ _____    ______ ____
ROOT
ATOM      1  O   UNL     1     145.032 124.373 101.031  0.00  0.00    +0.000 OA
ATOM      2  O   UNL     1     146.081 122.683  99.787  0.00  0.00    +0.000 OA
ATOM      3  C   UNL     1     142.694 124.939 100.374  0.00  0.00    +0.000 A 
ATOM      4  C   UNL     1     143.824 125.150 101.211  0.00  0.00    +0.000 A 
ATOM      5  C   UNL     1     141.535 125.679 100.541  0.00  0.00    +0.000 A 
ATOM      6  C   UNL     1     143.809 126.100 102.222  0.00  0.00    +0.000 A 
ATOM      7  C   UNL     1     141.523 126.632 101.556  0.00  0.00    +0.000 A 
ATOM      8  C   UNL     1     142.640 126.837 102.380  0.00  0.00    +0.000 A 
ATOM      9  C   UNL     1     142.880 123.932  99.395  0.00  0.00    +0.000 A 
ATOM     10  C   UNL     1     143.885 123.302  99.263  0.00  0.00    +0.000 A 
ATOM     11  C   UNL     1     145.109 123.384 100.012  0.00  0.00    +0.000 A 
ENDROOT
BRANCH   7  12
ATOM     12  O   UNL     1     140.414 127.404 101.784  0.00  0.00    +0.000 OA
ATOM     13  H   UNL     1     139.631 126.891 101.511  0.00  0.00    +0.000 HD
ENDBRANCH   7  12
BRANCH   8  14
ATOM     14  O   UNL     1     142.585 127.784 103.365  0.00  0.00    +0.000 OA
ATOM     15  H   UNL     1     142.303 128.607 102.917  0.00  0.00    +0.000 HD
ENDBRANCH   8  14
TORSDOF 2
ENDMDL
MODEL 5
REMARK VINA RESULT:      -5.2      9.857     11.302
REMARK  Name = 5281416_Esculetin.pdbqt.pdb
REMARK  2 active torsions:
REMARK  status: ('A' for Active; 'I' for Inactive)
REMARK    1  A    between atoms: C_7  and  O_12
REMARK    2  A    between atoms: C_8  and  O_14
REMARK                            x       y       z     vdW  Elec       q    Type
REMARK                         _______ _______ _______ _____ _____    ______ ____
ROOT
ATOM      1  O   UNL     1     139.678 125.602 101.592  0.00  0.00    +0.000 OA
ATOM      2  O   UNL     1     138.075 124.192 100.618  0.00  0.00    +0.000 OA
ATOM      3  C   UNL     1     142.006 125.395 100.722  0.00  0.00    +0.000 A 
ATOM      4  C   UNL     1     141.068 126.002 101.603  0.00  0.00    +0.000 A 
ATOM      5  C   UNL     1     143.338 125.773 100.727  0.00  0.00    +0.000 A 
ATOM      6  C   UNL     1     141.451 126.992 102.497  0.00  0.00    +0.000 A 
ATOM      7  C   UNL     1     143.719 126.767 101.626  0.00  0.00    +0.000 A 
ATOM      8  C   UNL     1     142.791 127.364 102.493  0.00  0.00    +0.000 A 
ATOM      9  C   UNL     1     141.447 124.404  99.878  0.00  0.00    +0.000 A 
ATOM     10  C   UNL     1     140.296 124.089  99.884  0.00  0.00    +0.000 A 
ATOM     11  C   UNL     1     139.224 124.593 100.698  0.00  0.00    +0.000 A 
ENDROOT
BRANCH   7  12
ATOM     12  O   UNL     1     145.019 127.196 101.692  0.00  0.00    +0.000 OA
ATOM     13  H   UNL     1     145.047 127.974 102.280  0.00  0.00    +0.000 HD
ENDBRANCH   7  12
BRANCH   8  14
ATOM     14  O   UNL     1     143.209 128.336 103.359  0.00  0.00    +0.000 OA
ATOM     15  H   UNL     1     142.487 128.426 104.014  0.00  0.00    +0.000 HD
ENDBRANCH   8  14
TORSDOF 2
ENDMDL
MODEL 6
REMARK VINA RESULT:      -5.2     10.011     11.160
REMARK  Name = 5281416_Esculetin.pdbqt.pdb
REMARK  2 active torsions:
REMARK  status: ('A' for Active; 'I' for Inactive)
REMARK    1  A    between atoms: C_7  and  O_12
REMARK    2  A    between atoms: C_8  and  O_14
REMARK                            x       y       z     vdW  Elec       q    Type
REMARK                         _______ _______ _______ _____ _____    ______ ____
ROOT
ATOM      1  O   UNL     1     142.414 124.165 100.335  0.00  0.00    +0.000 OA
ATOM      2  O   UNL     1     140.498 123.526  99.140  0.00  0.00    +0.000 OA
ATOM      3  C   UNL     1     142.162 126.116 101.866  0.00  0.00    +0.000 A 
ATOM      4  C   UNL     1     142.968 125.092 101.297  0.00  0.00    +0.000 A 
ATOM      5  C   UNL     1     142.686 127.008 102.788  0.00  0.00    +0.000 A 
ATOM      6  C   UNL     1     144.305 124.948 101.641  0.00  0.00    +0.000 A 
ATOM      7  C   UNL     1     144.028 126.860 103.131  0.00  0.00    +0.000 A 
ATOM      8  C   UNL     1     144.820 125.849 102.567  0.00  0.00    +0.000 A 
ATOM      9  C   UNL     1     140.822 126.120 101.405  0.00  0.00    +0.000 A 
ATOM     10  C   UNL     1     140.384 125.345 100.610  0.00  0.00    +0.000 A 
ATOM     11  C   UNL     1     141.051 124.261  99.942  0.00  0.00    +0.000 A 
ENDROOT
BRANCH   7  12
ATOM     12  O   UNL     1     144.620 127.702 104.035  0.00  0.00    +0.000 OA
ATOM     13  H   UNL     1     145.455 127.291 104.324  0.00  0.00    +0.000 HD
ENDBRANCH   7  12
BRANCH   8  14
ATOM     14  O   UNL     1     146.134 125.741 102.933  0.00  0.00    +0.000 OA
ATOM     15  H   UNL     1     146.383 126.627 103.265  0.00  0.00    +0.000 HD
ENDBRANCH   8  14
TORSDOF 2
ENDMDL
MODEL 7
REMARK VINA RESULT:      -5.0      9.703     12.034
REMARK  Name = 5281416_Esculetin.pdbqt.pdb
REMARK  2 active torsions:
REMARK  status: ('A' for Active; 'I' for Inactive)
REMARK    1  A    between atoms: C_7  and  O_12
REMARK    2  A    between atoms: C_8  and  O_14
REMARK                            x       y       z     vdW  Elec       q    Type
REMARK                         _______ _______ _______ _____ _____    ______ ____
ROOT
ATOM      1  O   UNL     1     144.697 127.969  99.781  0.00  0.00    +0.000 OA
ATOM      2  O   UNL     1     146.103 128.741  98.068  0.00  0.00    +0.000 OA
ATOM      3  C   UNL     1     145.769 127.580 101.999  0.00  0.00    +0.000 A 
ATOM      4  C   UNL     1     144.614 127.567 101.168  0.00  0.00    +0.000 A 
ATOM      5  C   UNL     1     145.697 127.196 103.328  0.00  0.00    +0.000 A 
ATOM      6  C   UNL     1     143.377 127.171 101.656  0.00  0.00    +0.000 A 
ATOM      7  C   UNL     1     144.454 126.799 103.814  0.00  0.00    +0.000 A 
ATOM      8  C   UNL     1     143.316 126.787 102.991  0.00  0.00    +0.000 A 
ATOM      9  C   UNL     1     146.948 128.011 101.342  0.00  0.00    +0.000 A 
ATOM     10  C   UNL     1     146.995 128.339 100.195  0.00  0.00    +0.000 A 
ATOM     11  C   UNL     1     145.937 128.386  99.223  0.00  0.00    +0.000 A 
ENDROOT
BRANCH   7  12
ATOM     12  O   UNL     1     144.300 126.405 105.117  0.00  0.00    +0.000 OA
ATOM     13  H   UNL     1     144.746 125.544 105.223  0.00  0.00    +0.000 HD
ENDBRANCH   7  12
BRANCH   8  14
ATOM     14  O   UNL     1     142.115 126.390 103.511  0.00  0.00    +0.000 OA
ATOM     15  H   UNL     1     141.899 127.052 104.198  0.00  0.00    +0.000 HD
ENDBRANCH   8  14
TORSDOF 2
ENDMDL
MODEL 8
REMARK VINA RESULT:      -5.0     10.165     11.924
REMARK  Name = 5281416_Esculetin.pdbqt.pdb
REMARK  2 active torsions:
REMARK  status: ('A' for Active; 'I' for Inactive)
REMARK    1  A    between atoms: C_7  and  O_12
REMARK    2  A    between atoms: C_8  and  O_14
REMARK                            x       y       z     vdW  Elec       q    Type
REMARK                         _______ _______ _______ _____ _____    ______ ____
ROOT
ATOM      1  O   UNL     1     146.429 124.627 101.110  0.00  0.00    +0.000 OA
ATOM      2  O   UNL     1     146.807 122.808  99.677  0.00  0.00    +0.000 OA
ATOM      3  C   UNL     1     144.055 125.335 101.394  0.00  0.00    +0.000 A 
ATOM      4  C   UNL     1     145.435 125.499 101.697  0.00  0.00    +0.000 A 
ATOM      5  C   UNL     1     143.098 126.167 101.952  0.00  0.00    +0.000 A 
ATOM      6  C   UNL     1     145.873 126.493 102.560  0.00  0.00    +0.000 A 
ATOM      7  C   UNL     1     143.541 127.163 102.818  0.00  0.00    +0.000 A 
ATOM      8  C   UNL     1     144.903 127.322 103.115  0.00  0.00    +0.000 A 
ATOM      9  C   UNL     1     143.783 124.273 100.496  0.00  0.00    +0.000 A 
ATOM     10  C   UNL     1     144.618 123.564 100.023  0.00  0.00    +0.000 A 
ATOM     11  C   UNL     1     146.042 123.589 100.218  0.00  0.00    +0.000 A 
ENDROOT
BRANCH   7  12
ATOM     12  O   UNL     1     142.656 128.026 103.410  0.00  0.00    +0.000 OA
ATOM     13  H   UNL     1     141.769 127.838 103.051  0.00  0.00    +0.000 HD
ENDBRANCH   7  12
BRANCH   8  14
ATOM     14  O   UNL     1     145.294 128.315 103.970  0.00  0.00    +0.000 OA
ATOM     15  H   UNL     1     146.240 128.468 103.773  0.00  0.00    +0.000 HD
ENDBRANCH   8  14
TORSDOF 2
ENDMDL
MODEL 9
REMARK VINA RESULT:      -5.0      9.854     12.744
REMARK  Name = 5281416_Esculetin.pdbqt.pdb
REMARK  2 active torsions:
REMARK  status: ('A' for Active; 'I' for Inactive)
REMARK    1  A    between atoms: C_7  and  O_12
REMARK    2  A    between atoms: C_8  and  O_14
REMARK                            x       y       z     vdW  Elec       q    Type
REMARK                         _______ _______ _______ _____ _____    ______ ____
ROOT
ATOM      1  O   UNL     1     142.839 125.945 102.106  0.00  0.00    +0.000 OA
ATOM      2  O   UNL     1     141.375 127.440 103.167  0.00  0.00    +0.000 OA
ATOM      3  C   UNL     1     141.899 124.644 100.198  0.00  0.00    +0.000 A 
ATOM      4  C   UNL     1     142.990 124.965 101.052  0.00  0.00    +0.000 A 
ATOM      5  C   UNL     1     142.036 123.707  99.187  0.00  0.00    +0.000 A 
ATOM      6  C   UNL     1     144.228 124.356 100.905  0.00  0.00    +0.000 A 
ATOM      7  C   UNL     1     143.280 123.097  99.042  0.00  0.00    +0.000 A 
ATOM      8  C   UNL     1     144.354 123.417  99.886  0.00  0.00    +0.000 A 
ATOM      9  C   UNL     1     140.710 125.358 100.486  0.00  0.00    +0.000 A 
ATOM     10  C   UNL     1     140.606 126.163 101.362  0.00  0.00    +0.000 A 
ATOM     11  C   UNL     1     141.595 126.604 102.307  0.00  0.00    +0.000 A 
ENDROOT
BRANCH   7  12
ATOM     12  O   UNL     1     143.495 122.160  98.066  0.00  0.00    +0.000 OA
ATOM     13  H   UNL     1     142.661 121.676  97.927  0.00  0.00    +0.000 HD
ENDBRANCH   7  12
BRANCH   8  14
ATOM     14  O   UNL     1     145.558 122.794  99.708  0.00  0.00    +0.000 OA
ATOM     15  H   UNL     1     145.705 122.278 100.527  0.00  0.00    +0.000 HD
ENDBRANCH   8  14
TORSDOF 2
ENDMDL
