MODEL 1
REMARK VINA RESULT:      -6.7      0.000      0.000
REMARK  Name = 5281239_Fucoxanthin.pdbqt.pdb
REMARK  19 active torsions:
REMARK  status: ('A' for Active; 'I' for Inactive)
REMARK    1  A    between atoms: C_1  and  C_5
REMARK    2  A    between atoms: C_2  and  C_26
REMARK    3  A    between atoms: C_3  and  C_5
REMARK    4  A    between atoms: C_3  and  C_7
REMARK    5  A    between atoms: C_6  and  C_10
REMARK    6  A    between atoms: C_8  and  C_10
REMARK    7  A    between atoms: C_8  and  C_12
REMARK    8  A    between atoms: C_12  and  C_13
REMARK    9  A    between atoms: C_13  and  C_15
REMARK   10  A    between atoms: C_20  and  O_24
REMARK   11  A    between atoms: C_26  and  C_27
REMARK   12  A    between atoms: C_27  and  C_30
REMARK   13  A    between atoms: C_29  and  C_33
REMARK   14  A    between atoms: C_31  and  C_33
REMARK   15  A    between atoms: C_31  and  C_44
REMARK   16  A    between atoms: C_35  and  O_45
REMARK   17  A    between atoms: C_37  and  O_47
REMARK   18  A    between atoms: C_39  and  C_43
REMARK   19  A    between atoms: O_47  and  C_49
REMARK                            x       y       z     vdW  Elec       q    Type
REMARK                         _______ _______ _______ _____ _____    ______ ____
ROOT
ATOM      1  C   UNL     1     133.683 135.190 144.515  0.00  0.00    +0.000 C 
ATOM      2  C   UNL     1     134.666 135.643 143.998  0.00  0.00    +0.000 C 
ENDROOT
BRANCH   2   3
ATOM      3  C   UNL     1     135.925 136.215 143.335  0.00  0.00    +0.000 C 
BRANCH   3   4
ATOM      4  C   UNL     1     136.991 136.695 142.775  0.00  0.00    +0.000 C 
ATOM      5  C   UNL     1     137.597 137.966 143.288  0.00  0.00    +0.000 C 
BRANCH   4   7
ATOM      6  C   UNL     1     138.131 135.394 140.813  0.00  0.00    +0.000 C 
ATOM      7  C   UNL     1     137.609 135.991 141.715  0.00  0.00    +0.000 C 
BRANCH   6   8
ATOM      8  C   UNL     1     138.795 134.635 139.658  0.00  0.00    +0.000 C 
BRANCH   8   9
ATOM      9  C   UNL     1     139.365 133.995 138.685  0.00  0.00    +0.000 C 
ATOM     10  C   UNL     1     140.680 133.312 138.902  0.00  0.00    +0.000 C 
BRANCH   9  12
ATOM     11  C   UNL     1     138.319 134.078 136.284  0.00  0.00    +0.000 C 
ATOM     12  C   UNL     1     138.802 134.042 137.386  0.00  0.00    +0.000 C 
BRANCH  11  18
ATOM     13  C   UNL     1     138.367 133.302 133.902  0.00  0.00    +0.000 C 
ATOM     14  C   UNL     1     136.605 135.012 134.764  0.00  0.00    +0.000 C 
ATOM     15  C   UNL     1     137.437 133.279 132.765  0.00  0.00    +0.000 C 
ATOM     16  C   UNL     1     136.210 133.851 132.378  0.00  0.00    +0.000 C 
ATOM     17  C   UNL     1     135.963 134.668 133.500  0.00  0.00    +0.000 C 
ATOM     18  C   UNL     1     137.792 134.113 135.077  0.00  0.00    +0.000 C 
ATOM     19  C   UNL     1     139.714 133.943 133.473  0.00  0.00    +0.000 C 
ATOM     20  C   UNL     1     138.603 131.832 134.365  0.00  0.00    +0.000 C 
ATOM     21  C   UNL     1     137.014 136.487 134.799  0.00  0.00    +0.000 C 
BRANCH  14  22
ATOM     22  O   UNL     1     135.641 134.877 135.784  0.00  0.00    +0.000 OA
ATOM     23  H   UNL     1     135.583 135.792 136.117  0.00  0.00    +0.000 HD
ENDBRANCH  14  22
BRANCH  16  24
ATOM     24  O   UNL     1     136.078 134.362 131.093  0.00  0.00    +0.000 OA
BRANCH  24  26
ATOM     25  O   UNL     1     137.473 136.248 131.112  0.00  0.00    +0.000 OA
ATOM     26  C   UNL     1     137.159 135.120 130.782  0.00  0.00    +0.000 C 
ATOM     27  C   UNL     1     138.124 134.455 129.865  0.00  0.00    +0.000 C 
ENDBRANCH  24  26
ENDBRANCH  16  24
ENDBRANCH  11  18
ENDBRANCH   9  12
ENDBRANCH   8   9
ENDBRANCH   6   8
ENDBRANCH   4   7
ENDBRANCH   3   4
ENDBRANCH   2   3
BRANCH   1  28
ATOM     28  C   UNL     1     132.431 134.601 145.175  0.00  0.00    +0.000 C 
BRANCH  28  29
ATOM     29  C   UNL     1     131.375 134.093 145.728  0.00  0.00    +0.000 C 
ATOM     30  C   UNL     1     130.490 134.950 146.580  0.00  0.00    +0.000 C 
BRANCH  29  32
ATOM     31  C   UNL     1     130.821 131.557 145.402  0.00  0.00    +0.000 C 
ATOM     32  C   UNL     1     131.082 132.719 145.555  0.00  0.00    +0.000 C 
BRANCH  31  33
ATOM     33  C   UNL     1     130.474 130.077 145.199  0.00  0.00    +0.000 C 
BRANCH  33  34
ATOM     34  C   UNL     1     130.175 128.825 145.020  0.00  0.00    +0.000 C 
ATOM     35  C   UNL     1     130.693 127.845 146.052  0.00  0.00    +0.000 C 
BRANCH  34  37
ATOM     36  O   UNL     1     128.628 127.440 143.836  0.00  0.00    +0.000 OA
ATOM     37  C   UNL     1     129.396 128.398 143.817  0.00  0.00    +0.000 C 
BRANCH  37  38
ATOM     38  C   UNL     1     129.513 129.107 142.565  0.00  0.00    +0.000 C 
BRANCH  38  40
ATOM     39  O   UNL     1     129.586 131.252 141.546  0.00  0.00    +0.000 OA
ATOM     40  C   UNL     1     129.666 129.819 141.311  0.00  0.00    +0.000 C 
ATOM     41  C   UNL     1     130.864 130.776 141.128  0.00  0.00    +0.000 C 
ATOM     42  C   UNL     1     128.949 129.279 140.022  0.00  0.00    +0.000 C 
ATOM     43  C   UNL     1     131.179 131.179 139.796  0.00  0.00    +0.000 C 
ATOM     44  C   UNL     1     129.514 130.005 138.882  0.00  0.00    +0.000 C 
ATOM     45  C   UNL     1     130.561 130.892 138.567  0.00  0.00    +0.000 C 
ATOM     46  C   UNL     1     131.955 130.956 142.187  0.00  0.00    +0.000 C 
ATOM     47  C   UNL     1     129.300 127.773 139.954  0.00  0.00    +0.000 C 
ATOM     48  C   UNL     1     127.440 129.525 140.242  0.00  0.00    +0.000 C 
BRANCH  45  49
ATOM     49  O   UNL     1     131.255 130.786 137.400  0.00  0.00    +0.000 OA
ATOM     50  H   UNL     1     131.516 129.869 137.205  0.00  0.00    +0.000 HD
ENDBRANCH  45  49
ENDBRANCH  38  40
ENDBRANCH  37  38
ENDBRANCH  34  37
ENDBRANCH  33  34
ENDBRANCH  31  33
ENDBRANCH  29  32
ENDBRANCH  28  29
ENDBRANCH   1  28
TORSDOF 19
ENDMDL
MODEL 2
REMARK VINA RESULT:      -6.6     27.082     34.806
REMARK  Name = 5281239_Fucoxanthin.pdbqt.pdb
REMARK  19 active torsions:
REMARK  status: ('A' for Active; 'I' for Inactive)
REMARK    1  A    between atoms: C_1  and  C_5
REMARK    2  A    between atoms: C_2  and  C_26
REMARK    3  A    between atoms: C_3  and  C_5
REMARK    4  A    between atoms: C_3  and  C_7
REMARK    5  A    between atoms: C_6  and  C_10
REMARK    6  A    between atoms: C_8  and  C_10
REMARK    7  A    between atoms: C_8  and  C_12
REMARK    8  A    between atoms: C_12  and  C_13
REMARK    9  A    between atoms: C_13  and  C_15
REMARK   10  A    between atoms: C_20  and  O_24
REMARK   11  A    between atoms: C_26  and  C_27
REMARK   12  A    between atoms: C_27  and  C_30
REMARK   13  A    between atoms: C_29  and  C_33
REMARK   14  A    between atoms: C_31  and  C_33
REMARK   15  A    between atoms: C_31  and  C_44
REMARK   16  A    between atoms: C_35  and  O_45
REMARK   17  A    between atoms: C_37  and  O_47
REMARK   18  A    between atoms: C_39  and  C_43
REMARK   19  A    between atoms: O_47  and  C_49
REMARK                            x       y       z     vdW  Elec       q    Type
REMARK                         _______ _______ _______ _____ _____    ______ ____
ROOT
ATOM      1  C   UNL     1     148.339 114.806 114.061  0.00  0.00    +0.000 C 
ATOM      2  C   UNL     1     149.142 114.847 114.952  0.00  0.00    +0.000 C 
ENDROOT
BRANCH   2   3
ATOM      3  C   UNL     1     150.167 114.892 116.091  0.00  0.00    +0.000 C 
BRANCH   3   4
ATOM      4  C   UNL     1     151.032 114.934 117.056  0.00  0.00    +0.000 C 
ATOM      5  C   UNL     1     152.464 115.260 116.762  0.00  0.00    +0.000 C 
BRANCH   4   7
ATOM      6  C   UNL     1     150.256 114.542 119.524  0.00  0.00    +0.000 C 
ATOM      7  C   UNL     1     150.611 114.721 118.390  0.00  0.00    +0.000 C 
BRANCH   6   8
ATOM      8  C   UNL     1     149.802 114.319 120.971  0.00  0.00    +0.000 C 
BRANCH   8   9
ATOM      9  C   UNL     1     149.411 114.125 122.191  0.00  0.00    +0.000 C 
ATOM     10  C   UNL     1     148.532 112.958 122.524  0.00  0.00    +0.000 C 
BRANCH   9  12
ATOM     11  C   UNL     1     149.982 115.897 124.035  0.00  0.00    +0.000 C 
ATOM     12  C   UNL     1     149.719 115.081 123.191  0.00  0.00    +0.000 C 
BRANCH  11  18
ATOM     13  C   UNL     1     151.344 117.877 124.744  0.00  0.00    +0.000 C 
ATOM     14  C   UNL     1     149.603 116.759 126.323  0.00  0.00    +0.000 C 
ATOM     15  C   UNL     1     151.267 118.912 125.785  0.00  0.00    +0.000 C 
ATOM     16  C   UNL     1     150.573 119.172 126.982  0.00  0.00    +0.000 C 
ATOM     17  C   UNL     1     149.799 117.997 127.069  0.00  0.00    +0.000 C 
ATOM     18  C   UNL     1     150.275 116.790 124.959  0.00  0.00    +0.000 C 
ATOM     19  C   UNL     1     152.743 117.205 124.766  0.00  0.00    +0.000 C 
ATOM     20  C   UNL     1     151.106 118.560 123.363  0.00  0.00    +0.000 C 
ATOM     21  C   UNL     1     150.064 115.542 127.130  0.00  0.00    +0.000 C 
BRANCH  14  22
ATOM     22  O   UNL     1     148.216 116.577 126.151  0.00  0.00    +0.000 OA
ATOM     23  H   UNL     1     148.167 115.620 125.974  0.00  0.00    +0.000 HD
ENDBRANCH  14  22
BRANCH  16  24
ATOM     24  O   UNL     1     151.278 119.634 128.086  0.00  0.00    +0.000 OA
BRANCH  24  26
ATOM     25  O   UNL     1     150.810 121.919 127.838  0.00  0.00    +0.000 OA
ATOM     26  C   UNL     1     150.829 120.863 128.442  0.00  0.00    +0.000 C 
ATOM     27  C   UNL     1     150.271 120.931 129.820  0.00  0.00    +0.000 C 
ENDBRANCH  24  26
ENDBRANCH  16  24
ENDBRANCH  11  18
ENDBRANCH   9  12
ENDBRANCH   8   9
ENDBRANCH   6   8
ENDBRANCH   4   7
ENDBRANCH   3   4
ENDBRANCH   2   3
BRANCH   1  28
ATOM     28  C   UNL     1     147.316 114.743 112.921  0.00  0.00    +0.000 C 
BRANCH  28  29
ATOM     29  C   UNL     1     146.443 114.684 111.966  0.00  0.00    +0.000 C 
ATOM     30  C   UNL     1     144.979 114.728 112.284  0.00  0.00    +0.000 C 
BRANCH  29  32
ATOM     31  C   UNL     1     147.243 114.433 109.487  0.00  0.00    +0.000 C 
ATOM     32  C   UNL     1     146.875 114.541 110.626  0.00  0.00    +0.000 C 
BRANCH  31  33
ATOM     33  C   UNL     1     147.712 114.312 108.033  0.00  0.00    +0.000 C 
BRANCH  33  34
ATOM     34  C   UNL     1     148.102 114.213 106.796  0.00  0.00    +0.000 C 
ATOM     35  C   UNL     1     149.584 114.003 106.562  0.00  0.00    +0.000 C 
BRANCH  34  37
ATOM     36  O   UNL     1     147.460 114.578 104.523  0.00  0.00    +0.000 OA
ATOM     37  C   UNL     1     147.117 114.350 105.679  0.00  0.00    +0.000 C 
BRANCH  37  38
ATOM     38  C   UNL     1     145.700 114.213 105.917  0.00  0.00    +0.000 C 
BRANCH  38  40
ATOM     39  O   UNL     1     144.014 113.690 107.508  0.00  0.00    +0.000 OA
ATOM     40  C   UNL     1     144.273 114.061 106.125  0.00  0.00    +0.000 C 
ATOM     41  C   UNL     1     143.554 114.986 107.130  0.00  0.00    +0.000 C 
ATOM     42  C   UNL     1     143.404 113.341 105.033  0.00  0.00    +0.000 C 
ATOM     43  C   UNL     1     142.130 115.051 107.055  0.00  0.00    +0.000 C 
ATOM     44  C   UNL     1     142.001 113.597 105.365  0.00  0.00    +0.000 C 
ATOM     45  C   UNL     1     141.211 114.378 106.232  0.00  0.00    +0.000 C 
ATOM     46  C   UNL     1     144.265 116.123 107.871  0.00  0.00    +0.000 C 
ATOM     47  C   UNL     1     143.791 114.009 103.691  0.00  0.00    +0.000 C 
ATOM     48  C   UNL     1     143.803 111.849 105.088  0.00  0.00    +0.000 C 
BRANCH  45  49
ATOM     49  O   UNL     1     140.043 114.941 105.816  0.00  0.00    +0.000 OA
ATOM     50  H   UNL     1     140.021 115.903 105.965  0.00  0.00    +0.000 HD
ENDBRANCH  45  49
ENDBRANCH  38  40
ENDBRANCH  37  38
ENDBRANCH  34  37
ENDBRANCH  33  34
ENDBRANCH  31  33
ENDBRANCH  29  32
ENDBRANCH  28  29
ENDBRANCH   1  28
TORSDOF 19
ENDMDL
MODEL 3
REMARK VINA RESULT:      -6.5      8.157     18.931
REMARK  Name = 5281239_Fucoxanthin.pdbqt.pdb
REMARK  19 active torsions:
REMARK  status: ('A' for Active; 'I' for Inactive)
REMARK    1  A    between atoms: C_1  and  C_5
REMARK    2  A    between atoms: C_2  and  C_26
REMARK    3  A    between atoms: C_3  and  C_5
REMARK    4  A    between atoms: C_3  and  C_7
REMARK    5  A    between atoms: C_6  and  C_10
REMARK    6  A    between atoms: C_8  and  C_10
REMARK    7  A    between atoms: C_8  and  C_12
REMARK    8  A    between atoms: C_12  and  C_13
REMARK    9  A    between atoms: C_13  and  C_15
REMARK   10  A    between atoms: C_20  and  O_24
REMARK   11  A    between atoms: C_26  and  C_27
REMARK   12  A    between atoms: C_27  and  C_30
REMARK   13  A    between atoms: C_29  and  C_33
REMARK   14  A    between atoms: C_31  and  C_33
REMARK   15  A    between atoms: C_31  and  C_44
REMARK   16  A    between atoms: C_35  and  O_45
REMARK   17  A    between atoms: C_37  and  O_47
REMARK   18  A    between atoms: C_39  and  C_43
REMARK   19  A    between atoms: O_47  and  C_49
REMARK                            x       y       z     vdW  Elec       q    Type
REMARK                         _______ _______ _______ _____ _____    ______ ____
ROOT
ATOM      1  C   UNL     1     135.722 137.062 126.276  0.00  0.00    +0.000 C 
ATOM      2  C   UNL     1     135.564 136.557 127.353  0.00  0.00    +0.000 C 
ENDROOT
BRANCH   2   3
ATOM      3  C   UNL     1     135.370 135.910 128.729  0.00  0.00    +0.000 C 
BRANCH   3   4
ATOM      4  C   UNL     1     135.201 135.363 129.892  0.00  0.00    +0.000 C 
ATOM      5  C   UNL     1     133.870 134.780 130.258  0.00  0.00    +0.000 C 
BRANCH   4   7
ATOM      6  C   UNL     1     137.209 135.192 131.560  0.00  0.00    +0.000 C 
ATOM      7  C   UNL     1     136.288 135.272 130.794  0.00  0.00    +0.000 C 
BRANCH   6   8
ATOM      8  C   UNL     1     138.384 135.086 132.539  0.00  0.00    +0.000 C 
BRANCH   8   9
ATOM      9  C   UNL     1     139.379 134.985 133.364  0.00  0.00    +0.000 C 
ATOM     10  C   UNL     1     140.644 134.303 132.941  0.00  0.00    +0.000 C 
BRANCH   9  12
ATOM     11  C   UNL     1     139.100 135.781 135.845  0.00  0.00    +0.000 C 
ATOM     12  C   UNL     1     139.229 135.419 134.705  0.00  0.00    +0.000 C 
BRANCH  11  18
ATOM     13  C   UNL     1     139.233 137.623 137.538  0.00  0.00    +0.000 C 
ATOM     14  C   UNL     1     138.553 135.197 138.186  0.00  0.00    +0.000 C 
ATOM     15  C   UNL     1     138.715 137.875 138.890  0.00  0.00    +0.000 C 
ATOM     16  C   UNL     1     138.119 137.169 139.952  0.00  0.00    +0.000 C 
ATOM     17  C   UNL     1     138.120 135.869 139.406  0.00  0.00    +0.000 C 
ATOM     18  C   UNL     1     138.954 136.176 137.094  0.00  0.00    +0.000 C 
ATOM     19  C   UNL     1     140.766 137.864 137.504  0.00  0.00    +0.000 C 
ATOM     20  C   UNL     1     138.522 138.604 136.557  0.00  0.00    +0.000 C 
ATOM     21  C   UNL     1     139.681 134.200 138.468  0.00  0.00    +0.000 C 
BRANCH  14  22
ATOM     22  O   UNL     1     137.477 134.409 137.727  0.00  0.00    +0.000 OA
ATOM     23  H   UNL     1     137.806 134.121 136.856  0.00  0.00    +0.000 HD
ENDBRANCH  14  22
BRANCH  16  24
ATOM     24  O   UNL     1     138.569 137.388 141.247  0.00  0.00    +0.000 OA
BRANCH  24  26
ATOM     25  O   UNL     1     136.640 138.243 142.272  0.00  0.00    +0.000 OA
ATOM     26  C   UNL     1     137.519 137.419 142.105  0.00  0.00    +0.000 C 
ATOM     27  C   UNL     1     137.437 136.239 143.008  0.00  0.00    +0.000 C 
ENDBRANCH  24  26
ENDBRANCH  16  24
ENDBRANCH  11  18
ENDBRANCH   9  12
ENDBRANCH   8   9
ENDBRANCH   6   8
ENDBRANCH   4   7
ENDBRANCH   3   4
ENDBRANCH   2   3
BRANCH   1  28
ATOM     28  C   UNL     1     135.935 137.707 124.901  0.00  0.00    +0.000 C 
BRANCH  28  29
ATOM     29  C   UNL     1     136.126 138.252 123.742  0.00  0.00    +0.000 C 
ATOM     30  C   UNL     1     135.090 138.112 122.668  0.00  0.00    +0.000 C 
BRANCH  29  32
ATOM     31  C   UNL     1     138.352 139.534 123.245  0.00  0.00    +0.000 C 
ATOM     32  C   UNL     1     137.331 138.947 123.481  0.00  0.00    +0.000 C 
BRANCH  31  33
ATOM     33  C   UNL     1     139.653 140.280 122.928  0.00  0.00    +0.000 C 
BRANCH  33  34
ATOM     34  C   UNL     1     140.754 140.914 122.651  0.00  0.00    +0.000 C 
ATOM     35  C   UNL     1     141.289 141.851 123.714  0.00  0.00    +0.000 C 
BRANCH  34  37
ATOM     36  O   UNL     1     142.624 140.858 121.164  0.00  0.00    +0.000 OA
ATOM     37  C   UNL     1     141.413 140.740 121.319  0.00  0.00    +0.000 C 
BRANCH  37  38
ATOM     38  C   UNL     1     140.638 140.418 120.144  0.00  0.00    +0.000 C 
BRANCH  38  40
ATOM     39  O   UNL     1     139.697 141.284 118.143  0.00  0.00    +0.000 OA
ATOM     40  C   UNL     1     139.831 140.103 118.981  0.00  0.00    +0.000 C 
ATOM     41  C   UNL     1     140.458 140.220 117.575  0.00  0.00    +0.000 C 
ATOM     42  C   UNL     1     138.549 139.211 119.147  0.00  0.00    +0.000 C 
ATOM     43  C   UNL     1     139.771 139.581 116.499  0.00  0.00    +0.000 C 
ATOM     44  C   UNL     1     138.122 138.823 117.801  0.00  0.00    +0.000 C 
ATOM     45  C   UNL     1     138.561 138.866 116.463  0.00  0.00    +0.000 C 
ATOM     46  C   UNL     1     141.928 140.580 117.346  0.00  0.00    +0.000 C 
ATOM     47  C   UNL     1     139.006 137.979 119.965  0.00  0.00    +0.000 C 
ATOM     48  C   UNL     1     137.523 140.080 119.908  0.00  0.00    +0.000 C 
BRANCH  45  49
ATOM     49  O   UNL     1     138.344 137.827 115.610  0.00  0.00    +0.000 OA
ATOM     50  H   UNL     1     138.965 137.091 115.755  0.00  0.00    +0.000 HD
ENDBRANCH  45  49
ENDBRANCH  38  40
ENDBRANCH  37  38
ENDBRANCH  34  37
ENDBRANCH  33  34
ENDBRANCH  31  33
ENDBRANCH  29  32
ENDBRANCH  28  29
ENDBRANCH   1  28
TORSDOF 19
ENDMDL
MODEL 4
REMARK VINA RESULT:      -6.4      6.280      9.364
REMARK  Name = 5281239_Fucoxanthin.pdbqt.pdb
REMARK  19 active torsions:
REMARK  status: ('A' for Active; 'I' for Inactive)
REMARK    1  A    between atoms: C_1  and  C_5
REMARK    2  A    between atoms: C_2  and  C_26
REMARK    3  A    between atoms: C_3  and  C_5
REMARK    4  A    between atoms: C_3  and  C_7
REMARK    5  A    between atoms: C_6  and  C_10
REMARK    6  A    between atoms: C_8  and  C_10
REMARK    7  A    between atoms: C_8  and  C_12
REMARK    8  A    between atoms: C_12  and  C_13
REMARK    9  A    between atoms: C_13  and  C_15
REMARK   10  A    between atoms: C_20  and  O_24
REMARK   11  A    between atoms: C_26  and  C_27
REMARK   12  A    between atoms: C_27  and  C_30
REMARK   13  A    between atoms: C_29  and  C_33
REMARK   14  A    between atoms: C_31  and  C_33
REMARK   15  A    between atoms: C_31  and  C_44
REMARK   16  A    between atoms: C_35  and  O_45
REMARK   17  A    between atoms: C_37  and  O_47
REMARK   18  A    between atoms: C_39  and  C_43
REMARK   19  A    between atoms: O_47  and  C_49
REMARK                            x       y       z     vdW  Elec       q    Type
REMARK                         _______ _______ _______ _____ _____    ______ ____
ROOT
ATOM      1  C   UNL     1     129.487 127.080 139.960  0.00  0.00    +0.000 C 
ATOM      2  C   UNL     1     129.594 128.242 139.682  0.00  0.00    +0.000 C 
ENDROOT
BRANCH   2   3
ATOM      3  C   UNL     1     129.739 129.727 139.326  0.00  0.00    +0.000 C 
BRANCH   3   4
ATOM      4  C   UNL     1     129.864 130.982 139.030  0.00  0.00    +0.000 C 
ATOM      5  C   UNL     1     128.977 131.596 137.990  0.00  0.00    +0.000 C 
BRANCH   4   7
ATOM      6  C   UNL     1     131.597 132.462 140.315  0.00  0.00    +0.000 C 
ATOM      7  C   UNL     1     130.802 131.781 139.725  0.00  0.00    +0.000 C 
BRANCH   6   8
ATOM      8  C   UNL     1     132.607 133.333 141.071  0.00  0.00    +0.000 C 
BRANCH   8   9
ATOM      9  C   UNL     1     133.469 134.062 141.708  0.00  0.00    +0.000 C 
ATOM     10  C   UNL     1     133.268 134.373 143.159  0.00  0.00    +0.000 C 
BRANCH   9  12
ATOM     11  C   UNL     1     135.455 135.169 140.405  0.00  0.00    +0.000 C 
ATOM     12  C   UNL     1     134.541 134.663 141.002  0.00  0.00    +0.000 C 
BRANCH  11  18
ATOM     13  C   UNL     1     136.245 136.800 138.675  0.00  0.00    +0.000 C 
ATOM     14  C   UNL     1     137.894 135.289 140.004  0.00  0.00    +0.000 C 
ATOM     15  C   UNL     1     137.510 137.463 138.327  0.00  0.00    +0.000 C 
ATOM     16  C   UNL     1     138.885 137.356 138.611  0.00  0.00    +0.000 C 
ATOM     17  C   UNL     1     138.866 136.229 139.459  0.00  0.00    +0.000 C 
ATOM     18  C   UNL     1     136.459 135.725 139.756  0.00  0.00    +0.000 C 
ATOM     19  C   UNL     1     135.638 136.122 137.418  0.00  0.00    +0.000 C 
ATOM     20  C   UNL     1     135.265 137.883 139.219  0.00  0.00    +0.000 C 
ATOM     21  C   UNL     1     138.132 133.871 139.476  0.00  0.00    +0.000 C 
BRANCH  14  22
ATOM     22  O   UNL     1     138.117 135.201 141.394  0.00  0.00    +0.000 OA
ATOM     23  H   UNL     1     138.356 134.261 141.492  0.00  0.00    +0.000 HD
ENDBRANCH  14  22
BRANCH  16  24
ATOM     24  O   UNL     1     139.799 137.436 137.569  0.00  0.00    +0.000 OA
BRANCH  24  26
ATOM     25  O   UNL     1     141.213 135.580 137.814  0.00  0.00    +0.000 OA
ATOM     26  C   UNL     1     140.305 136.207 137.300  0.00  0.00    +0.000 C 
ATOM     27  C   UNL     1     139.637 135.507 136.169  0.00  0.00    +0.000 C 
ENDBRANCH  24  26
ENDBRANCH  16  24
ENDBRANCH  11  18
ENDBRANCH   9  12
ENDBRANCH   8   9
ENDBRANCH   6   8
ENDBRANCH   4   7
ENDBRANCH   3   4
ENDBRANCH   2   3
BRANCH   1  28
ATOM     28  C   UNL     1     129.360 125.594 140.316  0.00  0.00    +0.000 C 
BRANCH  28  29
ATOM     29  C   UNL     1     129.247 124.341 140.626  0.00  0.00    +0.000 C 
ATOM     30  C   UNL     1     127.937 123.807 141.121  0.00  0.00    +0.000 C 
BRANCH  29  32
ATOM     31  C   UNL     1     131.322 122.759 140.443  0.00  0.00    +0.000 C 
ATOM     32  C   UNL     1     130.373 123.489 140.533  0.00  0.00    +0.000 C 
BRANCH  31  33
ATOM     33  C   UNL     1     132.528 121.821 140.314  0.00  0.00    +0.000 C 
BRANCH  33  34
ATOM     34  C   UNL     1     133.545 121.018 140.209  0.00  0.00    +0.000 C 
ATOM     35  C   UNL     1     134.452 120.902 141.417  0.00  0.00    +0.000 C 
BRANCH  34  37
ATOM     36  O   UNL     1     133.295 119.209 138.667  0.00  0.00    +0.000 OA
ATOM     37  C   UNL     1     133.808 120.293 138.927  0.00  0.00    +0.000 C 
BRANCH  37  38
ATOM     38  C   UNL     1     134.687 120.850 137.926  0.00  0.00    +0.000 C 
BRANCH  38  40
ATOM     39  O   UNL     1     135.518 122.888 137.034  0.00  0.00    +0.000 OA
ATOM     40  C   UNL     1     135.572 121.438 136.939  0.00  0.00    +0.000 C 
ATOM     41  C   UNL     1     136.762 122.300 137.411  0.00  0.00    +0.000 C 
ATOM     42  C   UNL     1     135.627 120.832 135.491  0.00  0.00    +0.000 C 
ATOM     43  C   UNL     1     137.793 122.565 136.461  0.00  0.00    +0.000 C 
ATOM     44  C   UNL     1     136.793 121.420 134.826  0.00  0.00    +0.000 C 
ATOM     45  C   UNL     1     137.924 122.210 135.108  0.00  0.00    +0.000 C 
ATOM     46  C   UNL     1     137.107 122.505 138.889  0.00  0.00    +0.000 C 
ATOM     47  C   UNL     1     135.806 119.307 135.688  0.00  0.00    +0.000 C 
ATOM     48  C   UNL     1     134.278 121.188 134.829  0.00  0.00    +0.000 C 
BRANCH  45  49
ATOM     49  O   UNL     1     139.129 121.960 134.524  0.00  0.00    +0.000 OA
ATOM     50  H   UNL     1     139.701 122.747 134.502  0.00  0.00    +0.000 HD
ENDBRANCH  45  49
ENDBRANCH  38  40
ENDBRANCH  37  38
ENDBRANCH  34  37
ENDBRANCH  33  34
ENDBRANCH  31  33
ENDBRANCH  29  32
ENDBRANCH  28  29
ENDBRANCH   1  28
TORSDOF 19
ENDMDL
MODEL 5
REMARK VINA RESULT:      -6.3     37.423     47.028
REMARK  Name = 5281239_Fucoxanthin.pdbqt.pdb
REMARK  19 active torsions:
REMARK  status: ('A' for Active; 'I' for Inactive)
REMARK    1  A    between atoms: C_1  and  C_5
REMARK    2  A    between atoms: C_2  and  C_26
REMARK    3  A    between atoms: C_3  and  C_5
REMARK    4  A    between atoms: C_3  and  C_7
REMARK    5  A    between atoms: C_6  and  C_10
REMARK    6  A    between atoms: C_8  and  C_10
REMARK    7  A    between atoms: C_8  and  C_12
REMARK    8  A    between atoms: C_12  and  C_13
REMARK    9  A    between atoms: C_13  and  C_15
REMARK   10  A    between atoms: C_20  and  O_24
REMARK   11  A    between atoms: C_26  and  C_27
REMARK   12  A    between atoms: C_27  and  C_30
REMARK   13  A    between atoms: C_29  and  C_33
REMARK   14  A    between atoms: C_31  and  C_33
REMARK   15  A    between atoms: C_31  and  C_44
REMARK   16  A    between atoms: C_35  and  O_45
REMARK   17  A    between atoms: C_37  and  O_47
REMARK   18  A    between atoms: C_39  and  C_43
REMARK   19  A    between atoms: O_47  and  C_49
REMARK                            x       y       z     vdW  Elec       q    Type
REMARK                         _______ _______ _______ _____ _____    ______ ____
ROOT
ATOM      1  C   UNL     1     145.698 117.716  92.929  0.00  0.00    +0.000 C 
ATOM      2  C   UNL     1     145.557 118.886  93.151  0.00  0.00    +0.000 C 
ENDROOT
BRANCH   2   3
ATOM      3  C   UNL     1     145.374 120.381  93.442  0.00  0.00    +0.000 C 
BRANCH   3   4
ATOM      4  C   UNL     1     145.215 121.643  93.687  0.00  0.00    +0.000 C 
ATOM      5  C   UNL     1     145.970 122.661  92.888  0.00  0.00    +0.000 C 
BRANCH   4   7
ATOM      6  C   UNL     1     143.503 122.415  95.509  0.00  0.00    +0.000 C 
ATOM      7  C   UNL     1     144.290 122.060  94.674  0.00  0.00    +0.000 C 
BRANCH   6   8
ATOM      8  C   UNL     1     142.495 122.869  96.572  0.00  0.00    +0.000 C 
BRANCH   8   9
ATOM      9  C   UNL     1     141.651 123.253  97.477  0.00  0.00    +0.000 C 
ATOM     10  C   UNL     1     140.179 123.091  97.253  0.00  0.00    +0.000 C 
BRANCH   9  12
ATOM     11  C   UNL     1     142.516 124.508  99.608  0.00  0.00    +0.000 C 
ATOM     12  C   UNL     1     142.116 123.933  98.630  0.00  0.00    +0.000 C 
BRANCH  11  18
ATOM     13  C   UNL     1     142.278 126.402 101.231  0.00  0.00    +0.000 C 
ATOM     14  C   UNL     1     144.204 124.662 101.411  0.00  0.00    +0.000 C 
ATOM     15  C   UNL     1     142.765 126.724 102.580  0.00  0.00    +0.000 C 
ATOM     16  C   UNL     1     143.736 126.281 103.498  0.00  0.00    +0.000 C 
ATOM     17  C   UNL     1     144.334 125.257 102.736  0.00  0.00    +0.000 C 
ATOM     18  C   UNL     1     142.955 125.134 100.682  0.00  0.00    +0.000 C 
ATOM     19  C   UNL     1     142.576 127.580 100.265  0.00  0.00    +0.000 C 
ATOM     20  C   UNL     1     140.740 126.163 101.316  0.00  0.00    +0.000 C 
ATOM     21  C   UNL     1     145.456 124.907 100.564  0.00  0.00    +0.000 C 
BRANCH  14  22
ATOM     22  O   UNL     1     144.143 123.263 101.573  0.00  0.00    +0.000 OA
ATOM     23  H   UNL     1     143.850 122.978 100.688  0.00  0.00    +0.000 HD
ENDBRANCH  14  22
BRANCH  16  24
ATOM     24  O   UNL     1     144.521 127.218 104.157  0.00  0.00    +0.000 OA
BRANCH  24  26
ATOM     25  O   UNL     1     145.246 125.993 106.022  0.00  0.00    +0.000 OA
ATOM     26  C   UNL     1     145.404 126.591 104.974  0.00  0.00    +0.000 C 
ATOM     27  C   UNL     1     146.816 126.657 104.509  0.00  0.00    +0.000 C 
ENDBRANCH  24  26
ENDBRANCH  16  24
ENDBRANCH  11  18
ENDBRANCH   9  12
ENDBRANCH   8   9
ENDBRANCH   6   8
ENDBRANCH   4   7
ENDBRANCH   3   4
ENDBRANCH   2   3
BRANCH   1  28
ATOM     28  C   UNL     1     145.874 116.218  92.654  0.00  0.00    +0.000 C 
BRANCH  28  29
ATOM     29  C   UNL     1     146.028 114.954  92.412  0.00  0.00    +0.000 C 
ATOM     30  C   UNL     1     145.454 114.354  91.165  0.00  0.00    +0.000 C 
BRANCH  29  32
ATOM     31  C   UNL     1     147.285 113.434  94.130  0.00  0.00    +0.000 C 
ATOM     32  C   UNL     1     146.707 114.137  93.347  0.00  0.00    +0.000 C 
BRANCH  31  33
ATOM     33  C   UNL     1     148.025 112.524  95.119  0.00  0.00    +0.000 C 
BRANCH  33  34
ATOM     34  C   UNL     1     148.647 111.757  95.964  0.00  0.00    +0.000 C 
ATOM     35  C   UNL     1     148.052 110.385  96.206  0.00  0.00    +0.000 C 
BRANCH  34  37
ATOM     36  O   UNL     1     150.545 111.524  97.397  0.00  0.00    +0.000 OA
ATOM     37  C   UNL     1     149.862 112.251  96.682  0.00  0.00    +0.000 C 
BRANCH  37  38
ATOM     38  C   UNL     1     150.292 113.624  96.558  0.00  0.00    +0.000 C 
BRANCH  38  40
ATOM     39  O   UNL     1     150.680 115.620  97.785  0.00  0.00    +0.000 OA
ATOM     40  C   UNL     1     150.723 115.005  96.468  0.00  0.00    +0.000 C 
ATOM     41  C   UNL     1     151.985 115.452  97.236  0.00  0.00    +0.000 C 
ATOM     42  C   UNL     1     150.239 115.891  95.264  0.00  0.00    +0.000 C 
ATOM     43  C   UNL     1     152.574 116.696  96.856  0.00  0.00    +0.000 C 
ATOM     44  C   UNL     1     151.053 117.108  95.274  0.00  0.00    +0.000 C 
ATOM     45  C   UNL     1     152.190 117.654  95.902  0.00  0.00    +0.000 C 
ATOM     46  C   UNL     1     152.860 114.483  98.036  0.00  0.00    +0.000 C 
ATOM     47  C   UNL     1     150.511 115.047  93.995  0.00  0.00    +0.000 C 
ATOM     48  C   UNL     1     148.732 116.137  95.498  0.00  0.00    +0.000 C 
BRANCH  45  49
ATOM     49  O   UNL     1     153.088 118.409  95.213  0.00  0.00    +0.000 OA
ATOM     50  H   UNL     1     152.929 119.364  95.319  0.00  0.00    +0.000 HD
ENDBRANCH  45  49
ENDBRANCH  38  40
ENDBRANCH  37  38
ENDBRANCH  34  37
ENDBRANCH  33  34
ENDBRANCH  31  33
ENDBRANCH  29  32
ENDBRANCH  28  29
ENDBRANCH   1  28
TORSDOF 19
ENDMDL
MODEL 6
REMARK VINA RESULT:      -6.1     19.231     26.149
REMARK  Name = 5281239_Fucoxanthin.pdbqt.pdb
REMARK  19 active torsions:
REMARK  status: ('A' for Active; 'I' for Inactive)
REMARK    1  A    between atoms: C_1  and  C_5
REMARK    2  A    between atoms: C_2  and  C_26
REMARK    3  A    between atoms: C_3  and  C_5
REMARK    4  A    between atoms: C_3  and  C_7
REMARK    5  A    between atoms: C_6  and  C_10
REMARK    6  A    between atoms: C_8  and  C_10
REMARK    7  A    between atoms: C_8  and  C_12
REMARK    8  A    between atoms: C_12  and  C_13
REMARK    9  A    between atoms: C_13  and  C_15
REMARK   10  A    between atoms: C_20  and  O_24
REMARK   11  A    between atoms: C_26  and  C_27
REMARK   12  A    between atoms: C_27  and  C_30
REMARK   13  A    between atoms: C_29  and  C_33
REMARK   14  A    between atoms: C_31  and  C_33
REMARK   15  A    between atoms: C_31  and  C_44
REMARK   16  A    between atoms: C_35  and  O_45
REMARK   17  A    between atoms: C_37  and  O_47
REMARK   18  A    between atoms: C_39  and  C_43
REMARK   19  A    between atoms: O_47  and  C_49
REMARK                            x       y       z     vdW  Elec       q    Type
REMARK                         _______ _______ _______ _____ _____    ______ ____
ROOT
ATOM      1  C   UNL     1     153.203 132.233 125.178  0.00  0.00    +0.000 C 
ATOM      2  C   UNL     1     154.076 132.334 124.360  0.00  0.00    +0.000 C 
ENDROOT
BRANCH   2   3
ATOM      3  C   UNL     1     155.192 132.470 123.318  0.00  0.00    +0.000 C 
BRANCH   3   4
ATOM      4  C   UNL     1     156.135 132.589 122.437  0.00  0.00    +0.000 C 
ATOM      5  C   UNL     1     156.828 133.905 122.257  0.00  0.00    +0.000 C 
BRANCH   4   7
ATOM      6  C   UNL     1     156.888 130.505 121.046  0.00  0.00    +0.000 C 
ATOM      7  C   UNL     1     156.544 131.463 121.684  0.00  0.00    +0.000 C 
BRANCH   6   8
ATOM      8  C   UNL     1     157.323 129.281 120.232  0.00  0.00    +0.000 C 
BRANCH   8   9
ATOM      9  C   UNL     1     157.696 128.242 119.552  0.00  0.00    +0.000 C 
ATOM     10  C   UNL     1     158.810 127.374 120.052  0.00  0.00    +0.000 C 
BRANCH   9  12
ATOM     11  C   UNL     1     156.643 127.778 117.198  0.00  0.00    +0.000 C 
ATOM     12  C   UNL     1     157.128 127.993 118.278  0.00  0.00    +0.000 C 
BRANCH  11  18
ATOM     13  C   UNL     1     154.592 127.486 115.789  0.00  0.00    +0.000 C 
ATOM     14  C   UNL     1     156.989 127.239 114.809  0.00  0.00    +0.000 C 
ATOM     15  C   UNL     1     154.266 127.503 114.356  0.00  0.00    +0.000 C 
ATOM     16  C   UNL     1     154.923 127.458 113.111  0.00  0.00    +0.000 C 
ATOM     17  C   UNL     1     156.257 127.335 113.551  0.00  0.00    +0.000 C 
ATOM     18  C   UNL     1     156.113 127.538 116.015  0.00  0.00    +0.000 C 
ATOM     19  C   UNL     1     154.038 126.192 116.443  0.00  0.00    +0.000 C 
ATOM     20  C   UNL     1     153.936 128.737 116.449  0.00  0.00    +0.000 C 
ATOM     21  C   UNL     1     157.673 125.876 114.954  0.00  0.00    +0.000 C 
BRANCH  14  22
ATOM     22  O   UNL     1     158.045 128.172 114.762  0.00  0.00    +0.000 OA
ATOM     23  H   UNL     1     158.685 127.771 115.379  0.00  0.00    +0.000 HD
ENDBRANCH  14  22
BRANCH  16  24
ATOM     24  O   UNL     1     154.431 126.624 112.116  0.00  0.00    +0.000 OA
BRANCH  24  26
ATOM     25  O   UNL     1     153.120 127.065 110.221  0.00  0.00    +0.000 OA
ATOM     26  C   UNL     1     153.884 127.364 111.120  0.00  0.00    +0.000 C 
ATOM     27  C   UNL     1     154.303 128.792 111.123  0.00  0.00    +0.000 C 
ENDBRANCH  24  26
ENDBRANCH  16  24
ENDBRANCH  11  18
ENDBRANCH   9  12
ENDBRANCH   8   9
ENDBRANCH   6   8
ENDBRANCH   4   7
ENDBRANCH   3   4
ENDBRANCH   2   3
BRANCH   1  28
ATOM     28  C   UNL     1     152.091 132.113 126.226  0.00  0.00    +0.000 C 
BRANCH  28  29
ATOM     29  C   UNL     1     151.156 132.021 127.118  0.00  0.00    +0.000 C 
ATOM     30  C   UNL     1     149.736 131.800 126.695  0.00  0.00    +0.000 C 
BRANCH  29  32
ATOM     31  C   UNL     1     151.752 132.303 129.650  0.00  0.00    +0.000 C 
ATOM     32  C   UNL     1     151.475 132.166 128.490  0.00  0.00    +0.000 C 
BRANCH  31  33
ATOM     33  C   UNL     1     152.112 132.491 131.129  0.00  0.00    +0.000 C 
BRANCH  33  34
ATOM     34  C   UNL     1     152.411 132.645 132.385  0.00  0.00    +0.000 C 
ATOM     35  C   UNL     1     152.077 133.986 133.006  0.00  0.00    +0.000 C 
BRANCH  34  37
ATOM     36  O   UNL     1     154.130 131.026 132.747  0.00  0.00    +0.000 OA
ATOM     37  C   UNL     1     153.093 131.550 133.141  0.00  0.00    +0.000 C 
BRANCH  37  38
ATOM     38  C   UNL     1     152.552 131.059 134.386  0.00  0.00    +0.000 C 
BRANCH  38  40
ATOM     39  O   UNL     1     151.516 129.235 135.502  0.00  0.00    +0.000 OA
ATOM     40  C   UNL     1     152.003 130.598 135.647  0.00  0.00    +0.000 C 
ATOM     41  C   UNL     1     152.650 129.388 136.353  0.00  0.00    +0.000 C 
ATOM     42  C   UNL     1     151.119 131.571 136.507  0.00  0.00    +0.000 C 
ATOM     43  C   UNL     1     152.323 129.183 137.728  0.00  0.00    +0.000 C 
ATOM     44  C   UNL     1     150.964 130.953 137.826  0.00  0.00    +0.000 C 
ATOM     45  C   UNL     1     151.458 129.878 138.591  0.00  0.00    +0.000 C 
ATOM     46  C   UNL     1     153.905 128.688 135.825  0.00  0.00    +0.000 C 
ATOM     47  C   UNL     1     151.926 132.889 136.600  0.00  0.00    +0.000 C 
ATOM     48  C   UNL     1     149.795 131.741 135.730  0.00  0.00    +0.000 C 
BRANCH  45  49
ATOM     49  O   UNL     1     151.695 130.006 139.926  0.00  0.00    +0.000 OA
ATOM     50  H   UNL     1     151.192 129.362 140.455  0.00  0.00    +0.000 HD
ENDBRANCH  45  49
ENDBRANCH  38  40
ENDBRANCH  37  38
ENDBRANCH  34  37
ENDBRANCH  33  34
ENDBRANCH  31  33
ENDBRANCH  29  32
ENDBRANCH  28  29
ENDBRANCH   1  28
TORSDOF 19
ENDMDL
MODEL 7
REMARK VINA RESULT:      -6.1     27.605     35.093
REMARK  Name = 5281239_Fucoxanthin.pdbqt.pdb
REMARK  19 active torsions:
REMARK  status: ('A' for Active; 'I' for Inactive)
REMARK    1  A    between atoms: C_1  and  C_5
REMARK    2  A    between atoms: C_2  and  C_26
REMARK    3  A    between atoms: C_3  and  C_5
REMARK    4  A    between atoms: C_3  and  C_7
REMARK    5  A    between atoms: C_6  and  C_10
REMARK    6  A    between atoms: C_8  and  C_10
REMARK    7  A    between atoms: C_8  and  C_12
REMARK    8  A    between atoms: C_12  and  C_13
REMARK    9  A    between atoms: C_13  and  C_15
REMARK   10  A    between atoms: C_20  and  O_24
REMARK   11  A    between atoms: C_26  and  C_27
REMARK   12  A    between atoms: C_27  and  C_30
REMARK   13  A    between atoms: C_29  and  C_33
REMARK   14  A    between atoms: C_31  and  C_33
REMARK   15  A    between atoms: C_31  and  C_44
REMARK   16  A    between atoms: C_35  and  O_45
REMARK   17  A    between atoms: C_37  and  O_47
REMARK   18  A    between atoms: C_39  and  C_43
REMARK   19  A    between atoms: O_47  and  C_49
REMARK                            x       y       z     vdW  Elec       q    Type
REMARK                         _______ _______ _______ _____ _____    ______ ____
ROOT
ATOM      1  C   UNL     1     145.307 114.203 113.351  0.00  0.00    +0.000 C 
ATOM      2  C   UNL     1     146.498 114.101 113.456  0.00  0.00    +0.000 C 
ENDROOT
BRANCH   2   3
ATOM      3  C   UNL     1     148.019 113.964 113.596  0.00  0.00    +0.000 C 
BRANCH   3   4
ATOM      4  C   UNL     1     149.304 113.853 113.714  0.00  0.00    +0.000 C 
ATOM      5  C   UNL     1     150.117 113.322 112.572  0.00  0.00    +0.000 C 
BRANCH   4   7
ATOM      6  C   UNL     1     150.489 114.642 115.910  0.00  0.00    +0.000 C 
ATOM      7  C   UNL     1     149.944 114.281 114.902  0.00  0.00    +0.000 C 
BRANCH   6   8
ATOM      8  C   UNL     1     151.189 115.102 117.193  0.00  0.00    +0.000 C 
BRANCH   8   9
ATOM      9  C   UNL     1     151.788 115.496 118.274  0.00  0.00    +0.000 C 
ATOM     10  C   UNL     1     153.142 116.131 118.195  0.00  0.00    +0.000 C 
BRANCH   9  12
ATOM     11  C   UNL     1     150.730 114.985 120.615  0.00  0.00    +0.000 C 
ATOM     12  C   UNL     1     151.213 115.220 119.539  0.00  0.00    +0.000 C 
BRANCH  11  18
ATOM     13  C   UNL     1     149.588 113.356 122.138  0.00  0.00    +0.000 C 
ATOM     14  C   UNL     1     150.123 115.793 122.874  0.00  0.00    +0.000 C 
ATOM     15  C   UNL     1     149.348 113.227 123.582  0.00  0.00    +0.000 C 
ATOM     16  C   UNL     1     149.422 114.009 124.750  0.00  0.00    +0.000 C 
ATOM     17  C   UNL     1     149.828 115.237 124.189  0.00  0.00    +0.000 C 
ATOM     18  C   UNL     1     150.202 114.724 121.795  0.00  0.00    +0.000 C 
ATOM     19  C   UNL     1     148.251 113.207 121.364  0.00  0.00    +0.000 C 
ATOM     20  C   UNL     1     150.577 112.230 121.709  0.00  0.00    +0.000 C 
ATOM     21  C   UNL     1     149.116 116.882 122.490  0.00  0.00    +0.000 C 
BRANCH  14  22
ATOM     22  O   UNL     1     151.363 116.459 122.958  0.00  0.00    +0.000 OA
ATOM     23  H   UNL     1     151.784 116.190 122.121  0.00  0.00    +0.000 HD
ENDBRANCH  14  22
BRANCH  16  24
ATOM     24  O   UNL     1     148.375 113.964 125.662  0.00  0.00    +0.000 OA
BRANCH  24  26
ATOM     25  O   UNL     1     149.523 113.084 127.509  0.00  0.00    +0.000 OA
ATOM     26  C   UNL     1     148.863 113.925 126.926  0.00  0.00    +0.000 C 
ATOM     27  C   UNL     1     148.518 115.116 127.749  0.00  0.00    +0.000 C 
ENDBRANCH  24  26
ENDBRANCH  16  24
ENDBRANCH  11  18
ENDBRANCH   9  12
ENDBRANCH   8   9
ENDBRANCH   6   8
ENDBRANCH   4   7
ENDBRANCH   3   4
ENDBRANCH   2   3
BRANCH   1  28
ATOM     28  C   UNL     1     143.784 114.328 113.224  0.00  0.00    +0.000 C 
BRANCH  28  29
ATOM     29  C   UNL     1     142.497 114.424 113.110  0.00  0.00    +0.000 C 
ATOM     30  C   UNL     1     141.649 114.626 114.329  0.00  0.00    +0.000 C 
BRANCH  29  32
ATOM     31  C   UNL     1     141.367 114.192 110.762  0.00  0.00    +0.000 C 
ATOM     32  C   UNL     1     141.893 114.299 111.836  0.00  0.00    +0.000 C 
BRANCH  31  33
ATOM     33  C   UNL     1     140.682 114.054 109.397  0.00  0.00    +0.000 C 
BRANCH  33  34
ATOM     34  C   UNL     1     140.093 113.932 108.244  0.00  0.00    +0.000 C 
ATOM     35  C   UNL     1     138.608 113.635 108.263  0.00  0.00    +0.000 C 
BRANCH  34  37
ATOM     36  O   UNL     1     140.359 113.970 105.869  0.00  0.00    +0.000 OA
ATOM     37  C   UNL     1     140.881 114.039 106.977  0.00  0.00    +0.000 C 
BRANCH  37  38
ATOM     38  C   UNL     1     142.311 114.236 107.007  0.00  0.00    +0.000 C 
BRANCH  38  40
ATOM     39  O   UNL     1     144.383 113.325 106.285  0.00  0.00    +0.000 OA
ATOM     40  C   UNL     1     143.752 114.399 107.036  0.00  0.00    +0.000 C 
ATOM     41  C   UNL     1     144.512 114.625 105.712  0.00  0.00    +0.000 C 
ATOM     42  C   UNL     1     144.455 114.826 108.374  0.00  0.00    +0.000 C 
ATOM     43  C   UNL     1     145.847 115.123 105.802  0.00  0.00    +0.000 C 
ATOM     44  C   UNL     1     145.831 115.196 108.034  0.00  0.00    +0.000 C 
ATOM     45  C   UNL     1     146.653 115.426 106.913  0.00  0.00    +0.000 C 
ATOM     46  C   UNL     1     143.806 114.765 104.360  0.00  0.00    +0.000 C 
ATOM     47  C   UNL     1     143.659 116.050 108.887  0.00  0.00    +0.000 C 
ATOM     48  C   UNL     1     144.344 113.610 109.319  0.00  0.00    +0.000 C 
BRANCH  45  49
ATOM     49  O   UNL     1     147.577 116.426 106.902  0.00  0.00    +0.000 OA
ATOM     50  H   UNL     1     148.040 116.494 106.048  0.00  0.00    +0.000 HD
ENDBRANCH  45  49
ENDBRANCH  38  40
ENDBRANCH  37  38
ENDBRANCH  34  37
ENDBRANCH  33  34
ENDBRANCH  31  33
ENDBRANCH  29  32
ENDBRANCH  28  29
ENDBRANCH   1  28
TORSDOF 19
ENDMDL
MODEL 8
REMARK VINA RESULT:      -6.1     24.302     31.179
REMARK  Name = 5281239_Fucoxanthin.pdbqt.pdb
REMARK  19 active torsions:
REMARK  status: ('A' for Active; 'I' for Inactive)
REMARK    1  A    between atoms: C_1  and  C_5
REMARK    2  A    between atoms: C_2  and  C_26
REMARK    3  A    between atoms: C_3  and  C_5
REMARK    4  A    between atoms: C_3  and  C_7
REMARK    5  A    between atoms: C_6  and  C_10
REMARK    6  A    between atoms: C_8  and  C_10
REMARK    7  A    between atoms: C_8  and  C_12
REMARK    8  A    between atoms: C_12  and  C_13
REMARK    9  A    between atoms: C_13  and  C_15
REMARK   10  A    between atoms: C_20  and  O_24
REMARK   11  A    between atoms: C_26  and  C_27
REMARK   12  A    between atoms: C_27  and  C_30
REMARK   13  A    between atoms: C_29  and  C_33
REMARK   14  A    between atoms: C_31  and  C_33
REMARK   15  A    between atoms: C_31  and  C_44
REMARK   16  A    between atoms: C_35  and  O_45
REMARK   17  A    between atoms: C_37  and  O_47
REMARK   18  A    between atoms: C_39  and  C_43
REMARK   19  A    between atoms: O_47  and  C_49
REMARK                            x       y       z     vdW  Elec       q    Type
REMARK                         _______ _______ _______ _____ _____    ______ ____
ROOT
ATOM      1  C   UNL     1     150.746 115.336 119.860  0.00  0.00    +0.000 C 
ATOM      2  C   UNL     1     150.726 115.028 118.700  0.00  0.00    +0.000 C 
ENDROOT
BRANCH   2   3
ATOM      3  C   UNL     1     150.697 114.642 117.216  0.00  0.00    +0.000 C 
BRANCH   3   4
ATOM      4  C   UNL     1     150.670 114.318 115.962  0.00  0.00    +0.000 C 
ATOM      5  C   UNL     1     151.888 114.519 115.111  0.00  0.00    +0.000 C 
BRANCH   4   7
ATOM      6  C   UNL     1     148.520 113.231 114.941  0.00  0.00    +0.000 C 
ATOM      7  C   UNL     1     149.508 113.728 115.410  0.00  0.00    +0.000 C 
BRANCH   6   8
ATOM      8  C   UNL     1     147.259 112.600 114.340  0.00  0.00    +0.000 C 
BRANCH   8   9
ATOM      9  C   UNL     1     146.194 112.072 113.823  0.00  0.00    +0.000 C 
ATOM     10  C   UNL     1     146.156 110.610 113.502  0.00  0.00    +0.000 C 
BRANCH   9  12
ATOM     11  C   UNL     1     144.180 113.602 113.137  0.00  0.00    +0.000 C 
ATOM     12  C   UNL     1     145.105 112.902 113.454  0.00  0.00    +0.000 C 
BRANCH  11  18
ATOM     13  C   UNL     1     141.708 114.013 113.121  0.00  0.00    +0.000 C 
ATOM     14  C   UNL     1     143.386 115.633 111.969  0.00  0.00    +0.000 C 
ATOM     15  C   UNL     1     140.815 115.156 112.890  0.00  0.00    +0.000 C 
ATOM     16  C   UNL     1     140.865 116.461 112.363  0.00  0.00    +0.000 C 
ATOM     17  C   UNL     1     142.218 116.507 111.970  0.00  0.00    +0.000 C 
ATOM     18  C   UNL     1     143.167 114.369 112.785  0.00  0.00    +0.000 C 
ATOM     19  C   UNL     1     141.275 112.814 112.235  0.00  0.00    +0.000 C 
ATOM     20  C   UNL     1     141.613 113.620 114.627  0.00  0.00    +0.000 C 
ATOM     21  C   UNL     1     143.828 115.293 110.543  0.00  0.00    +0.000 C 
BRANCH  14  22
ATOM     22  O   UNL     1     144.463 116.358 112.520  0.00  0.00    +0.000 OA
ATOM     23  H   UNL     1     143.994 117.039 113.037  0.00  0.00    +0.000 HD
ENDBRANCH  14  22
BRANCH  16  24
ATOM     24  O   UNL     1     139.866 116.880 111.495  0.00  0.00    +0.000 OA
BRANCH  24  26
ATOM     25  O   UNL     1     138.148 117.054 113.084  0.00  0.00    +0.000 OA
ATOM     26  C   UNL     1     138.648 116.656 112.048  0.00  0.00    +0.000 C 
ATOM     27  C   UNL     1     137.773 115.754 111.249  0.00  0.00    +0.000 C 
ENDBRANCH  24  26
ENDBRANCH  16  24
ENDBRANCH  11  18
ENDBRANCH   9  12
ENDBRANCH   8   9
ENDBRANCH   6   8
ENDBRANCH   4   7
ENDBRANCH   3   4
ENDBRANCH   2   3
BRANCH   1  28
ATOM     28  C   UNL     1     150.767 115.738 121.339  0.00  0.00    +0.000 C 
BRANCH  28  29
ATOM     29  C   UNL     1     150.793 116.087 122.586  0.00  0.00    +0.000 C 
ATOM     30  C   UNL     1     150.574 115.061 123.656  0.00  0.00    +0.000 C 
BRANCH  29  32
ATOM     31  C   UNL     1     151.165 118.599 123.217  0.00  0.00    +0.000 C 
ATOM     32  C   UNL     1     150.989 117.445 122.933  0.00  0.00    +0.000 C 
BRANCH  31  33
ATOM     33  C   UNL     1     151.402 120.072 123.569  0.00  0.00    +0.000 C 
BRANCH  33  34
ATOM     34  C   UNL     1     151.612 121.319 123.871  0.00  0.00    +0.000 C 
ATOM     35  C   UNL     1     151.016 122.356 122.940  0.00  0.00    +0.000 C 
BRANCH  34  37
ATOM     36  O   UNL     1     153.181 122.663 125.072  0.00  0.00    +0.000 OA
ATOM     37  C   UNL     1     152.445 121.681 125.059  0.00  0.00    +0.000 C 
BRANCH  37  38
ATOM     38  C   UNL     1     152.414 120.880 126.259  0.00  0.00    +0.000 C 
BRANCH  38  40
ATOM     39  O   UNL     1     152.516 118.648 127.067  0.00  0.00    +0.000 OA
ATOM     40  C   UNL     1     152.381 120.046 127.445  0.00  0.00    +0.000 C 
ATOM     41  C   UNL     1     153.614 119.189 127.799  0.00  0.00    +0.000 C 
ATOM     42  C   UNL     1     151.351 120.367 128.588  0.00  0.00    +0.000 C 
ATOM     43  C   UNL     1     153.687 118.666 129.126  0.00  0.00    +0.000 C 
ATOM     44  C   UNL     1     151.744 119.570 129.752  0.00  0.00    +0.000 C 
ATOM     45  C   UNL     1     152.795 118.752 130.209  0.00  0.00    +0.000 C 
ATOM     46  C   UNL     1     154.917 119.232 126.996  0.00  0.00    +0.000 C 
ATOM     47  C   UNL     1     151.506 121.881 128.869  0.00  0.00    +0.000 C 
ATOM     48  C   UNL     1     149.960 120.010 128.018  0.00  0.00    +0.000 C 
BRANCH  45  49
ATOM     49  O   UNL     1     153.212 118.787 131.505  0.00  0.00    +0.000 OA
ATOM     50  H   UNL     1     152.976 117.978 131.993  0.00  0.00    +0.000 HD
ENDBRANCH  45  49
ENDBRANCH  38  40
ENDBRANCH  37  38
ENDBRANCH  34  37
ENDBRANCH  33  34
ENDBRANCH  31  33
ENDBRANCH  29  32
ENDBRANCH  28  29
ENDBRANCH   1  28
TORSDOF 19
ENDMDL
MODEL 9
REMARK VINA RESULT:      -6.1     31.948     38.318
REMARK  Name = 5281239_Fucoxanthin.pdbqt.pdb
REMARK  19 active torsions:
REMARK  status: ('A' for Active; 'I' for Inactive)
REMARK    1  A    between atoms: C_1  and  C_5
REMARK    2  A    between atoms: C_2  and  C_26
REMARK    3  A    between atoms: C_3  and  C_5
REMARK    4  A    between atoms: C_3  and  C_7
REMARK    5  A    between atoms: C_6  and  C_10
REMARK    6  A    between atoms: C_8  and  C_10
REMARK    7  A    between atoms: C_8  and  C_12
REMARK    8  A    between atoms: C_12  and  C_13
REMARK    9  A    between atoms: C_13  and  C_15
REMARK   10  A    between atoms: C_20  and  O_24
REMARK   11  A    between atoms: C_26  and  C_27
REMARK   12  A    between atoms: C_27  and  C_30
REMARK   13  A    between atoms: C_29  and  C_33
REMARK   14  A    between atoms: C_31  and  C_33
REMARK   15  A    between atoms: C_31  and  C_44
REMARK   16  A    between atoms: C_35  and  O_45
REMARK   17  A    between atoms: C_37  and  O_47
REMARK   18  A    between atoms: C_39  and  C_43
REMARK   19  A    between atoms: O_47  and  C_49
REMARK                            x       y       z     vdW  Elec       q    Type
REMARK                         _______ _______ _______ _____ _____    ______ ____
ROOT
ATOM      1  C   UNL     1     154.827 120.347 113.616  0.00  0.00    +0.000 C 
ATOM      2  C   UNL     1     155.039 119.664 112.653  0.00  0.00    +0.000 C 
ENDROOT
BRANCH   2   3
ATOM      3  C   UNL     1     155.305 118.793 111.418  0.00  0.00    +0.000 C 
BRANCH   3   4
ATOM      4  C   UNL     1     155.528 118.061 110.373  0.00  0.00    +0.000 C 
ATOM      5  C   UNL     1     155.277 116.585 110.426  0.00  0.00    +0.000 C 
BRANCH   4   7
ATOM      6  C   UNL     1     156.330 119.179 108.147  0.00  0.00    +0.000 C 
ATOM      7  C   UNL     1     155.961 118.665 109.168  0.00  0.00    +0.000 C 
BRANCH   6   8
ATOM      8  C   UNL     1     156.806 119.832 106.845  0.00  0.00    +0.000 C 
BRANCH   8   9
ATOM      9  C   UNL     1     157.216 120.391 105.748  0.00  0.00    +0.000 C 
ATOM     10  C   UNL     1     157.789 119.555 104.645  0.00  0.00    +0.000 C 
BRANCH   9  12
ATOM     11  C   UNL     1     157.234 123.003 105.549  0.00  0.00    +0.000 C 
ATOM     12  C   UNL     1     157.229 121.804 105.640  0.00  0.00    +0.000 C 
BRANCH  11  18
ATOM     13  C   UNL     1     158.538 125.133 105.346  0.00  0.00    +0.000 C 
ATOM     14  C   UNL     1     155.940 125.111 105.476  0.00  0.00    +0.000 C 
ATOM     15  C   UNL     1     158.268 126.519 104.942  0.00  0.00    +0.000 C 
ATOM     16  C   UNL     1     157.169 127.367 104.705  0.00  0.00    +0.000 C 
ATOM     17  C   UNL     1     156.115 126.484 105.016  0.00  0.00    +0.000 C 
ATOM     18  C   UNL     1     157.237 124.317 105.446  0.00  0.00    +0.000 C 
ATOM     19  C   UNL     1     159.242 125.111 106.729  0.00  0.00    +0.000 C 
ATOM     20  C   UNL     1     159.464 124.487 104.270  0.00  0.00    +0.000 C 
ATOM     21  C   UNL     1     155.305 125.065 106.869  0.00  0.00    +0.000 C 
BRANCH  14  22
ATOM     22  O   UNL     1     155.000 124.492 104.627  0.00  0.00    +0.000 OA
ATOM     23  H   UNL     1     154.237 125.094 104.712  0.00  0.00    +0.000 HD
ENDBRANCH  14  22
BRANCH  16  24
ATOM     24  O   UNL     1     157.184 128.655 105.224  0.00  0.00    +0.000 OA
BRANCH  24  26
ATOM     25  O   UNL     1     155.839 129.781 103.666  0.00  0.00    +0.000 OA
ATOM     26  C   UNL     1     156.881 129.550 104.252  0.00  0.00    +0.000 C 
ATOM     27  C   UNL     1     158.030 130.391 103.818  0.00  0.00    +0.000 C 
ENDBRANCH  24  26
ENDBRANCH  16  24
ENDBRANCH  11  18
ENDBRANCH   9  12
ENDBRANCH   8   9
ENDBRANCH   6   8
ENDBRANCH   4   7
ENDBRANCH   3   4
ENDBRANCH   2   3
BRANCH   1  28
ATOM     28  C   UNL     1     154.548 121.225 114.841  0.00  0.00    +0.000 C 
BRANCH  28  29
ATOM     29  C   UNL     1     154.319 121.961 115.882  0.00  0.00    +0.000 C 
ATOM     30  C   UNL     1     153.986 121.319 117.195  0.00  0.00    +0.000 C 
BRANCH  29  32
ATOM     31  C   UNL     1     154.376 124.569 115.684  0.00  0.00    +0.000 C 
ATOM     32  C   UNL     1     154.347 123.372 115.768  0.00  0.00    +0.000 C 
BRANCH  31  33
ATOM     33  C   UNL     1     154.416 126.099 115.592  0.00  0.00    +0.000 C 
BRANCH  33  34
ATOM     34  C   UNL     1     154.446 127.397 115.523  0.00  0.00    +0.000 C 
ATOM     35  C   UNL     1     155.220 128.121 116.606  0.00  0.00    +0.000 C 
BRANCH  34  37
ATOM     36  O   UNL     1     152.617 128.650 114.631  0.00  0.00    +0.000 OA
ATOM     37  C   UNL     1     153.704 128.114 114.440  0.00  0.00    +0.000 C 
BRANCH  37  38
ATOM     38  C   UNL     1     154.246 128.210 113.106  0.00  0.00    +0.000 C 
BRANCH  38  40
ATOM     39  O   UNL     1     154.486 129.567 111.171  0.00  0.00    +0.000 OA
ATOM     40  C   UNL     1     154.786 128.272 111.761  0.00  0.00    +0.000 C 
ATOM     41  C   UNL     1     155.867 129.323 111.430  0.00  0.00    +0.000 C 
ATOM     42  C   UNL     1     154.655 127.024 110.816  0.00  0.00    +0.000 C 
ATOM     43  C   UNL     1     156.616 129.133 110.229  0.00  0.00    +0.000 C 
ATOM     44  C   UNL     1     155.531 127.264 109.667  0.00  0.00    +0.000 C 
ATOM     45  C   UNL     1     156.530 128.153 109.225  0.00  0.00    +0.000 C 
ATOM     46  C   UNL     1     156.464 130.263 112.481  0.00  0.00    +0.000 C 
ATOM     47  C   UNL     1     155.149 125.819 111.653  0.00  0.00    +0.000 C 
ATOM     48  C   UNL     1     153.156 126.919 110.457  0.00  0.00    +0.000 C 
BRANCH  45  49
ATOM     49  O   UNL     1     157.614 127.714 108.529  0.00  0.00    +0.000 OA
ATOM     50  H   UNL     1     157.758 128.219 107.709  0.00  0.00    +0.000 HD
ENDBRANCH  45  49
ENDBRANCH  38  40
ENDBRANCH  37  38
ENDBRANCH  34  37
ENDBRANCH  33  34
ENDBRANCH  31  33
ENDBRANCH  29  32
ENDBRANCH  28  29
ENDBRANCH   1  28
TORSDOF 19
ENDMDL
