MODEL 1
REMARK VINA RESULT:      -7.4      0.000      0.000
REMARK  Name = 5289155_Peridinin.pdbqt.pdb
REMARK  13 active torsions:
REMARK  status: ('A' for Active; 'I' for Inactive)
REMARK    1  A    between atoms: C_1  and  C_3
REMARK    2  A    between atoms: C_3  and  C_25
REMARK    3  A    between atoms: C_6  and  C_12
REMARK    4  A    between atoms: C_11  and  C_14
REMARK    5  A    between atoms: C_19  and  O_23
REMARK    6  A    between atoms: C_26  and  C_28
REMARK    7  A    between atoms: C_27  and  C_31
REMARK    8  A    between atoms: C_29  and  C_31
REMARK    9  A    between atoms: C_29  and  C_42
REMARK   10  A    between atoms: C_33  and  O_43
REMARK   11  A    between atoms: C_35  and  O_45
REMARK   12  A    between atoms: C_37  and  C_41
REMARK   13  A    between atoms: O_45  and  C_47
REMARK                            x       y       z     vdW  Elec       q    Type
REMARK                         _______ _______ _______ _____ _____    ______ ____
ROOT
ATOM      1  C   UNL     1     134.553 124.937 143.712  0.00  0.00    +0.000 C 
ENDROOT
BRANCH   1   2
ATOM      2  C   UNL     1     134.171 125.480 144.825  0.00  0.00    +0.000 C 
ATOM      3  C   UNL     1     132.716 125.539 145.173  0.00  0.00    +0.000 C 
ATOM      4  O   UNL     1     137.228 126.910 146.091  0.00  0.00    +0.000 OA
ATOM      5  O   UNL     1     138.784 128.253 147.163  0.00  0.00    +0.000 OA
ATOM      6  C   UNL     1     136.693 127.669 148.224  0.00  0.00    +0.000 C 
ATOM      7  C   UNL     1     135.708 126.948 147.829  0.00  0.00    +0.000 C 
ATOM      8  C   UNL     1     137.711 127.675 147.147  0.00  0.00    +0.000 C 
ATOM      9  C   UNL     1     136.004 126.447 146.565  0.00  0.00    +0.000 C 
ATOM     10  C   UNL     1     135.129 125.986 145.732  0.00  0.00    +0.000 C 
BRANCH   6  12
ATOM     11  C   UNL     1     136.784 128.909 150.517  0.00  0.00    +0.000 C 
ATOM     12  C   UNL     1     136.743 128.334 149.463  0.00  0.00    +0.000 C 
BRANCH  11  14
ATOM     13  O   UNL     1     135.496 130.042 152.172  0.00  0.00    +0.000 OA
ATOM     14  C   UNL     1     136.834 129.616 151.787  0.00  0.00    +0.000 C 
ATOM     15  C   UNL     1     136.078 129.041 153.004  0.00  0.00    +0.000 C 
ATOM     16  C   UNL     1     137.997 130.634 152.057  0.00  0.00    +0.000 C 
ATOM     17  C   UNL     1     136.431 129.547 154.291  0.00  0.00    +0.000 C 
ATOM     18  C   UNL     1     137.971 130.945 153.489  0.00  0.00    +0.000 C 
ATOM     19  C   UNL     1     137.352 130.534 154.685  0.00  0.00    +0.000 C 
ATOM     20  C   UNL     1     135.326 127.707 152.977  0.00  0.00    +0.000 C 
ATOM     21  C   UNL     1     139.304 129.887 151.682  0.00  0.00    +0.000 C 
ATOM     22  C   UNL     1     137.729 131.858 151.155  0.00  0.00    +0.000 C 
BRANCH  19  23
ATOM     23  O   UNL     1     138.042 130.471 155.858  0.00  0.00    +0.000 OA
ATOM     24  H   UNL     1     138.734 129.786 155.844  0.00  0.00    +0.000 HD
ENDBRANCH  19  23
ENDBRANCH  11  14
ENDBRANCH   6  12
ENDBRANCH   1   2
BRANCH   1  25
ATOM     25  C   UNL     1     135.006 124.295 142.396  0.00  0.00    +0.000 C 
ATOM     26  C   UNL     1     135.355 123.792 141.364  0.00  0.00    +0.000 C 
BRANCH  26  28
ATOM     27  C   UNL     1     136.139 122.649 139.010  0.00  0.00    +0.000 C 
ATOM     28  C   UNL     1     135.793 123.148 140.045  0.00  0.00    +0.000 C 
BRANCH  27  29
ATOM     29  C   UNL     1     136.581 122.017 137.684  0.00  0.00    +0.000 C 
BRANCH  29  30
ATOM     30  C   UNL     1     136.944 121.487 136.560  0.00  0.00    +0.000 C 
ATOM     31  C   UNL     1     136.577 120.070 136.237  0.00  0.00    +0.000 C 
BRANCH  30  33
ATOM     32  C   UNL     1     138.415 122.864 134.884  0.00  0.00    +0.000 C 
ATOM     33  C   UNL     1     137.740 122.231 135.652  0.00  0.00    +0.000 C 
BRANCH  32  39
ATOM     34  C   UNL     1     140.671 123.753 134.252  0.00  0.00    +0.000 C 
ATOM     35  C   UNL     1     138.541 124.264 132.849  0.00  0.00    +0.000 C 
ATOM     36  C   UNL     1     141.307 124.292 133.041  0.00  0.00    +0.000 C 
ATOM     37  C   UNL     1     140.943 124.776 131.769  0.00  0.00    +0.000 C 
ATOM     38  C   UNL     1     139.540 124.674 131.868  0.00  0.00    +0.000 C 
ATOM     39  C   UNL     1     139.158 123.559 134.047  0.00  0.00    +0.000 C 
ATOM     40  C   UNL     1     141.325 122.373 134.565  0.00  0.00    +0.000 C 
ATOM     41  C   UNL     1     140.890 124.726 135.441  0.00  0.00    +0.000 C 
ATOM     42  C   UNL     1     137.678 125.448 133.295  0.00  0.00    +0.000 C 
BRANCH  35  43
ATOM     43  O   UNL     1     137.646 123.384 132.205  0.00  0.00    +0.000 OA
ATOM     44  H   UNL     1     137.360 123.923 131.444  0.00  0.00    +0.000 HD
ENDBRANCH  35  43
BRANCH  37  45
ATOM     45  O   UNL     1     141.530 125.943 131.296  0.00  0.00    +0.000 OA
BRANCH  45  47
ATOM     46  O   UNL     1     141.820 125.718 128.979  0.00  0.00    +0.000 OA
ATOM     47  C   UNL     1     141.245 126.103 129.980  0.00  0.00    +0.000 C 
ATOM     48  C   UNL     1     140.018 126.903 129.716  0.00  0.00    +0.000 C 
ENDBRANCH  45  47
ENDBRANCH  37  45
ENDBRANCH  32  39
ENDBRANCH  30  33
ENDBRANCH  29  30
ENDBRANCH  27  29
ENDBRANCH  26  28
ENDBRANCH   1  25
TORSDOF 13
ENDMDL
MODEL 2
REMARK VINA RESULT:      -7.1     30.867     38.014
REMARK  Name = 5289155_Peridinin.pdbqt.pdb
REMARK  13 active torsions:
REMARK  status: ('A' for Active; 'I' for Inactive)
REMARK    1  A    between atoms: C_1  and  C_3
REMARK    2  A    between atoms: C_3  and  C_25
REMARK    3  A    between atoms: C_6  and  C_12
REMARK    4  A    between atoms: C_11  and  C_14
REMARK    5  A    between atoms: C_19  and  O_23
REMARK    6  A    between atoms: C_26  and  C_28
REMARK    7  A    between atoms: C_27  and  C_31
REMARK    8  A    between atoms: C_29  and  C_31
REMARK    9  A    between atoms: C_29  and  C_42
REMARK   10  A    between atoms: C_33  and  O_43
REMARK   11  A    between atoms: C_35  and  O_45
REMARK   12  A    between atoms: C_37  and  C_41
REMARK   13  A    between atoms: O_45  and  C_47
REMARK                            x       y       z     vdW  Elec       q    Type
REMARK                         _______ _______ _______ _____ _____    ______ ____
ROOT
ATOM      1  C   UNL     1     141.611 116.288 111.553  0.00  0.00    +0.000 C 
ENDROOT
BRANCH   1   2
ATOM      2  C   UNL     1     142.832 116.038 111.201  0.00  0.00    +0.000 C 
ATOM      3  C   UNL     1     143.951 116.228 112.178  0.00  0.00    +0.000 C 
ATOM      4  O   UNL     1     142.519 115.419 107.664  0.00  0.00    +0.000 OA
ATOM      5  O   UNL     1     142.916 115.257 105.386  0.00  0.00    +0.000 OA
ATOM      6  C   UNL     1     144.624 114.689 106.997  0.00  0.00    +0.000 C 
ATOM      7  C   UNL     1     144.624 114.695 108.280  0.00  0.00    +0.000 C 
ATOM      8  C   UNL     1     143.288 115.138 106.539  0.00  0.00    +0.000 C 
ATOM      9  C   UNL     1     143.366 115.098 108.720  0.00  0.00    +0.000 C 
ATOM     10  C   UNL     1     143.109 115.548 109.905  0.00  0.00    +0.000 C 
BRANCH   6  12
ATOM     11  C   UNL     1     146.683 114.025 105.538  0.00  0.00    +0.000 C 
ATOM     12  C   UNL     1     145.731 114.328 106.206  0.00  0.00    +0.000 C 
BRANCH  11  14
ATOM     13  O   UNL     1     147.418 112.889 103.576  0.00  0.00    +0.000 OA
ATOM     14  C   UNL     1     147.840 113.666 104.734  0.00  0.00    +0.000 C 
ATOM     15  C   UNL     1     147.943 114.182 103.283  0.00  0.00    +0.000 C 
ATOM     16  C   UNL     1     149.159 113.201 105.445  0.00  0.00    +0.000 C 
ATOM     17  C   UNL     1     149.224 114.115 102.655  0.00  0.00    +0.000 C 
ATOM     18  C   UNL     1     150.219 113.210 104.433  0.00  0.00    +0.000 C 
ATOM     19  C   UNL     1     150.459 113.620 103.108  0.00  0.00    +0.000 C 
ATOM     20  C   UNL     1     146.920 115.129 102.649  0.00  0.00    +0.000 C 
ATOM     21  C   UNL     1     149.439 114.262 106.542  0.00  0.00    +0.000 C 
ATOM     22  C   UNL     1     148.875 111.800 106.028  0.00  0.00    +0.000 C 
BRANCH  19  23
ATOM     23  O   UNL     1     151.650 114.167 102.737  0.00  0.00    +0.000 OA
ATOM     24  H   UNL     1     151.538 114.981 102.213  0.00  0.00    +0.000 HD
ENDBRANCH  19  23
ENDBRANCH  11  14
ENDBRANCH   6  12
ENDBRANCH   1   2
BRANCH   1  25
ATOM     25  C   UNL     1     140.165 116.585 111.968  0.00  0.00    +0.000 C 
ATOM     26  C   UNL     1     139.035 116.818 112.299  0.00  0.00    +0.000 C 
BRANCH  26  28
ATOM     27  C   UNL     1     136.470 117.348 113.071  0.00  0.00    +0.000 C 
ATOM     28  C   UNL     1     137.595 117.115 112.729  0.00  0.00    +0.000 C 
BRANCH  27  29
ATOM     29  C   UNL     1     135.031 117.643 113.515  0.00  0.00    +0.000 C 
BRANCH  29  30
ATOM     30  C   UNL     1     133.820 117.899 113.897  0.00  0.00    +0.000 C 
ATOM     31  C   UNL     1     133.369 117.535 115.279  0.00  0.00    +0.000 C 
BRANCH  30  33
ATOM     32  C   UNL     1     132.119 118.966 112.214  0.00  0.00    +0.000 C 
ATOM     33  C   UNL     1     132.900 118.478 112.987  0.00  0.00    +0.000 C 
BRANCH  32  39
ATOM     34  C   UNL     1     131.143 121.018 111.156  0.00  0.00    +0.000 C 
ATOM     35  C   UNL     1     130.280 118.629 110.594  0.00  0.00    +0.000 C 
ATOM     36  C   UNL     1     130.345 121.329 109.962  0.00  0.00    +0.000 C 
ATOM     37  C   UNL     1     129.567 120.661 108.994  0.00  0.00    +0.000 C 
ATOM     38  C   UNL     1     129.666 119.341 109.479  0.00  0.00    +0.000 C 
ATOM     39  C   UNL     1     131.258 119.498 111.370  0.00  0.00    +0.000 C 
ATOM     40  C   UNL     1     132.569 121.614 110.949  0.00  0.00    +0.000 C 
ATOM     41  C   UNL     1     130.483 121.647 112.412  0.00  0.00    +0.000 C 
ATOM     42  C   UNL     1     129.220 118.032 111.526  0.00  0.00    +0.000 C 
BRANCH  35  43
ATOM     43  O   UNL     1     130.967 117.517 110.065  0.00  0.00    +0.000 OA
ATOM     44  H   UNL     1     130.517 117.403 109.207  0.00  0.00    +0.000 HD
ENDBRANCH  35  43
BRANCH  37  45
ATOM     45  O   UNL     1     128.332 121.189 108.639  0.00  0.00    +0.000 OA
BRANCH  45  47
ATOM     46  O   UNL     1     128.640 121.407 106.324  0.00  0.00    +0.000 OA
ATOM     47  C   UNL     1     128.427 121.826 107.447  0.00  0.00    +0.000 C 
ATOM     48  C   UNL     1     128.254 123.302 107.530  0.00  0.00    +0.000 C 
ENDBRANCH  45  47
ENDBRANCH  37  45
ENDBRANCH  32  39
ENDBRANCH  30  33
ENDBRANCH  29  30
ENDBRANCH  27  29
ENDBRANCH  26  28
ENDBRANCH   1  25
TORSDOF 13
ENDMDL
MODEL 3
REMARK VINA RESULT:      -6.9     29.943     34.117
REMARK  Name = 5289155_Peridinin.pdbqt.pdb
REMARK  13 active torsions:
REMARK  status: ('A' for Active; 'I' for Inactive)
REMARK    1  A    between atoms: C_1  and  C_3
REMARK    2  A    between atoms: C_3  and  C_25
REMARK    3  A    between atoms: C_6  and  C_12
REMARK    4  A    between atoms: C_11  and  C_14
REMARK    5  A    between atoms: C_19  and  O_23
REMARK    6  A    between atoms: C_26  and  C_28
REMARK    7  A    between atoms: C_27  and  C_31
REMARK    8  A    between atoms: C_29  and  C_31
REMARK    9  A    between atoms: C_29  and  C_42
REMARK   10  A    between atoms: C_33  and  O_43
REMARK   11  A    between atoms: C_35  and  O_45
REMARK   12  A    between atoms: C_37  and  C_41
REMARK   13  A    between atoms: O_45  and  C_47
REMARK                            x       y       z     vdW  Elec       q    Type
REMARK                         _______ _______ _______ _____ _____    ______ ____
ROOT
ATOM      1  C   UNL     1     139.086 115.368 115.533  0.00  0.00    +0.000 C 
ENDROOT
BRANCH   1   2
ATOM      2  C   UNL     1     140.218 114.765 115.721  0.00  0.00    +0.000 C 
ATOM      3  C   UNL     1     140.441 113.954 116.960  0.00  0.00    +0.000 C 
ATOM      4  O   UNL     1     142.235 116.016 113.009  0.00  0.00    +0.000 OA
ATOM      5  O   UNL     1     144.005 116.725 111.690  0.00  0.00    +0.000 OA
ATOM      6  C   UNL     1     144.200 114.777 113.106  0.00  0.00    +0.000 C 
ATOM      7  C   UNL     1     143.365 114.209 113.897  0.00  0.00    +0.000 C 
ATOM      8  C   UNL     1     143.525 115.946 112.494  0.00  0.00    +0.000 C 
ATOM      9  C   UNL     1     142.161 114.906 113.844  0.00  0.00    +0.000 C 
ATOM     10  C   UNL     1     141.232 114.841 114.740  0.00  0.00    +0.000 C 
BRANCH   6  12
ATOM     11  C   UNL     1     146.647 113.955 112.726  0.00  0.00    +0.000 C 
ATOM     12  C   UNL     1     145.522 114.338 112.901  0.00  0.00    +0.000 C 
BRANCH  11  14
ATOM     13  O   UNL     1     148.006 112.387 111.553  0.00  0.00    +0.000 OA
ATOM     14  C   UNL     1     148.006 113.481 112.516  0.00  0.00    +0.000 C 
ATOM     15  C   UNL     1     148.636 113.587 111.111  0.00  0.00    +0.000 C 
ATOM     16  C   UNL     1     148.969 113.331 113.745  0.00  0.00    +0.000 C 
ATOM     17  C   UNL     1     150.054 113.451 111.019  0.00  0.00    +0.000 C 
ATOM     18  C   UNL     1     150.321 113.145 113.210  0.00  0.00    +0.000 C 
ATOM     19  C   UNL     1     151.031 113.195 111.996  0.00  0.00    +0.000 C 
ATOM     20  C   UNL     1     147.934 114.245 109.918  0.00  0.00    +0.000 C 
ATOM     21  C   UNL     1     148.866 114.669 114.523  0.00  0.00    +0.000 C 
ATOM     22  C   UNL     1     148.457 112.124 114.561  0.00  0.00    +0.000 C 
BRANCH  19  23
ATOM     23  O   UNL     1     152.291 113.711 111.930  0.00  0.00    +0.000 OA
ATOM     24  H   UNL     1     152.500 114.066 111.047  0.00  0.00    +0.000 HD
ENDBRANCH  19  23
ENDBRANCH  11  14
ENDBRANCH   6  12
ENDBRANCH   1   2
BRANCH   1  25
ATOM     25  C   UNL     1     137.747 116.081 115.309  0.00  0.00    +0.000 C 
ATOM     26  C   UNL     1     136.697 116.633 115.134  0.00  0.00    +0.000 C 
BRANCH  26  28
ATOM     27  C   UNL     1     134.298 117.879 114.741  0.00  0.00    +0.000 C 
ATOM     28  C   UNL     1     135.352 117.332 114.910  0.00  0.00    +0.000 C 
BRANCH  27  29
ATOM     29  C   UNL     1     132.947 118.574 114.530  0.00  0.00    +0.000 C 
BRANCH  29  30
ATOM     30  C   UNL     1     131.811 119.170 114.347  0.00  0.00    +0.000 C 
ATOM     31  C   UNL     1     130.860 119.354 115.491  0.00  0.00    +0.000 C 
BRANCH  30  33
ATOM     32  C   UNL     1     131.128 119.965 111.946  0.00  0.00    +0.000 C 
ATOM     33  C   UNL     1     131.440 119.601 113.049  0.00  0.00    +0.000 C 
BRANCH  32  39
ATOM     34  C   UNL     1     131.148 121.750 110.186  0.00  0.00    +0.000 C 
ATOM     35  C   UNL     1     129.948 119.469 109.830  0.00  0.00    +0.000 C 
ATOM     36  C   UNL     1     130.924 121.823 108.736  0.00  0.00    +0.000 C 
ATOM     37  C   UNL     1     130.388 121.036 107.696  0.00  0.00    +0.000 C 
ATOM     38  C   UNL     1     129.968 119.914 108.441  0.00  0.00    +0.000 C 
ATOM     39  C   UNL     1     130.784 120.359 110.736  0.00  0.00    +0.000 C 
ATOM     40  C   UNL     1     132.659 122.026 110.455  0.00  0.00    +0.000 C 
ATOM     41  C   UNL     1     130.277 122.812 110.910  0.00  0.00    +0.000 C 
ATOM     42  C   UNL     1     128.515 119.344 110.355  0.00  0.00    +0.000 C 
BRANCH  35  43
ATOM     43  O   UNL     1     130.465 118.157 109.865  0.00  0.00    +0.000 OA
ATOM     44  H   UNL     1     129.976 117.737 109.133  0.00  0.00    +0.000 HD
ENDBRANCH  35  43
BRANCH  37  45
ATOM     45  O   UNL     1     129.536 121.626 106.772  0.00  0.00    +0.000 OA
BRANCH  45  47
ATOM     46  O   UNL     1     131.213 121.980 105.172  0.00  0.00    +0.000 OA
ATOM     47  C   UNL     1     130.111 121.623 105.545  0.00  0.00    +0.000 C 
ATOM     48  C   UNL     1     129.234 121.102 104.462  0.00  0.00    +0.000 C 
ENDBRANCH  45  47
ENDBRANCH  37  45
ENDBRANCH  32  39
ENDBRANCH  30  33
ENDBRANCH  29  30
ENDBRANCH  27  29
ENDBRANCH  26  28
ENDBRANCH   1  25
TORSDOF 13
ENDMDL
MODEL 4
REMARK VINA RESULT:      -6.8     22.993     37.445
REMARK  Name = 5289155_Peridinin.pdbqt.pdb
REMARK  13 active torsions:
REMARK  status: ('A' for Active; 'I' for Inactive)
REMARK    1  A    between atoms: C_1  and  C_3
REMARK    2  A    between atoms: C_3  and  C_25
REMARK    3  A    between atoms: C_6  and  C_12
REMARK    4  A    between atoms: C_11  and  C_14
REMARK    5  A    between atoms: C_19  and  O_23
REMARK    6  A    between atoms: C_26  and  C_28
REMARK    7  A    between atoms: C_27  and  C_31
REMARK    8  A    between atoms: C_29  and  C_31
REMARK    9  A    between atoms: C_29  and  C_42
REMARK   10  A    between atoms: C_33  and  O_43
REMARK   11  A    between atoms: C_35  and  O_45
REMARK   12  A    between atoms: C_37  and  C_41
REMARK   13  A    between atoms: O_45  and  C_47
REMARK                            x       y       z     vdW  Elec       q    Type
REMARK                         _______ _______ _______ _____ _____    ______ ____
ROOT
ATOM      1  C   UNL     1     154.775 136.626 113.383  0.00  0.00    +0.000 C 
ENDROOT
BRANCH   1   2
ATOM      2  C   UNL     1     155.343 136.353 112.250  0.00  0.00    +0.000 C 
ATOM      3  C   UNL     1     156.831 136.451 112.111  0.00  0.00    +0.000 C 
ATOM      4  O   UNL     1     152.525 135.939 110.041  0.00  0.00    +0.000 OA
ATOM      5  O   UNL     1     151.137 135.888 108.185  0.00  0.00    +0.000 OA
ATOM      6  C   UNL     1     153.440 135.175 108.044  0.00  0.00    +0.000 C 
ATOM      7  C   UNL     1     154.370 135.111 108.925  0.00  0.00    +0.000 C 
ATOM      8  C   UNL     1     152.220 135.694 108.706  0.00  0.00    +0.000 C 
ATOM      9  C   UNL     1     153.852 135.533 110.147  0.00  0.00    +0.000 C 
ATOM     10  C   UNL     1     154.563 135.926 111.152  0.00  0.00    +0.000 C 
BRANCH   6  12
ATOM     11  C   UNL     1     153.736 134.510 105.538  0.00  0.00    +0.000 C 
ATOM     12  C   UNL     1     153.604 134.820 106.692  0.00  0.00    +0.000 C 
BRANCH  11  14
ATOM     13  O   UNL     1     152.817 134.707 103.348  0.00  0.00    +0.000 OA
ATOM     14  C   UNL     1     153.890 134.127 104.144  0.00  0.00    +0.000 C 
ATOM     15  C   UNL     1     154.120 135.220 103.079  0.00  0.00    +0.000 C 
ATOM     16  C   UNL     1     154.306 132.656 103.790  0.00  0.00    +0.000 C 
ATOM     17  C   UNL     1     154.614 134.800 101.807  0.00  0.00    +0.000 C 
ATOM     18  C   UNL     1     154.682 132.645 102.373  0.00  0.00    +0.000 C 
ATOM     19  C   UNL     1     154.916 133.525 101.300  0.00  0.00    +0.000 C 
ATOM     20  C   UNL     1     154.276 136.706 103.415  0.00  0.00    +0.000 C 
ATOM     21  C   UNL     1     155.534 132.341 104.685  0.00  0.00    +0.000 C 
ATOM     22  C   UNL     1     153.088 131.764 104.112  0.00  0.00    +0.000 C 
BRANCH  19  23
ATOM     23  O   UNL     1     155.924 133.307 100.409  0.00  0.00    +0.000 OA
ATOM     24  H   UNL     1     156.803 133.355 100.825  0.00  0.00    +0.000 HD
ENDBRANCH  19  23
ENDBRANCH  11  14
ENDBRANCH   6  12
ENDBRANCH   1   2
BRANCH   1  25
ATOM     25  C   UNL     1     154.104 136.949 114.723  0.00  0.00    +0.000 C 
ATOM     26  C   UNL     1     153.581 137.198 115.774  0.00  0.00    +0.000 C 
BRANCH  26  28
ATOM     27  C   UNL     1     152.390 137.749 118.169  0.00  0.00    +0.000 C 
ATOM     28  C   UNL     1     152.916 137.508 117.118  0.00  0.00    +0.000 C 
BRANCH  27  29
ATOM     29  C   UNL     1     151.711 138.058 119.509  0.00  0.00    +0.000 C 
BRANCH  29  30
ATOM     30  C   UNL     1     151.127 138.318 120.636  0.00  0.00    +0.000 C 
ATOM     31  C   UNL     1     150.658 139.708 120.942  0.00  0.00    +0.000 C 
BRANCH  30  33
ATOM     32  C   UNL     1     150.857 136.429 122.431  0.00  0.00    +0.000 C 
ATOM     33  C   UNL     1     150.981 137.297 121.608  0.00  0.00    +0.000 C 
BRANCH  32  39
ATOM     34  C   UNL     1     149.368 134.827 123.656  0.00  0.00    +0.000 C 
ATOM     35  C   UNL     1     151.917 134.999 124.148  0.00  0.00    +0.000 C 
ATOM     36  C   UNL     1     149.540 133.603 124.451  0.00  0.00    +0.000 C 
ATOM     37  C   UNL     1     150.567 132.881 125.093  0.00  0.00    +0.000 C 
ATOM     38  C   UNL     1     151.660 133.730 124.821  0.00  0.00    +0.000 C 
ATOM     39  C   UNL     1     150.726 135.475 123.331  0.00  0.00    +0.000 C 
ATOM     40  C   UNL     1     148.655 134.439 122.324  0.00  0.00    +0.000 C 
ATOM     41  C   UNL     1     148.505 135.851 124.441  0.00  0.00    +0.000 C 
ATOM     42  C   UNL     1     152.366 136.076 125.141  0.00  0.00    +0.000 C 
BRANCH  35  43
ATOM     43  O   UNL     1     153.021 134.811 123.290  0.00  0.00    +0.000 OA
ATOM     44  H   UNL     1     152.653 134.187 122.636  0.00  0.00    +0.000 HD
ENDBRANCH  35  43
BRANCH  37  45
ATOM     45  O   UNL     1     150.354 132.401 126.379  0.00  0.00    +0.000 OA
BRANCH  45  47
ATOM     46  O   UNL     1     148.012 132.467 126.267  0.00  0.00    +0.000 OA
ATOM     47  C   UNL     1     149.084 131.940 126.494  0.00  0.00    +0.000 C 
ATOM     48  C   UNL     1     148.988 130.544 127.001  0.00  0.00    +0.000 C 
ENDBRANCH  45  47
ENDBRANCH  37  45
ENDBRANCH  32  39
ENDBRANCH  30  33
ENDBRANCH  29  30
ENDBRANCH  27  29
ENDBRANCH  26  28
ENDBRANCH   1  25
TORSDOF 13
ENDMDL
MODEL 5
REMARK VINA RESULT:      -6.7     24.084     35.076
REMARK  Name = 5289155_Peridinin.pdbqt.pdb
REMARK  13 active torsions:
REMARK  status: ('A' for Active; 'I' for Inactive)
REMARK    1  A    between atoms: C_1  and  C_3
REMARK    2  A    between atoms: C_3  and  C_25
REMARK    3  A    between atoms: C_6  and  C_12
REMARK    4  A    between atoms: C_11  and  C_14
REMARK    5  A    between atoms: C_19  and  O_23
REMARK    6  A    between atoms: C_26  and  C_28
REMARK    7  A    between atoms: C_27  and  C_31
REMARK    8  A    between atoms: C_29  and  C_31
REMARK    9  A    between atoms: C_29  and  C_42
REMARK   10  A    between atoms: C_33  and  O_43
REMARK   11  A    between atoms: C_35  and  O_45
REMARK   12  A    between atoms: C_37  and  C_41
REMARK   13  A    between atoms: O_45  and  C_47
REMARK                            x       y       z     vdW  Elec       q    Type
REMARK                         _______ _______ _______ _____ _____    ______ ____
ROOT
ATOM      1  C   UNL     1     150.334 114.111 114.683  0.00  0.00    +0.000 C 
ENDROOT
BRANCH   1   2
ATOM      2  C   UNL     1     150.265 113.801 113.427  0.00  0.00    +0.000 C 
ATOM      3  C   UNL     1     151.468 113.261 112.717  0.00  0.00    +0.000 C 
ATOM      4  O   UNL     1     147.000 115.014 112.499  0.00  0.00    +0.000 OA
ATOM      5  O   UNL     1     145.188 115.868 111.332  0.00  0.00    +0.000 OA
ATOM      6  C   UNL     1     146.677 114.254 110.324  0.00  0.00    +0.000 C 
ATOM      7  C   UNL     1     147.716 113.653 110.776  0.00  0.00    +0.000 C 
ATOM      8  C   UNL     1     146.163 115.141 111.395  0.00  0.00    +0.000 C 
ATOM      9  C   UNL     1     147.926 114.058 112.091  0.00  0.00    +0.000 C 
ATOM     10  C   UNL     1     149.043 113.937 112.731  0.00  0.00    +0.000 C 
BRANCH   6  12
ATOM     11  C   UNL     1     145.727 113.947 107.914  0.00  0.00    +0.000 C 
ATOM     12  C   UNL     1     146.164 114.083 109.025  0.00  0.00    +0.000 C 
BRANCH  11  14
ATOM     13  O   UNL     1     143.788 113.424 106.630  0.00  0.00    +0.000 OA
ATOM     14  C   UNL     1     145.196 113.792 106.569  0.00  0.00    +0.000 C 
ATOM     15  C   UNL     1     144.055 114.718 106.095  0.00  0.00    +0.000 C 
ATOM     16  C   UNL     1     146.060 113.071 105.476  0.00  0.00    +0.000 C 
ATOM     17  C   UNL     1     143.807 114.783 104.690  0.00  0.00    +0.000 C 
ATOM     18  C   UNL     1     145.425 113.335 104.182  0.00  0.00    +0.000 C 
ATOM     19  C   UNL     1     144.404 114.115 103.607  0.00  0.00    +0.000 C 
ATOM     20  C   UNL     1     143.488 115.861 106.942  0.00  0.00    +0.000 C 
ATOM     21  C   UNL     1     147.461 113.736 105.545  0.00  0.00    +0.000 C 
ATOM     22  C   UNL     1     146.091 111.574 105.855  0.00  0.00    +0.000 C 
BRANCH  19  23
ATOM     23  O   UNL     1     144.554 114.691 102.381  0.00  0.00    +0.000 OA
ATOM     24  H   UNL     1     144.421 114.056 101.655  0.00  0.00    +0.000 HD
ENDBRANCH  19  23
ENDBRANCH  11  14
ENDBRANCH   6  12
ENDBRANCH   1   2
BRANCH   1  25
ATOM     25  C   UNL     1     150.416 114.477 116.170  0.00  0.00    +0.000 C 
ATOM     26  C   UNL     1     150.482 114.768 117.332  0.00  0.00    +0.000 C 
BRANCH  26  28
ATOM     27  C   UNL     1     150.636 115.440 119.975  0.00  0.00    +0.000 C 
ATOM     28  C   UNL     1     150.569 115.148 118.813  0.00  0.00    +0.000 C 
BRANCH  27  29
ATOM     29  C   UNL     1     150.716 115.807 121.462  0.00  0.00    +0.000 C 
BRANCH  29  30
ATOM     30  C   UNL     1     150.792 116.125 122.715  0.00  0.00    +0.000 C 
ATOM     31  C   UNL     1     150.144 115.262 123.756  0.00  0.00    +0.000 C 
BRANCH  30  33
ATOM     32  C   UNL     1     151.992 118.341 123.431  0.00  0.00    +0.000 C 
ATOM     33  C   UNL     1     151.443 117.324 123.103  0.00  0.00    +0.000 C 
BRANCH  32  39
ATOM     34  C   UNL     1     151.867 120.563 124.585  0.00  0.00    +0.000 C 
ATOM     35  C   UNL     1     154.031 119.741 123.400  0.00  0.00    +0.000 C 
ATOM     36  C   UNL     1     152.820 121.542 125.126  0.00  0.00    +0.000 C 
ATOM     37  C   UNL     1     154.198 121.836 125.067  0.00  0.00    +0.000 C 
ATOM     38  C   UNL     1     154.617 120.830 124.172  0.00  0.00    +0.000 C 
ATOM     39  C   UNL     1     152.591 119.458 123.795  0.00  0.00    +0.000 C 
ATOM     40  C   UNL     1     151.107 119.919 125.785  0.00  0.00    +0.000 C 
ATOM     41  C   UNL     1     150.861 121.271 123.639  0.00  0.00    +0.000 C 
ATOM     42  C   UNL     1     154.145 120.000 121.894  0.00  0.00    +0.000 C 
BRANCH  35  43
ATOM     43  O   UNL     1     154.810 118.587 123.631  0.00  0.00    +0.000 OA
ATOM     44  H   UNL     1     155.311 118.522 122.796  0.00  0.00    +0.000 HD
ENDBRANCH  35  43
BRANCH  37  45
ATOM     45  O   UNL     1     154.600 123.153 124.883  0.00  0.00    +0.000 OA
BRANCH  45  47
ATOM     46  O   UNL     1     155.358 123.103 127.102  0.00  0.00    +0.000 OA
ATOM     47  C   UNL     1     155.192 123.616 126.012  0.00  0.00    +0.000 C 
ATOM     48  C   UNL     1     155.720 125.003 125.897  0.00  0.00    +0.000 C 
ENDBRANCH  45  47
ENDBRANCH  37  45
ENDBRANCH  32  39
ENDBRANCH  30  33
ENDBRANCH  29  30
ENDBRANCH  27  29
ENDBRANCH  26  28
ENDBRANCH   1  25
TORSDOF 13
ENDMDL
MODEL 6
REMARK VINA RESULT:      -6.5     37.532     49.690
REMARK  Name = 5289155_Peridinin.pdbqt.pdb
REMARK  13 active torsions:
REMARK  status: ('A' for Active; 'I' for Inactive)
REMARK    1  A    between atoms: C_1  and  C_3
REMARK    2  A    between atoms: C_3  and  C_25
REMARK    3  A    between atoms: C_6  and  C_12
REMARK    4  A    between atoms: C_11  and  C_14
REMARK    5  A    between atoms: C_19  and  O_23
REMARK    6  A    between atoms: C_26  and  C_28
REMARK    7  A    between atoms: C_27  and  C_31
REMARK    8  A    between atoms: C_29  and  C_31
REMARK    9  A    between atoms: C_29  and  C_42
REMARK   10  A    between atoms: C_33  and  O_43
REMARK   11  A    between atoms: C_35  and  O_45
REMARK   12  A    between atoms: C_37  and  C_41
REMARK   13  A    between atoms: O_45  and  C_47
REMARK                            x       y       z     vdW  Elec       q    Type
REMARK                         _______ _______ _______ _____ _____    ______ ____
ROOT
ATOM      1  C   UNL     1     145.772 118.159  92.908  0.00  0.00    +0.000 C 
ENDROOT
BRANCH   1   2
ATOM      2  C   UNL     1     146.355 117.176  92.298  0.00  0.00    +0.000 C 
ATOM      3  C   UNL     1     146.633 117.259  90.829  0.00  0.00    +0.000 C 
ATOM      4  O   UNL     1     146.459 114.626  94.844  0.00  0.00    +0.000 OA
ATOM      5  O   UNL     1     146.492 112.600  95.969  0.00  0.00    +0.000 OA
ATOM      6  C   UNL     1     147.738 112.916  93.923  0.00  0.00    +0.000 C 
ATOM      7  C   UNL     1     147.870 113.932  93.152  0.00  0.00    +0.000 C 
ATOM      8  C   UNL     1     146.845 113.305  95.040  0.00  0.00    +0.000 C 
ATOM      9  C   UNL     1     147.142 114.992  93.688  0.00  0.00    +0.000 C 
ATOM     10  C   UNL     1     146.764 116.035  93.025  0.00  0.00    +0.000 C 
BRANCH   6  12
ATOM     11  C   UNL     1     148.864 110.599  93.508  0.00  0.00    +0.000 C 
ATOM     12  C   UNL     1     148.342 111.665  93.696  0.00  0.00    +0.000 C 
BRANCH  11  14
ATOM     13  O   UNL     1     148.955 108.683  92.093  0.00  0.00    +0.000 OA
ATOM     14  C   UNL     1     149.506 109.313  93.285  0.00  0.00    +0.000 C 
ATOM     15  C   UNL     1     150.318 109.087  91.993  0.00  0.00    +0.000 C 
ATOM     16  C   UNL     1     149.788 108.370  94.507  0.00  0.00    +0.000 C 
ATOM     17  C   UNL     1     151.211 107.973  91.969  0.00  0.00    +0.000 C 
ATOM     18  C   UNL     1     150.698 107.321  94.038  0.00  0.00    +0.000 C 
ATOM     19  C   UNL     1     151.484 106.977  92.922  0.00  0.00    +0.000 C 
ATOM     20  C   UNL     1     150.560 110.178  90.946  0.00  0.00    +0.000 C 
ATOM     21  C   UNL     1     150.480 109.261  95.572  0.00  0.00    +0.000 C 
ATOM     22  C   UNL     1     148.417 107.834  94.976  0.00  0.00    +0.000 C 
BRANCH  19  23
ATOM     23  O   UNL     1     152.717 106.416  93.067  0.00  0.00    +0.000 OA
ATOM     24  H   UNL     1     153.100 106.584  93.947  0.00  0.00    +0.000 HD
ENDBRANCH  19  23
ENDBRANCH  11  14
ENDBRANCH   6  12
ENDBRANCH   1   2
BRANCH   1  25
ATOM     25  C   UNL     1     145.082 119.324  93.629  0.00  0.00    +0.000 C 
ATOM     26  C   UNL     1     144.544 120.233  94.198  0.00  0.00    +0.000 C 
BRANCH  26  28
ATOM     27  C   UNL     1     143.317 122.294  95.504  0.00  0.00    +0.000 C 
ATOM     28  C   UNL     1     143.859 121.390  94.931  0.00  0.00    +0.000 C 
BRANCH  27  29
ATOM     29  C   UNL     1     142.619 123.450  96.231  0.00  0.00    +0.000 C 
BRANCH  29  30
ATOM     30  C   UNL     1     142.036 124.424  96.854  0.00  0.00    +0.000 C 
ATOM     31  C   UNL     1     141.003 125.258  96.158  0.00  0.00    +0.000 C 
BRANCH  30  33
ATOM     32  C   UNL     1     142.733 125.009  99.312  0.00  0.00    +0.000 C 
ATOM     33  C   UNL     1     142.415 124.741  98.184  0.00  0.00    +0.000 C 
BRANCH  32  39
ATOM     34  C   UNL     1     142.402 126.416 101.359  0.00  0.00    +0.000 C 
ATOM     35  C   UNL     1     144.226 124.566 101.233  0.00  0.00    +0.000 C 
ATOM     36  C   UNL     1     142.751 126.330 102.784  0.00  0.00    +0.000 C 
ATOM     37  C   UNL     1     143.596 125.586 103.633  0.00  0.00    +0.000 C 
ATOM     38  C   UNL     1     144.232 124.767 102.678  0.00  0.00    +0.000 C 
ATOM     39  C   UNL     1     143.081 125.297 100.550  0.00  0.00    +0.000 C 
ATOM     40  C   UNL     1     140.855 126.271 101.233  0.00  0.00    +0.000 C 
ATOM     41  C   UNL     1     142.855 127.786 100.786  0.00  0.00    +0.000 C 
ATOM     42  C   UNL     1     145.571 124.952 100.610  0.00  0.00    +0.000 C 
BRANCH  35  43
ATOM     43  O   UNL     1     144.099 123.181 100.996  0.00  0.00    +0.000 OA
ATOM     44  H   UNL     1     144.070 122.831 101.906  0.00  0.00    +0.000 HD
ENDBRANCH  35  43
BRANCH  37  45
ATOM     45  O   UNL     1     144.343 126.254 104.595  0.00  0.00    +0.000 OA
BRANCH  45  47
ATOM     46  O   UNL     1     143.272 125.031 106.286  0.00  0.00    +0.000 OA
ATOM     47  C   UNL     1     144.205 125.639 105.796  0.00  0.00    +0.000 C 
ATOM     48  C   UNL     1     145.403 125.739 106.672  0.00  0.00    +0.000 C 
ENDBRANCH  45  47
ENDBRANCH  37  45
ENDBRANCH  32  39
ENDBRANCH  30  33
ENDBRANCH  29  30
ENDBRANCH  27  29
ENDBRANCH  26  28
ENDBRANCH   1  25
TORSDOF 13
ENDMDL
MODEL 7
REMARK VINA RESULT:      -6.4     25.660     29.842
REMARK  Name = 5289155_Peridinin.pdbqt.pdb
REMARK  13 active torsions:
REMARK  status: ('A' for Active; 'I' for Inactive)
REMARK    1  A    between atoms: C_1  and  C_3
REMARK    2  A    between atoms: C_3  and  C_25
REMARK    3  A    between atoms: C_6  and  C_12
REMARK    4  A    between atoms: C_11  and  C_14
REMARK    5  A    between atoms: C_19  and  O_23
REMARK    6  A    between atoms: C_26  and  C_28
REMARK    7  A    between atoms: C_27  and  C_31
REMARK    8  A    between atoms: C_29  and  C_31
REMARK    9  A    between atoms: C_29  and  C_42
REMARK   10  A    between atoms: C_33  and  O_43
REMARK   11  A    between atoms: C_35  and  O_45
REMARK   12  A    between atoms: C_37  and  C_41
REMARK   13  A    between atoms: O_45  and  C_47
REMARK                            x       y       z     vdW  Elec       q    Type
REMARK                         _______ _______ _______ _____ _____    ______ ____
ROOT
ATOM      1  C   UNL     1     133.392 117.705 115.793  0.00  0.00    +0.000 C 
ENDROOT
BRANCH   1   2
ATOM      2  C   UNL     1     132.528 118.152 116.649  0.00  0.00    +0.000 C 
ATOM      3  C   UNL     1     132.199 117.355 117.873  0.00  0.00    +0.000 C 
ATOM      4  O   UNL     1     131.203 121.059 114.980  0.00  0.00    +0.000 OA
ATOM      5  O   UNL     1     129.827 122.773 114.245  0.00  0.00    +0.000 OA
ATOM      6  C   UNL     1     129.842 122.086 116.561  0.00  0.00    +0.000 C 
ATOM      7  C   UNL     1     130.514 121.186 117.180  0.00  0.00    +0.000 C 
ATOM      8  C   UNL     1     130.250 122.059 115.137  0.00  0.00    +0.000 C 
ATOM      9  C   UNL     1     131.367 120.566 116.271  0.00  0.00    +0.000 C 
ATOM     10  C   UNL     1     131.922 119.413 116.449  0.00  0.00    +0.000 C 
BRANCH   6  12
ATOM     11  C   UNL     1     128.055 123.622 117.683  0.00  0.00    +0.000 C 
ATOM     12  C   UNL     1     128.882 122.917 117.169  0.00  0.00    +0.000 C 
BRANCH  11  14
ATOM     13  O   UNL     1     126.313 125.194 117.264  0.00  0.00    +0.000 OA
ATOM     14  C   UNL     1     127.048 124.473 118.295  0.00  0.00    +0.000 C 
ATOM     15  C   UNL     1     125.557 124.224 117.985  0.00  0.00    +0.000 C 
ATOM     16  C   UNL     1     127.405 125.279 119.593  0.00  0.00    +0.000 C 
ATOM     17  C   UNL     1     124.599 124.825 118.857  0.00  0.00    +0.000 C 
ATOM     18  C   UNL     1     126.145 125.783 120.146  0.00  0.00    +0.000 C 
ATOM     19  C   UNL     1     124.753 125.664 119.974  0.00  0.00    +0.000 C 
ATOM     20  C   UNL     1     125.057 123.067 117.116  0.00  0.00    +0.000 C 
ATOM     21  C   UNL     1     128.056 124.253 120.557  0.00  0.00    +0.000 C 
ATOM     22  C   UNL     1     128.380 126.397 119.163  0.00  0.00    +0.000 C 
BRANCH  19  23
ATOM     23  O   UNL     1     123.905 125.632 121.040  0.00  0.00    +0.000 OA
ATOM     24  H   UNL     1     124.239 126.148 121.795  0.00  0.00    +0.000 HD
ENDBRANCH  19  23
ENDBRANCH  11  14
ENDBRANCH   6  12
ENDBRANCH   1   2
BRANCH   1  25
ATOM     25  C   UNL     1     134.413 117.174 114.780  0.00  0.00    +0.000 C 
ATOM     26  C   UNL     1     135.216 116.758 113.991  0.00  0.00    +0.000 C 
BRANCH  26  28
ATOM     27  C   UNL     1     137.055 115.807 112.209  0.00  0.00    +0.000 C 
ATOM     28  C   UNL     1     136.245 116.223 112.990  0.00  0.00    +0.000 C 
BRANCH  27  29
ATOM     29  C   UNL     1     138.095 115.281 111.212  0.00  0.00    +0.000 C 
BRANCH  29  30
ATOM     30  C   UNL     1     138.974 114.827 110.376  0.00  0.00    +0.000 C 
ATOM     31  C   UNL     1     138.537 114.116 109.131  0.00  0.00    +0.000 C 
BRANCH  30  33
ATOM     32  C   UNL     1     141.528 115.059 110.911  0.00  0.00    +0.000 C 
ATOM     33  C   UNL     1     140.356 114.954 110.664  0.00  0.00    +0.000 C 
BRANCH  32  39
ATOM     34  C   UNL     1     143.335 115.829 112.468  0.00  0.00    +0.000 C 
ATOM     35  C   UNL     1     143.865 114.694 110.188  0.00  0.00    +0.000 C 
ATOM     36  C   UNL     1     144.764 115.552 112.667  0.00  0.00    +0.000 C 
ATOM     37  C   UNL     1     145.838 114.939 111.990  0.00  0.00    +0.000 C 
ATOM     38  C   UNL     1     145.187 114.575 110.793  0.00  0.00    +0.000 C 
ATOM     39  C   UNL     1     142.814 115.169 111.179  0.00  0.00    +0.000 C 
ATOM     40  C   UNL     1     142.557 115.250 113.689  0.00  0.00    +0.000 C 
ATOM     41  C   UNL     1     143.102 117.361 112.369  0.00  0.00    +0.000 C 
ATOM     42  C   UNL     1     143.897 115.594 108.949  0.00  0.00    +0.000 C 
BRANCH  35  43
ATOM     43  O   UNL     1     143.502 113.420 109.703  0.00  0.00    +0.000 OA
ATOM     44  H   UNL     1     143.051 113.039 110.480  0.00  0.00    +0.000 HD
ENDBRANCH  35  43
BRANCH  37  45
ATOM     45  O   UNL     1     147.069 115.581 111.954  0.00  0.00    +0.000 OA
BRANCH  45  47
ATOM     46  O   UNL     1     148.785 113.995 111.751  0.00  0.00    +0.000 OA
ATOM     47  C   UNL     1     148.043 114.735 112.370  0.00  0.00    +0.000 C 
ATOM     48  C   UNL     1     148.228 114.699 113.846  0.00  0.00    +0.000 C 
ENDBRANCH  45  47
ENDBRANCH  37  45
ENDBRANCH  32  39
ENDBRANCH  30  33
ENDBRANCH  29  30
ENDBRANCH  27  29
ENDBRANCH  26  28
ENDBRANCH   1  25
TORSDOF 13
ENDMDL
MODEL 8
REMARK VINA RESULT:      -6.4      6.170     18.505
REMARK  Name = 5289155_Peridinin.pdbqt.pdb
REMARK  13 active torsions:
REMARK  status: ('A' for Active; 'I' for Inactive)
REMARK    1  A    between atoms: C_1  and  C_3
REMARK    2  A    between atoms: C_3  and  C_25
REMARK    3  A    between atoms: C_6  and  C_12
REMARK    4  A    between atoms: C_11  and  C_14
REMARK    5  A    between atoms: C_19  and  O_23
REMARK    6  A    between atoms: C_26  and  C_28
REMARK    7  A    between atoms: C_27  and  C_31
REMARK    8  A    between atoms: C_29  and  C_31
REMARK    9  A    between atoms: C_29  and  C_42
REMARK   10  A    between atoms: C_33  and  O_43
REMARK   11  A    between atoms: C_35  and  O_45
REMARK   12  A    between atoms: C_37  and  C_41
REMARK   13  A    between atoms: O_45  and  C_47
REMARK                            x       y       z     vdW  Elec       q    Type
REMARK                         _______ _______ _______ _____ _____    ______ ____
ROOT
ATOM      1  C   UNL     1     135.289 122.896 136.617  0.00  0.00    +0.000 C 
ENDROOT
BRANCH   1   2
ATOM      2  C   UNL     1     135.183 122.769 135.331  0.00  0.00    +0.000 C 
ATOM      3  C   UNL     1     135.870 123.739 134.420  0.00  0.00    +0.000 C 
ATOM      4  O   UNL     1     132.727 120.151 135.001  0.00  0.00    +0.000 OA
ATOM      5  O   UNL     1     131.014 118.785 134.245  0.00  0.00    +0.000 OA
ATOM      6  C   UNL     1     132.675 119.665 132.727  0.00  0.00    +0.000 C 
ATOM      7  C   UNL     1     133.695 120.419 132.922  0.00  0.00    +0.000 C 
ATOM      8  C   UNL     1     132.014 119.449 134.036  0.00  0.00    +0.000 C 
ATOM      9  C   UNL     1     133.780 120.708 134.281  0.00  0.00    +0.000 C 
ATOM     10  C   UNL     1     134.448 121.693 134.785  0.00  0.00    +0.000 C 
BRANCH   6  12
ATOM     11  C   UNL     1     131.949 118.739 130.399  0.00  0.00    +0.000 C 
ATOM     12  C   UNL     1     132.283 119.170 131.469  0.00  0.00    +0.000 C 
BRANCH  11  14
ATOM     13  O   UNL     1     130.094 118.164 129.016  0.00  0.00    +0.000 OA
ATOM     14  C   UNL     1     131.548 118.207 129.106  0.00  0.00    +0.000 C 
ATOM     15  C   UNL     1     130.731 119.094 128.143  0.00  0.00    +0.000 C 
ATOM     16  C   UNL     1     132.322 116.983 128.502  0.00  0.00    +0.000 C 
ATOM     17  C   UNL     1     130.663 118.685 126.777  0.00  0.00    +0.000 C 
ATOM     18  C   UNL     1     131.918 116.871 127.098  0.00  0.00    +0.000 C 
ATOM     19  C   UNL     1     131.191 117.565 126.112  0.00  0.00    +0.000 C 
ATOM     20  C   UNL     1     130.374 120.554 128.437  0.00  0.00    +0.000 C 
ATOM     21  C   UNL     1     133.827 117.345 128.612  0.00  0.00    +0.000 C 
ATOM     22  C   UNL     1     131.939 115.754 129.355  0.00  0.00    +0.000 C 
BRANCH  19  23
ATOM     23  O   UNL     1     131.613 117.610 124.817  0.00  0.00    +0.000 OA
ATOM     24  H   UNL     1     130.967 117.218 124.203  0.00  0.00    +0.000 HD
ENDBRANCH  19  23
ENDBRANCH  11  14
ENDBRANCH   6  12
ENDBRANCH   1   2
BRANCH   1  25
ATOM     25  C   UNL     1     135.415 123.044 138.137  0.00  0.00    +0.000 C 
ATOM     26  C   UNL     1     135.510 123.165 139.327  0.00  0.00    +0.000 C 
BRANCH  26  28
ATOM     27  C   UNL     1     135.721 123.447 142.036  0.00  0.00    +0.000 C 
ATOM     28  C   UNL     1     135.626 123.325 140.846  0.00  0.00    +0.000 C 
BRANCH  27  29
ATOM     29  C   UNL     1     135.846 123.595 143.557  0.00  0.00    +0.000 C 
BRANCH  29  30
ATOM     30  C   UNL     1     135.949 123.710 144.844  0.00  0.00    +0.000 C 
ATOM     31  C   UNL     1     134.833 123.257 145.736  0.00  0.00    +0.000 C 
BRANCH  30  33
ATOM     32  C   UNL     1     138.073 124.831 145.892  0.00  0.00    +0.000 C 
ATOM     33  C   UNL     1     137.099 124.317 145.410  0.00  0.00    +0.000 C 
BRANCH  32  39
ATOM     34  C   UNL     1     139.184 125.867 147.886  0.00  0.00    +0.000 C 
ATOM     35  C   UNL     1     140.389 125.645 145.591  0.00  0.00    +0.000 C 
ATOM     36  C   UNL     1     140.560 126.160 148.310  0.00  0.00    +0.000 C 
ATOM     37  C   UNL     1     141.856 126.227 147.760  0.00  0.00    +0.000 C 
ATOM     38  C   UNL     1     141.558 125.934 146.413  0.00  0.00    +0.000 C 
ATOM     39  C   UNL     1     139.142 125.389 146.423  0.00  0.00    +0.000 C 
ATOM     40  C   UNL     1     138.626 124.740 148.808  0.00  0.00    +0.000 C 
ATOM     41  C   UNL     1     138.307 127.141 148.016  0.00  0.00    +0.000 C 
ATOM     42  C   UNL     1     140.142 126.753 144.562  0.00  0.00    +0.000 C 
BRANCH  35  43
ATOM     43  O   UNL     1     140.679 124.495 144.826  0.00  0.00    +0.000 OA
ATOM     44  H   UNL     1     141.439 124.802 144.298  0.00  0.00    +0.000 HD
ENDBRANCH  35  43
BRANCH  37  45
ATOM     45  O   UNL     1     142.671 127.305 148.081  0.00  0.00    +0.000 OA
BRANCH  45  47
ATOM     46  O   UNL     1     144.577 125.939 148.140  0.00  0.00    +0.000 OA
ATOM     47  C   UNL     1     143.972 126.969 147.905  0.00  0.00    +0.000 C 
ATOM     48  C   UNL     1     144.811 128.057 147.334  0.00  0.00    +0.000 C 
ENDBRANCH  45  47
ENDBRANCH  37  45
ENDBRANCH  32  39
ENDBRANCH  30  33
ENDBRANCH  29  30
ENDBRANCH  27  29
ENDBRANCH  26  28
ENDBRANCH   1  25
TORSDOF 13
ENDMDL
MODEL 9
REMARK VINA RESULT:      -6.3     26.800     33.768
REMARK  Name = 5289155_Peridinin.pdbqt.pdb
REMARK  13 active torsions:
REMARK  status: ('A' for Active; 'I' for Inactive)
REMARK    1  A    between atoms: C_1  and  C_3
REMARK    2  A    between atoms: C_3  and  C_25
REMARK    3  A    between atoms: C_6  and  C_12
REMARK    4  A    between atoms: C_11  and  C_14
REMARK    5  A    between atoms: C_19  and  O_23
REMARK    6  A    between atoms: C_26  and  C_28
REMARK    7  A    between atoms: C_27  and  C_31
REMARK    8  A    between atoms: C_29  and  C_31
REMARK    9  A    between atoms: C_29  and  C_42
REMARK   10  A    between atoms: C_33  and  O_43
REMARK   11  A    between atoms: C_35  and  O_45
REMARK   12  A    between atoms: C_37  and  C_41
REMARK   13  A    between atoms: O_45  and  C_47
REMARK                            x       y       z     vdW  Elec       q    Type
REMARK                         _______ _______ _______ _____ _____    ______ ____
ROOT
ATOM      1  C   UNL     1     132.365 120.012 112.701  0.00  0.00    +0.000 C 
ENDROOT
BRANCH   1   2
ATOM      2  C   UNL     1     132.829 119.593 113.836  0.00  0.00    +0.000 C 
ATOM      3  C   UNL     1     132.377 120.228 115.114  0.00  0.00    +0.000 C 
ATOM      4  O   UNL     1     135.398 117.275 112.826  0.00  0.00    +0.000 OA
ATOM      5  O   UNL     1     137.315 115.975 112.733  0.00  0.00    +0.000 OA
ATOM      6  C   UNL     1     136.100 116.265 114.801  0.00  0.00    +0.000 C 
ATOM      7  C   UNL     1     135.033 116.920 115.079  0.00  0.00    +0.000 C 
ATOM      8  C   UNL     1     136.383 116.449 113.357  0.00  0.00    +0.000 C 
ATOM      9  C   UNL     1     134.562 117.516 113.912  0.00  0.00    +0.000 C 
ATOM     10  C   UNL     1     133.735 118.509 113.874  0.00  0.00    +0.000 C 
BRANCH   6  12
ATOM     11  C   UNL     1     137.486 114.913 116.549  0.00  0.00    +0.000 C 
ATOM     12  C   UNL     1     136.848 115.532 115.741  0.00  0.00    +0.000 C 
BRANCH  11  14
ATOM     13  O   UNL     1     138.965 113.075 116.885  0.00  0.00    +0.000 OA
ATOM     14  C   UNL     1     138.262 114.174 117.532  0.00  0.00    +0.000 C 
ATOM     15  C   UNL     1     139.798 114.114 117.393  0.00  0.00    +0.000 C 
ATOM     16  C   UNL     1     137.638 113.873 118.939  0.00  0.00    +0.000 C 
ATOM     17  C   UNL     1     140.542 113.698 118.539  0.00  0.00    +0.000 C 
ATOM     18  C   UNL     1     138.729 113.409 119.802  0.00  0.00    +0.000 C 
ATOM     19  C   UNL     1     140.131 113.283 119.817  0.00  0.00    +0.000 C 
ATOM     20  C   UNL     1     140.578 114.862 116.307  0.00  0.00    +0.000 C 
ATOM     21  C   UNL     1     137.076 115.228 119.447  0.00  0.00    +0.000 C 
ATOM     22  C   UNL     1     136.536 112.816 118.716  0.00  0.00    +0.000 C 
BRANCH  19  23
ATOM     23  O   UNL     1     140.856 113.538 120.942  0.00  0.00    +0.000 OA
ATOM     24  H   UNL     1     140.461 113.137 121.737  0.00  0.00    +0.000 HD
ENDBRANCH  19  23
ENDBRANCH  11  14
ENDBRANCH   6  12
ENDBRANCH   1   2
BRANCH   1  25
ATOM     25  C   UNL     1     131.817 120.508 111.358  0.00  0.00    +0.000 C 
ATOM     26  C   UNL     1     131.393 120.895 110.304  0.00  0.00    +0.000 C 
BRANCH  26  28
ATOM     27  C   UNL     1     130.434 121.775 107.903  0.00  0.00    +0.000 C 
ATOM     28  C   UNL     1     130.858 121.388 108.956  0.00  0.00    +0.000 C 
BRANCH  27  29
ATOM     29  C   UNL     1     129.885 122.270 106.559  0.00  0.00    +0.000 C 
BRANCH  29  30
ATOM     30  C   UNL     1     129.419 122.678 105.421  0.00  0.00    +0.000 C 
ATOM     31  C   UNL     1     128.643 121.743 104.542  0.00  0.00    +0.000 C 
BRANCH  30  33
ATOM     32  C   UNL     1     129.919 125.117 104.606  0.00  0.00    +0.000 C 
ATOM     33  C   UNL     1     129.689 123.997 104.978  0.00  0.00    +0.000 C 
BRANCH  32  39
ATOM     34  C   UNL     1     130.257 126.717 102.706  0.00  0.00    +0.000 C 
ATOM     35  C   UNL     1     130.471 127.456 105.191  0.00  0.00    +0.000 C 
ATOM     36  C   UNL     1     130.248 128.175 102.521  0.00  0.00    +0.000 C 
ATOM     37  C   UNL     1     130.283 129.350 103.300  0.00  0.00    +0.000 C 
ATOM     38  C   UNL     1     130.385 128.780 104.586  0.00  0.00    +0.000 C 
ATOM     39  C   UNL     1     130.177 126.343 104.197  0.00  0.00    +0.000 C 
ATOM     40  C   UNL     1     129.015 126.131 101.965  0.00  0.00    +0.000 C 
ATOM     41  C   UNL     1     131.560 126.116 102.113  0.00  0.00    +0.000 C 
ATOM     42  C   UNL     1     131.827 127.240 105.869  0.00  0.00    +0.000 C 
BRANCH  35  43
ATOM     43  O   UNL     1     129.527 127.402 106.238  0.00  0.00    +0.000 OA
ATOM     44  H   UNL     1     130.109 127.387 107.021  0.00  0.00    +0.000 HD
ENDBRANCH  35  43
BRANCH  37  45
ATOM     45  O   UNL     1     131.126 130.386 102.921  0.00  0.00    +0.000 OA
BRANCH  45  47
ATOM     46  O   UNL     1     129.468 131.921 102.292  0.00  0.00    +0.000 OA
ATOM     47  C   UNL     1     130.445 131.558 102.920  0.00  0.00    +0.000 C 
ATOM     48  C   UNL     1     131.001 132.586 103.842  0.00  0.00    +0.000 C 
ENDBRANCH  45  47
ENDBRANCH  37  45
ENDBRANCH  32  39
ENDBRANCH  30  33
ENDBRANCH  29  30
ENDBRANCH  27  29
ENDBRANCH  26  28
ENDBRANCH   1  25
TORSDOF 13
ENDMDL
