MODEL 1
REMARK VINA RESULT:      -6.8      0.000      0.000
REMARK  Name = 5318517_Andrographolide.pdbqt.pdb
REMARK  6 active torsions:
REMARK  status: ('A' for Active; 'I' for Inactive)
REMARK    1  A    between atoms: C_3  and  C_16
REMARK    2  A    between atoms: C_4  and  C_19
REMARK    3  A    between atoms: C_6  and  O_14
REMARK    4  A    between atoms: C_16  and  O_17
REMARK    5  A    between atoms: C_22  and  C_23
REMARK    6  A    between atoms: C_24  and  O_27
REMARK                            x       y       z     vdW  Elec       q    Type
REMARK                         _______ _______ _______ _____ _____    ______ ____
ROOT
ATOM      1  C   UNL     1     143.005 126.940  99.741  0.00  0.00    +0.000 C 
ATOM      2  C   UNL     1     143.828 126.023 100.696  0.00  0.00    +0.000 C 
ATOM      3  C   UNL     1     145.109 126.500 101.402  0.00  0.00    +0.000 C 
ATOM      4  C   UNL     1     142.211 126.239  98.603  0.00  0.00    +0.000 C 
ATOM      5  C   UNL     1     143.989 127.856  99.172  0.00  0.00    +0.000 C 
ATOM      6  C   UNL     1     145.897 127.667 100.733  0.00  0.00    +0.000 C 
ATOM      7  C   UNL     1     143.305 124.703 100.809  0.00  0.00    +0.000 C 
ATOM      8  C   UNL     1     145.366 128.262  99.574  0.00  0.00    +0.000 C 
ATOM      9  C   UNL     1     141.979 127.718 100.621  0.00  0.00    +0.000 C 
ATOM     10  C   UNL     1     142.270 124.162  99.876  0.00  0.00    +0.000 C 
ATOM     11  C   UNL     1     141.714 124.868  98.790  0.00  0.00    +0.000 C 
ATOM     12  C   UNL     1     146.110 125.289 101.449  0.00  0.00    +0.000 C 
ATOM     13  C   UNL     1     140.984 124.184  97.907  0.00  0.00    +0.000 C 
ENDROOT
BRANCH   6  14
ATOM     14  O   UNL     1     146.983 128.244 101.367  0.00  0.00    +0.000 OA
ATOM     15  H   UNL     1     147.229 129.099 100.973  0.00  0.00    +0.000 HD
ENDBRANCH   6  14
BRANCH   4  16
ATOM     16  C   UNL     1     141.849 126.967  97.419  0.00  0.00    +0.000 C 
ATOM     17  C   UNL     1     141.455 127.749  96.162  0.00  0.00    +0.000 C 
BRANCH  17  20
ATOM     18  O   UNL     1     141.208 129.144  92.895  0.00  0.00    +0.000 OA
ATOM     19  O   UNL     1     143.043 127.920  93.652  0.00  0.00    +0.000 OA
ATOM     20  C   UNL     1     141.126 128.418  95.103  0.00  0.00    +0.000 C 
ATOM     21  C   UNL     1     139.916 129.168  94.876  0.00  0.00    +0.000 C 
ATOM     22  C   UNL     1     141.951 128.429  93.831  0.00  0.00    +0.000 C 
ATOM     23  C   UNL     1     140.107 129.508  93.535  0.00  0.00    +0.000 C 
BRANCH  21  24
ATOM     24  O   UNL     1     138.731 128.741  95.405  0.00  0.00    +0.000 OA
ATOM     25  H   UNL     1     138.783 128.641  96.372  0.00  0.00    +0.000 HD
ENDBRANCH  21  24
ENDBRANCH  17  20
ENDBRANCH   4  16
BRANCH   3  26
ATOM     26  C   UNL     1     144.736 126.913 102.785  0.00  0.00    +0.000 C 
BRANCH  26  27
ATOM     27  O   UNL     1     144.398 127.295 104.020  0.00  0.00    +0.000 OA
ATOM     28  H   UNL     1     144.390 126.531 104.625  0.00  0.00    +0.000 HD
ENDBRANCH  26  27
ENDBRANCH   3  26
TORSDOF 6
ENDMDL
MODEL 2
REMARK VINA RESULT:      -6.7      4.435      5.418
REMARK  Name = 5318517_Andrographolide.pdbqt.pdb
REMARK  6 active torsions:
REMARK  status: ('A' for Active; 'I' for Inactive)
REMARK    1  A    between atoms: C_3  and  C_16
REMARK    2  A    between atoms: C_4  and  C_19
REMARK    3  A    between atoms: C_6  and  O_14
REMARK    4  A    between atoms: C_16  and  O_17
REMARK    5  A    between atoms: C_22  and  C_23
REMARK    6  A    between atoms: C_24  and  O_27
REMARK                            x       y       z     vdW  Elec       q    Type
REMARK                         _______ _______ _______ _____ _____    ______ ____
ROOT
ATOM      1  C   UNL     1     145.941 125.697 100.947  0.00  0.00    +0.000 C 
ATOM      2  C   UNL     1     146.102 126.915 101.907  0.00  0.00    +0.000 C 
ATOM      3  C   UNL     1     145.512 126.932 103.328  0.00  0.00    +0.000 C 
ATOM      4  C   UNL     1     145.930 126.000  99.422  0.00  0.00    +0.000 C 
ATOM      5  C   UNL     1     144.678 125.081 101.342  0.00  0.00    +0.000 C 
ATOM      6  C   UNL     1     144.287 126.007 103.601  0.00  0.00    +0.000 C 
ATOM      7  C   UNL     1     146.799 128.012 101.325  0.00  0.00    +0.000 C 
ATOM      8  C   UNL     1     143.835 125.164 102.569  0.00  0.00    +0.000 C 
ATOM      9  C   UNL     1     147.133 124.731 101.226  0.00  0.00    +0.000 C 
ATOM     10  C   UNL     1     147.071 128.109  99.859  0.00  0.00    +0.000 C 
ATOM     11  C   UNL     1     146.665 127.160  98.897  0.00  0.00    +0.000 C 
ATOM     12  C   UNL     1     145.010 128.393 103.622  0.00  0.00    +0.000 C 
ATOM     13  C   UNL     1     146.766 127.493  97.609  0.00  0.00    +0.000 C 
ENDROOT
BRANCH   6  14
ATOM     14  O   UNL     1     143.780 125.862 104.880  0.00  0.00    +0.000 OA
ATOM     15  H   UNL     1     142.809 125.930 104.902  0.00  0.00    +0.000 HD
ENDBRANCH   6  14
BRANCH   4  16
ATOM     16  C   UNL     1     145.312 125.082  98.507  0.00  0.00    +0.000 C 
ATOM     17  C   UNL     1     144.652 124.095  97.539  0.00  0.00    +0.000 C 
BRANCH  17  20
ATOM     18  O   UNL     1     143.827 121.919  94.843  0.00  0.00    +0.000 OA
ATOM     19  O   UNL     1     145.571 123.467  94.780  0.00  0.00    +0.000 OA
ATOM     20  C   UNL     1     144.087 123.261  96.725  0.00  0.00    +0.000 C 
ATOM     21  C   UNL     1     142.944 122.420  96.979  0.00  0.00    +0.000 C 
ATOM     22  C   UNL     1     144.628 122.942  95.345  0.00  0.00    +0.000 C 
ATOM     23  C   UNL     1     142.936 121.681  95.794  0.00  0.00    +0.000 C 
BRANCH  21  24
ATOM     24  O   UNL     1     142.741 121.890  98.222  0.00  0.00    +0.000 OA
ATOM     25  H   UNL     1     141.859 122.110  98.569  0.00  0.00    +0.000 HD
ENDBRANCH  21  24
ENDBRANCH  17  20
ENDBRANCH   4  16
BRANCH   3  26
ATOM     26  C   UNL     1     146.603 126.563 104.274  0.00  0.00    +0.000 C 
BRANCH  26  27
ATOM     27  O   UNL     1     147.573 126.232 105.132  0.00  0.00    +0.000 OA
ATOM     28  H   UNL     1     147.230 125.640 105.826  0.00  0.00    +0.000 HD
ENDBRANCH  26  27
ENDBRANCH   3  26
TORSDOF 6
ENDMDL
MODEL 3
REMARK VINA RESULT:      -6.6      4.085      5.654
REMARK  Name = 5318517_Andrographolide.pdbqt.pdb
REMARK  6 active torsions:
REMARK  status: ('A' for Active; 'I' for Inactive)
REMARK    1  A    between atoms: C_3  and  C_16
REMARK    2  A    between atoms: C_4  and  C_19
REMARK    3  A    between atoms: C_6  and  O_14
REMARK    4  A    between atoms: C_16  and  O_17
REMARK    5  A    between atoms: C_22  and  C_23
REMARK    6  A    between atoms: C_24  and  O_27
REMARK                            x       y       z     vdW  Elec       q    Type
REMARK                         _______ _______ _______ _____ _____    ______ ____
ROOT
ATOM      1  C   UNL     1     145.651 126.096  98.685  0.00  0.00    +0.000 C 
ATOM      2  C   UNL     1     146.726 126.399  97.597  0.00  0.00    +0.000 C 
ATOM      3  C   UNL     1     147.377 127.785  97.441  0.00  0.00    +0.000 C 
ATOM      4  C   UNL     1     144.605 124.994  98.352  0.00  0.00    +0.000 C 
ATOM      5  C   UNL     1     144.977 127.372  98.903  0.00  0.00    +0.000 C 
ATOM      6  C   UNL     1     146.569 129.012  97.962  0.00  0.00    +0.000 C 
ATOM      7  C   UNL     1     147.004 125.293  96.746  0.00  0.00    +0.000 C 
ATOM      8  C   UNL     1     145.338 128.787  98.603  0.00  0.00    +0.000 C 
ATOM      9  C   UNL     1     146.411 125.650  99.971  0.00  0.00    +0.000 C 
ATOM     10  C   UNL     1     146.139 124.074  96.696  0.00  0.00    +0.000 C 
ATOM     11  C   UNL     1     144.964 123.887  97.453  0.00  0.00    +0.000 C 
ATOM     12  C   UNL     1     147.592 128.044  95.906  0.00  0.00    +0.000 C 
ATOM     13  C   UNL     1     144.170 122.864  97.132  0.00  0.00    +0.000 C 
ENDROOT
BRANCH   6  14
ATOM     14  O   UNL     1     147.135 130.275  97.982  0.00  0.00    +0.000 OA
ATOM     15  H   UNL     1     147.933 130.331  97.427  0.00  0.00    +0.000 HD
ENDBRANCH   6  14
BRANCH   4  16
ATOM     16  C   UNL     1     143.333 124.980  99.018  0.00  0.00    +0.000 C 
ATOM     17  C   UNL     1     141.974 124.954  99.723  0.00  0.00    +0.000 C 
BRANCH  17  20
ATOM     18  O   UNL     1     139.067 125.666 101.655  0.00  0.00    +0.000 OA
ATOM     19  O   UNL     1     141.054 126.879 101.796  0.00  0.00    +0.000 OA
ATOM     20  C   UNL     1     140.827 124.926 100.326  0.00  0.00    +0.000 C 
ATOM     21  C   UNL     1     139.733 124.016 100.097  0.00  0.00    +0.000 C 
ATOM     22  C   UNL     1     140.391 125.965 101.341  0.00  0.00    +0.000 C 
ATOM     23  C   UNL     1     138.775 124.595 100.932  0.00  0.00    +0.000 C 
BRANCH  21  24
ATOM     24  O   UNL     1     139.481 123.543  98.840  0.00  0.00    +0.000 OA
ATOM     25  H   UNL     1     139.600 122.579  98.786  0.00  0.00    +0.000 HD
ENDBRANCH  21  24
ENDBRANCH  17  20
ENDBRANCH   4  16
BRANCH   3  26
ATOM     26  C   UNL     1     148.690 127.749  98.146  0.00  0.00    +0.000 C 
BRANCH  26  27
ATOM     27  O   UNL     1     149.866 127.704  98.779  0.00  0.00    +0.000 OA
ATOM     28  H   UNL     1     150.568 127.397  98.177  0.00  0.00    +0.000 HD
ENDBRANCH  26  27
ENDBRANCH   3  26
TORSDOF 6
ENDMDL
MODEL 4
REMARK VINA RESULT:      -6.6      3.904      6.013
REMARK  Name = 5318517_Andrographolide.pdbqt.pdb
REMARK  6 active torsions:
REMARK  status: ('A' for Active; 'I' for Inactive)
REMARK    1  A    between atoms: C_3  and  C_16
REMARK    2  A    between atoms: C_4  and  C_19
REMARK    3  A    between atoms: C_6  and  O_14
REMARK    4  A    between atoms: C_16  and  O_17
REMARK    5  A    between atoms: C_22  and  C_23
REMARK    6  A    between atoms: C_24  and  O_27
REMARK                            x       y       z     vdW  Elec       q    Type
REMARK                         _______ _______ _______ _____ _____    ______ ____
ROOT
ATOM      1  C   UNL     1     145.267 127.604  99.057  0.00  0.00    +0.000 C 
ATOM      2  C   UNL     1     146.818 127.755  99.011  0.00  0.00    +0.000 C 
ATOM      3  C   UNL     1     147.641 127.458  97.745  0.00  0.00    +0.000 C 
ATOM      4  C   UNL     1     144.636 127.247 100.433  0.00  0.00    +0.000 C 
ATOM      5  C   UNL     1     144.970 126.556  98.086  0.00  0.00    +0.000 C 
ATOM      6  C   UNL     1     147.021 126.472  96.709  0.00  0.00    +0.000 C 
ATOM      7  C   UNL     1     147.391 128.143 100.255  0.00  0.00    +0.000 C 
ATOM      8  C   UNL     1     145.730 125.967  96.947  0.00  0.00    +0.000 C 
ATOM      9  C   UNL     1     144.659 128.964  98.599  0.00  0.00    +0.000 C 
ATOM     10  C   UNL     1     146.630 128.104 101.541  0.00  0.00    +0.000 C 
ATOM     11  C   UNL     1     145.294 127.673 101.677  0.00  0.00    +0.000 C 
ATOM     12  C   UNL     1     148.995 126.799  98.195  0.00  0.00    +0.000 C 
ATOM     13  C   UNL     1     144.825 127.466 102.908  0.00  0.00    +0.000 C 
ENDROOT
BRANCH   6  14
ATOM     14  O   UNL     1     147.631 126.254  95.486  0.00  0.00    +0.000 OA
ATOM     15  H   UNL     1     146.989 126.203  94.756  0.00  0.00    +0.000 HD
ENDBRANCH   6  14
BRANCH   4  16
ATOM     16  C   UNL     1     143.348 126.615 100.495  0.00  0.00    +0.000 C 
ATOM     17  C   UNL     1     141.980 125.931 100.564  0.00  0.00    +0.000 C 
BRANCH  17  20
ATOM     18  O   UNL     1     139.204 123.716 100.292  0.00  0.00    +0.000 OA
ATOM     19  O   UNL     1     141.150 123.527  99.020  0.00  0.00    +0.000 OA
ATOM     20  C   UNL     1     140.823 125.351 100.631  0.00  0.00    +0.000 C 
ATOM     21  C   UNL     1     139.716 125.690 101.490  0.00  0.00    +0.000 C 
ATOM     22  C   UNL     1     140.471 124.096  99.856  0.00  0.00    +0.000 C 
ATOM     23  C   UNL     1     138.860 124.628 101.189  0.00  0.00    +0.000 C 
BRANCH  21  24
ATOM     24  O   UNL     1     139.943 126.168 102.749  0.00  0.00    +0.000 OA
ATOM     25  H   UNL     1     139.124 126.205 103.274  0.00  0.00    +0.000 HD
ENDBRANCH  21  24
ENDBRANCH  17  20
ENDBRANCH   4  16
BRANCH   3  26
ATOM     26  C   UNL     1     147.903 128.757  97.062  0.00  0.00    +0.000 C 
BRANCH  26  27
ATOM     27  O   UNL     1     148.150 129.919  96.451  0.00  0.00    +0.000 OA
ATOM     28  H   UNL     1     147.318 130.382  96.245  0.00  0.00    +0.000 HD
ENDBRANCH  26  27
ENDBRANCH   3  26
TORSDOF 6
ENDMDL
MODEL 5
REMARK VINA RESULT:      -6.4      3.350      7.688
REMARK  Name = 5318517_Andrographolide.pdbqt.pdb
REMARK  6 active torsions:
REMARK  status: ('A' for Active; 'I' for Inactive)
REMARK    1  A    between atoms: C_3  and  C_16
REMARK    2  A    between atoms: C_4  and  C_19
REMARK    3  A    between atoms: C_6  and  O_14
REMARK    4  A    between atoms: C_16  and  O_17
REMARK    5  A    between atoms: C_22  and  C_23
REMARK    6  A    between atoms: C_24  and  O_27
REMARK                            x       y       z     vdW  Elec       q    Type
REMARK                         _______ _______ _______ _____ _____    ______ ____
ROOT
ATOM      1  C   UNL     1     143.364 123.916  98.055  0.00  0.00    +0.000 C 
ATOM      2  C   UNL     1     142.606 123.874  96.694  0.00  0.00    +0.000 C 
ATOM      3  C   UNL     1     143.320 124.060  95.343  0.00  0.00    +0.000 C 
ATOM      4  C   UNL     1     142.560 124.404  99.294  0.00  0.00    +0.000 C 
ATOM      5  C   UNL     1     144.500 124.802  97.818  0.00  0.00    +0.000 C 
ATOM      6  C   UNL     1     144.662 124.853  95.352  0.00  0.00    +0.000 C 
ATOM      7  C   UNL     1     141.200 123.696  96.829  0.00  0.00    +0.000 C 
ATOM      8  C   UNL     1     145.180 125.290  96.584  0.00  0.00    +0.000 C 
ATOM      9  C   UNL     1     143.854 122.466  98.354  0.00  0.00    +0.000 C 
ATOM     10  C   UNL     1     140.489 123.848  98.135  0.00  0.00    +0.000 C 
ATOM     11  C   UNL     1     141.106 124.195  99.355  0.00  0.00    +0.000 C 
ATOM     12  C   UNL     1     142.358 124.870  94.400  0.00  0.00    +0.000 C 
ATOM     13  C   UNL     1     140.321 124.527 100.381  0.00  0.00    +0.000 C 
ENDROOT
BRANCH   6  14
ATOM     14  O   UNL     1     145.433 124.952  94.207  0.00  0.00    +0.000 OA
ATOM     15  H   UNL     1     146.332 124.602  94.336  0.00  0.00    +0.000 HD
ENDBRANCH   6  14
BRANCH   4  16
ATOM     16  C   UNL     1     143.245 124.943 100.435  0.00  0.00    +0.000 C 
ATOM     17  C   UNL     1     143.984 125.509 101.651  0.00  0.00    +0.000 C 
BRANCH  17  20
ATOM     18  O   UNL     1     145.038 126.514 104.901  0.00  0.00    +0.000 OA
ATOM     19  O   UNL     1     142.877 125.794 104.398  0.00  0.00    +0.000 OA
ATOM     20  C   UNL     1     144.615 125.990 102.675  0.00  0.00    +0.000 C 
ATOM     21  C   UNL     1     145.985 126.434 102.736  0.00  0.00    +0.000 C 
ATOM     22  C   UNL     1     144.017 126.066 104.066  0.00  0.00    +0.000 C 
ATOM     23  C   UNL     1     146.083 126.684 104.106  0.00  0.00    +0.000 C 
BRANCH  21  24
ATOM     24  O   UNL     1     146.946 125.809 101.992  0.00  0.00    +0.000 OA
ATOM     25  H   UNL     1     146.566 125.126 101.411  0.00  0.00    +0.000 HD
ENDBRANCH  21  24
ENDBRANCH  17  20
ENDBRANCH   4  16
BRANCH   3  26
ATOM     26  C   UNL     1     143.576 122.705  94.777  0.00  0.00    +0.000 C 
BRANCH  26  27
ATOM     27  O   UNL     1     143.816 121.494  94.265  0.00  0.00    +0.000 OA
ATOM     28  H   UNL     1     143.036 120.919  94.365  0.00  0.00    +0.000 HD
ENDBRANCH  26  27
ENDBRANCH   3  26
TORSDOF 6
ENDMDL
MODEL 6
REMARK VINA RESULT:      -6.4     34.179     37.942
REMARK  Name = 5318517_Andrographolide.pdbqt.pdb
REMARK  6 active torsions:
REMARK  status: ('A' for Active; 'I' for Inactive)
REMARK    1  A    between atoms: C_3  and  C_16
REMARK    2  A    between atoms: C_4  and  C_19
REMARK    3  A    between atoms: C_6  and  O_14
REMARK    4  A    between atoms: C_16  and  O_17
REMARK    5  A    between atoms: C_22  and  C_23
REMARK    6  A    between atoms: C_24  and  O_27
REMARK                            x       y       z     vdW  Elec       q    Type
REMARK                         _______ _______ _______ _____ _____    ______ ____
ROOT
ATOM      1  C   UNL     1     135.360 120.289 135.218  0.00  0.00    +0.000 C 
ATOM      2  C   UNL     1     134.039 119.796 135.883  0.00  0.00    +0.000 C 
ATOM      3  C   UNL     1     132.869 119.217 135.069  0.00  0.00    +0.000 C 
ATOM      4  C   UNL     1     136.133 121.425 135.947  0.00  0.00    +0.000 C 
ATOM      5  C   UNL     1     134.959 120.734 133.887  0.00  0.00    +0.000 C 
ATOM      6  C   UNL     1     132.760 119.649 133.575  0.00  0.00    +0.000 C 
ATOM      7  C   UNL     1     134.008 119.977 137.295  0.00  0.00    +0.000 C 
ATOM      8  C   UNL     1     133.761 120.477 133.037  0.00  0.00    +0.000 C 
ATOM      9  C   UNL     1     136.313 119.059 135.121  0.00  0.00    +0.000 C 
ATOM     10  C   UNL     1     134.997 120.832 138.021  0.00  0.00    +0.000 C 
ATOM     11  C   UNL     1     136.041 121.556 137.409  0.00  0.00    +0.000 C 
ATOM     12  C   UNL     1     131.532 119.694 135.743  0.00  0.00    +0.000 C 
ATOM     13  C   UNL     1     136.693 122.457 138.145  0.00  0.00    +0.000 C 
ENDROOT
BRANCH   6  14
ATOM     14  O   UNL     1     131.819 119.074 132.738  0.00  0.00    +0.000 OA
ATOM     15  H   UNL     1     131.751 118.111 132.866  0.00  0.00    +0.000 HD
ENDBRANCH   6  14
BRANCH   4  16
ATOM     16  C   UNL     1     137.037 122.268 135.217  0.00  0.00    +0.000 C 
ATOM     17  C   UNL     1     138.003 123.160 134.430  0.00  0.00    +0.000 C 
BRANCH  17  20
ATOM     18  O   UNL     1     140.681 125.232 133.328  0.00  0.00    +0.000 OA
ATOM     19  O   UNL     1     140.273 124.712 135.565  0.00  0.00    +0.000 OA
ATOM     20  C   UNL     1     138.813 123.914 133.758  0.00  0.00    +0.000 C 
ATOM     21  C   UNL     1     138.841 124.127 132.333  0.00  0.00    +0.000 C 
ATOM     22  C   UNL     1     139.986 124.645 134.382  0.00  0.00    +0.000 C 
ATOM     23  C   UNL     1     140.002 124.898 132.240  0.00  0.00    +0.000 C 
BRANCH  21  24
ATOM     24  O   UNL     1     138.516 123.113 131.478  0.00  0.00    +0.000 OA
ATOM     25  H   UNL     1     139.087 123.107 130.690  0.00  0.00    +0.000 HD
ENDBRANCH  21  24
ENDBRANCH  17  20
ENDBRANCH   4  16
BRANCH   3  26
ATOM     26  C   UNL     1     132.972 117.731 135.124  0.00  0.00    +0.000 C 
BRANCH  26  27
ATOM     27  O   UNL     1     133.053 116.398 135.168  0.00  0.00    +0.000 OA
ATOM     28  H   UNL     1     133.020 116.082 136.090  0.00  0.00    +0.000 HD
ENDBRANCH  26  27
ENDBRANCH   3  26
TORSDOF 6
ENDMDL
MODEL 7
REMARK VINA RESULT:      -6.4      2.386      7.332
REMARK  Name = 5318517_Andrographolide.pdbqt.pdb
REMARK  6 active torsions:
REMARK  status: ('A' for Active; 'I' for Inactive)
REMARK    1  A    between atoms: C_3  and  C_16
REMARK    2  A    between atoms: C_4  and  C_19
REMARK    3  A    between atoms: C_6  and  O_14
REMARK    4  A    between atoms: C_16  and  O_17
REMARK    5  A    between atoms: C_22  and  C_23
REMARK    6  A    between atoms: C_24  and  O_27
REMARK                            x       y       z     vdW  Elec       q    Type
REMARK                         _______ _______ _______ _____ _____    ______ ____
ROOT
ATOM      1  C   UNL     1     143.485 125.185  97.321  0.00  0.00    +0.000 C 
ATOM      2  C   UNL     1     142.603 125.319  96.042  0.00  0.00    +0.000 C 
ATOM      3  C   UNL     1     143.047 126.132  94.813  0.00  0.00    +0.000 C 
ATOM      4  C   UNL     1     142.740 124.981  98.671  0.00  0.00    +0.000 C 
ATOM      5  C   UNL     1     144.264 126.419  97.363  0.00  0.00    +0.000 C 
ATOM      6  C   UNL     1     144.081 127.274  95.050  0.00  0.00    +0.000 C 
ATOM      7  C   UNL     1     141.344 124.663  96.146  0.00  0.00    +0.000 C 
ATOM      8  C   UNL     1     144.601 127.454  96.345  0.00  0.00    +0.000 C 
ATOM      9  C   UNL     1     144.419 123.955  97.108  0.00  0.00    +0.000 C 
ATOM     10  C   UNL     1     140.796 124.168  97.446  0.00  0.00    +0.000 C 
ATOM     11  C   UNL     1     141.435 124.304  98.696  0.00  0.00    +0.000 C 
ATOM     12  C   UNL     1     141.774 126.834  94.217  0.00  0.00    +0.000 C 
ATOM     13  C   UNL     1     140.727 124.032  99.793  0.00  0.00    +0.000 C 
ENDROOT
BRANCH   6  14
ATOM     14  O   UNL     1     144.632 127.964  93.985  0.00  0.00    +0.000 OA
ATOM     15  H   UNL     1     145.601 128.032  94.051  0.00  0.00    +0.000 HD
ENDBRANCH   6  14
BRANCH   4  16
ATOM     16  C   UNL     1     143.376 125.336  99.908  0.00  0.00    +0.000 C 
ATOM     17  C   UNL     1     144.063 125.706 101.226  0.00  0.00    +0.000 C 
BRANCH  17  20
ATOM     18  O   UNL     1     146.398 126.510 103.793  0.00  0.00    +0.000 OA
ATOM     19  O   UNL     1     146.989 125.565 101.744  0.00  0.00    +0.000 OA
ATOM     20  C   UNL     1     144.651 126.023 102.337  0.00  0.00    +0.000 C 
ATOM     21  C   UNL     1     144.048 126.560 103.530  0.00  0.00    +0.000 C 
ATOM     22  C   UNL     1     146.154 125.979 102.529  0.00  0.00    +0.000 C 
ATOM     23  C   UNL     1     145.202 126.813 104.275  0.00  0.00    +0.000 C 
BRANCH  21  24
ATOM     24  O   UNL     1     142.982 127.410 103.441  0.00  0.00    +0.000 OA
ATOM     25  H   UNL     1     142.895 127.964 104.237  0.00  0.00    +0.000 HD
ENDBRANCH  21  24
ENDBRANCH  17  20
ENDBRANCH   4  16
BRANCH   3  26
ATOM     26  C   UNL     1     143.618 125.176  93.822  0.00  0.00    +0.000 C 
BRANCH  26  27
ATOM     27  O   UNL     1     144.131 124.309  92.943  0.00  0.00    +0.000 OA
ATOM     28  H   UNL     1     143.674 123.451  93.001  0.00  0.00    +0.000 HD
ENDBRANCH  26  27
ENDBRANCH   3  26
TORSDOF 6
ENDMDL
MODEL 8
REMARK VINA RESULT:      -6.3      1.818      3.485
REMARK  Name = 5318517_Andrographolide.pdbqt.pdb
REMARK  6 active torsions:
REMARK  status: ('A' for Active; 'I' for Inactive)
REMARK    1  A    between atoms: C_3  and  C_16
REMARK    2  A    between atoms: C_4  and  C_19
REMARK    3  A    between atoms: C_6  and  O_14
REMARK    4  A    between atoms: C_16  and  O_17
REMARK    5  A    between atoms: C_22  and  C_23
REMARK    6  A    between atoms: C_24  and  O_27
REMARK                            x       y       z     vdW  Elec       q    Type
REMARK                         _______ _______ _______ _____ _____    ______ ____
ROOT
ATOM      1  C   UNL     1     143.469 126.822  99.300  0.00  0.00    +0.000 C 
ATOM      2  C   UNL     1     144.220 127.033 100.650  0.00  0.00    +0.000 C 
ATOM      3  C   UNL     1     143.535 126.846 102.016  0.00  0.00    +0.000 C 
ATOM      4  C   UNL     1     143.963 127.654  98.083  0.00  0.00    +0.000 C 
ATOM      5  C   UNL     1     142.078 127.150  99.597  0.00  0.00    +0.000 C 
ATOM      6  C   UNL     1     141.987 127.016 102.064  0.00  0.00    +0.000 C 
ATOM      7  C   UNL     1     145.570 127.455 100.492  0.00  0.00    +0.000 C 
ATOM      8  C   UNL     1     141.297 127.257 100.862  0.00  0.00    +0.000 C 
ATOM      9  C   UNL     1     143.608 125.314  98.927  0.00  0.00    +0.000 C 
ATOM     10  C   UNL     1     146.115 127.947  99.190  0.00  0.00    +0.000 C 
ATOM     11  C   UNL     1     145.372 128.065  97.997  0.00  0.00    +0.000 C 
ATOM     12  C   UNL     1     144.109 127.935 102.993  0.00  0.00    +0.000 C 
ATOM     13  C   UNL     1     145.920 128.738  96.983  0.00  0.00    +0.000 C 
ENDROOT
BRANCH   6  14
ATOM     14  O   UNL     1     141.279 126.736 103.220  0.00  0.00    +0.000 OA
ATOM     15  H   UNL     1     141.831 126.810 104.018  0.00  0.00    +0.000 HD
ENDBRANCH   6  14
BRANCH   4  16
ATOM     16  C   UNL     1     143.082 127.916  96.980  0.00  0.00    +0.000 C 
ATOM     17  C   UNL     1     142.137 128.184  95.805  0.00  0.00    +0.000 C 
BRANCH  17  20
ATOM     18  O   UNL     1     139.435 129.179  93.709  0.00  0.00    +0.000 OA
ATOM     19  O   UNL     1     139.331 129.147  96.040  0.00  0.00    +0.000 OA
ATOM     20  C   UNL     1     141.330 128.412  94.817  0.00  0.00    +0.000 C 
ATOM     21  C   UNL     1     141.614 128.311  93.408  0.00  0.00    +0.000 C 
ATOM     22  C   UNL     1     139.924 128.950  94.993  0.00  0.00    +0.000 C 
ATOM     23  C   UNL     1     140.416 128.815  92.897  0.00  0.00    +0.000 C 
BRANCH  21  24
ATOM     24  O   UNL     1     142.853 128.629  92.930  0.00  0.00    +0.000 OA
ATOM     25  H   UNL     1     143.433 127.848  92.883  0.00  0.00    +0.000 HD
ENDBRANCH  21  24
ENDBRANCH  17  20
ENDBRANCH   4  16
BRANCH   3  26
ATOM     26  C   UNL     1     143.876 125.481 102.509  0.00  0.00    +0.000 C 
BRANCH  26  27
ATOM     27  O   UNL     1     144.194 124.261 102.951  0.00  0.00    +0.000 OA
ATOM     28  H   UNL     1     144.145 124.225 103.924  0.00  0.00    +0.000 HD
ENDBRANCH  26  27
ENDBRANCH   3  26
TORSDOF 6
ENDMDL
MODEL 9
REMARK VINA RESULT:      -6.3     35.219     39.401
REMARK  Name = 5318517_Andrographolide.pdbqt.pdb
REMARK  6 active torsions:
REMARK  status: ('A' for Active; 'I' for Inactive)
REMARK    1  A    between atoms: C_3  and  C_16
REMARK    2  A    between atoms: C_4  and  C_19
REMARK    3  A    between atoms: C_6  and  O_14
REMARK    4  A    between atoms: C_16  and  O_17
REMARK    5  A    between atoms: C_22  and  C_23
REMARK    6  A    between atoms: C_24  and  O_27
REMARK                            x       y       z     vdW  Elec       q    Type
REMARK                         _______ _______ _______ _____ _____    ______ ____
ROOT
ATOM      1  C   UNL     1     134.558 121.210 137.094  0.00  0.00    +0.000 C 
ATOM      2  C   UNL     1     133.461 121.173 138.201  0.00  0.00    +0.000 C 
ATOM      3  C   UNL     1     131.968 120.975 137.882  0.00  0.00    +0.000 C 
ATOM      4  C   UNL     1     135.826 122.060 137.389  0.00  0.00    +0.000 C 
ATOM      5  C   UNL     1     133.873 121.730 135.914  0.00  0.00    +0.000 C 
ATOM      6  C   UNL     1     131.485 121.387 136.459  0.00  0.00    +0.000 C 
ATOM      7  C   UNL     1     133.969 121.385 139.514  0.00  0.00    +0.000 C 
ATOM      8  C   UNL     1     132.437 121.846 135.529  0.00  0.00    +0.000 C 
ATOM      9  C   UNL     1     135.020 119.740 136.855  0.00  0.00    +0.000 C 
ATOM     10  C   UNL     1     135.348 121.899 139.773  0.00  0.00    +0.000 C 
ATOM     11  C   UNL     1     136.282 122.244 138.774  0.00  0.00    +0.000 C 
ATOM     12  C   UNL     1     131.142 121.863 138.881  0.00  0.00    +0.000 C 
ATOM     13  C   UNL     1     137.377 122.910 139.145  0.00  0.00    +0.000 C 
ENDROOT
BRANCH   6  14
ATOM     14  O   UNL     1     130.192 121.121 136.044  0.00  0.00    +0.000 OA
ATOM     15  H   UNL     1     129.988 120.169 136.060  0.00  0.00    +0.000 HD
ENDBRANCH   6  14
BRANCH   4  16
ATOM     16  C   UNL     1     136.629 122.559 136.308  0.00  0.00    +0.000 C 
ATOM     17  C   UNL     1     137.480 123.085 135.148  0.00  0.00    +0.000 C 
BRANCH  17  20
ATOM     18  O   UNL     1     140.015 123.735 132.732  0.00  0.00    +0.000 OA
ATOM     19  O   UNL     1     140.362 122.510 134.687  0.00  0.00    +0.000 OA
ATOM     20  C   UNL     1     138.193 123.533 134.163  0.00  0.00    +0.000 C 
ATOM     21  C   UNL     1     137.754 124.346 133.057  0.00  0.00    +0.000 C 
ATOM     22  C   UNL     1     139.648 123.167 133.950  0.00  0.00    +0.000 C 
ATOM     23  C   UNL     1     138.927 124.355 132.300  0.00  0.00    +0.000 C 
BRANCH  21  24
ATOM     24  O   UNL     1     136.500 124.186 132.539  0.00  0.00    +0.000 OA
ATOM     25  H   UNL     1     135.821 124.604 133.099  0.00  0.00    +0.000 HD
ENDBRANCH  21  24
ENDBRANCH  17  20
ENDBRANCH   4  16
BRANCH   3  26
ATOM     26  C   UNL     1     131.649 119.534 138.090  0.00  0.00    +0.000 C 
BRANCH  26  27
ATOM     27  O   UNL     1     131.370 118.242 138.287  0.00  0.00    +0.000 OA
ATOM     28  H   UNL     1     130.440 118.054 138.064  0.00  0.00    +0.000 HD
ENDBRANCH  26  27
ENDBRANCH   3  26
TORSDOF 6
ENDMDL
