MODEL 1
REMARK VINA RESULT:      -8.2      0.000      0.000
REMARK  Name = 5326018_Caulerpin.pdbqt.pdb
REMARK  4 active torsions:
REMARK  status: ('A' for Active; 'I' for Inactive)
REMARK    1  A    between atoms: C_11  and  C_26
REMARK    2  A    between atoms: C_12  and  C_30
REMARK    3  A    between atoms: C_26  and  O_27
REMARK    4  A    between atoms: C_30  and  O_31
REMARK                            x       y       z     vdW  Elec       q    Type
REMARK                         _______ _______ _______ _____ _____    ______ ____
ROOT
ATOM      1  N   UNL     1     146.592 126.156 101.090  0.00  0.00    +0.000 N 
ATOM      2  N   UNL     1     142.342 122.596  97.633  0.00  0.00    +0.000 N 
ATOM      3  C   UNL     1     144.539 125.338 100.924  0.00  0.00    +0.000 C 
ATOM      4  C   UNL     1     144.234 123.750  97.651  0.00  0.00    +0.000 C 
ATOM      5  C   UNL     1     145.681 125.645 100.189  0.00  0.00    +0.000 C 
ATOM      6  C   UNL     1     143.036 123.560  98.335  0.00  0.00    +0.000 C 
ATOM      7  C   UNL     1     144.737 125.729 102.270  0.00  0.00    +0.000 A 
ATOM      8  C   UNL     1     144.237 122.940  96.490  0.00  0.00    +0.000 A 
ATOM      9  C   UNL     1     146.031 126.243 102.347  0.00  0.00    +0.000 A 
ATOM     10  C   UNL     1     143.037 122.230  96.499  0.00  0.00    +0.000 A 
ATOM     11  C   UNL     1     146.018 125.447  98.803  0.00  0.00    +0.000 C 
ATOM     12  C   UNL     1     142.530 124.111  99.565  0.00  0.00    +0.000 C 
ATOM     13  C   UNL     1     145.264 124.623  98.122  0.00  0.00    +0.000 C 
ATOM     14  C   UNL     1     143.393 124.707 100.346  0.00  0.00    +0.000 C 
ATOM     15  C   UNL     1     143.955 125.681 103.438  0.00  0.00    +0.000 A 
ATOM     16  C   UNL     1     145.145 122.724  95.437  0.00  0.00    +0.000 A 
ATOM     17  C   UNL     1     146.587 126.721 103.538  0.00  0.00    +0.000 A 
ATOM     18  C   UNL     1     142.692 121.312  95.502  0.00  0.00    +0.000 A 
ATOM     19  C   UNL     1     144.492 126.160 104.635  0.00  0.00    +0.000 A 
ATOM     20  C   UNL     1     144.815 121.815  94.431  0.00  0.00    +0.000 A 
ATOM     21  C   UNL     1     145.785 126.671 104.681  0.00  0.00    +0.000 A 
ATOM     22  C   UNL     1     143.608 121.124  94.465  0.00  0.00    +0.000 A 
ATOM     23  H   UNL     1     147.547 126.429 100.896  0.00  0.00    +0.000 HD
ATOM     24  H   UNL     1     141.453 122.183  97.888  0.00  0.00    +0.000 HD
ENDROOT
BRANCH  11  26
ATOM     25  O   UNL     1     147.757 125.688  97.178  0.00  0.00    +0.000 OA
ATOM     26  C   UNL     1     147.067 126.197  98.053  0.00  0.00    +0.000 C 
BRANCH  26  27
ATOM     27  O   UNL     1     147.085 127.488  98.494  0.00  0.00    +0.000 OA
ATOM     28  C   UNL     1     148.326 128.126  98.631  0.00  0.00    +0.000 C 
ENDBRANCH  26  27
ENDBRANCH  11  26
BRANCH  12  30
ATOM     29  O   UNL     1     140.277 123.308  99.658  0.00  0.00    +0.000 OA
ATOM     30  C   UNL     1     141.091 124.173  99.957  0.00  0.00    +0.000 C 
BRANCH  30  31
ATOM     31  O   UNL     1     140.885 125.305 100.691  0.00  0.00    +0.000 OA
ATOM     32  C   UNL     1     139.646 125.463 101.332  0.00  0.00    +0.000 C 
ENDBRANCH  30  31
ENDBRANCH  12  30
TORSDOF 4
ENDMDL
MODEL 2
REMARK VINA RESULT:      -7.5      2.292      6.208
REMARK  Name = 5326018_Caulerpin.pdbqt.pdb
REMARK  4 active torsions:
REMARK  status: ('A' for Active; 'I' for Inactive)
REMARK    1  A    between atoms: C_11  and  C_26
REMARK    2  A    between atoms: C_12  and  C_30
REMARK    3  A    between atoms: C_26  and  O_27
REMARK    4  A    between atoms: C_30  and  O_31
REMARK                            x       y       z     vdW  Elec       q    Type
REMARK                         _______ _______ _______ _____ _____    ______ ____
ROOT
ATOM      1  N   UNL     1     147.745 125.687  97.264  0.00  0.00    +0.000 N 
ATOM      2  N   UNL     1     141.636 124.689  99.354  0.00  0.00    +0.000 N 
ATOM      3  C   UNL     1     145.834 124.596  97.000  0.00  0.00    +0.000 C 
ATOM      4  C   UNL     1     143.667 125.451  99.811  0.00  0.00    +0.000 C 
ATOM      5  C   UNL     1     146.588 125.322  97.919  0.00  0.00    +0.000 C 
ATOM      6  C   UNL     1     142.955 124.610  98.959  0.00  0.00    +0.000 C 
ATOM      7  C   UNL     1     146.572 124.465  95.799  0.00  0.00    +0.000 A 
ATOM      8  C   UNL     1     142.779 125.994 100.771  0.00  0.00    +0.000 A 
ATOM      9  C   UNL     1     147.768 125.155  95.992  0.00  0.00    +0.000 A 
ATOM     10  C   UNL     1     141.513 125.496 100.466  0.00  0.00    +0.000 A 
ATOM     11  C   UNL     1     146.313 125.753  99.265  0.00  0.00    +0.000 C 
ATOM     12  C   UNL     1     143.356 123.831  97.816  0.00  0.00    +0.000 C 
ATOM     13  C   UNL     1     145.067 125.698  99.662  0.00  0.00    +0.000 C 
ATOM     14  C   UNL     1     144.520 124.111  97.288  0.00  0.00    +0.000 C 
ATOM     15  C   UNL     1     146.337 123.845  94.558  0.00  0.00    +0.000 A 
ATOM     16  C   UNL     1     142.919 126.872 101.861  0.00  0.00    +0.000 A 
ATOM     17  C   UNL     1     148.753 125.254  95.003  0.00  0.00    +0.000 A 
ATOM     18  C   UNL     1     140.370 125.830 101.201  0.00  0.00    +0.000 A 
ATOM     19  C   UNL     1     147.312 123.929  93.562  0.00  0.00    +0.000 A 
ATOM     20  C   UNL     1     141.791 127.211 102.609  0.00  0.00    +0.000 A 
ATOM     21  C   UNL     1     148.498 124.621  93.784  0.00  0.00    +0.000 A 
ATOM     22  C   UNL     1     140.540 126.696 102.283  0.00  0.00    +0.000 A 
ATOM     23  H   UNL     1     148.487 126.271  97.627  0.00  0.00    +0.000 HD
ATOM     24  H   UNL     1     140.842 124.242  98.911  0.00  0.00    +0.000 HD
ENDROOT
BRANCH  11  26
ATOM     25  O   UNL     1     148.210 126.968 100.070  0.00  0.00    +0.000 OA
ATOM     26  C   UNL     1     147.340 126.131 100.278  0.00  0.00    +0.000 C 
BRANCH  26  27
ATOM     27  O   UNL     1     147.113 125.421 101.421  0.00  0.00    +0.000 OA
ATOM     28  C   UNL     1     147.446 126.013 102.648  0.00  0.00    +0.000 C 
ENDBRANCH  26  27
ENDBRANCH  11  26
BRANCH  12  30
ATOM     29  O   UNL     1     141.414 122.491  97.418  0.00  0.00    +0.000 OA
ATOM     30  C   UNL     1     142.619 122.655  97.269  0.00  0.00    +0.000 C 
BRANCH  30  31
ATOM     31  O   UNL     1     143.498 121.862  96.590  0.00  0.00    +0.000 OA
ATOM     32  C   UNL     1     143.101 121.342  95.349  0.00  0.00    +0.000 C 
ENDBRANCH  30  31
ENDBRANCH  12  30
TORSDOF 4
ENDMDL
MODEL 3
REMARK VINA RESULT:      -7.5      1.807      2.014
REMARK  Name = 5326018_Caulerpin.pdbqt.pdb
REMARK  4 active torsions:
REMARK  status: ('A' for Active; 'I' for Inactive)
REMARK    1  A    between atoms: C_11  and  C_26
REMARK    2  A    between atoms: C_12  and  C_30
REMARK    3  A    between atoms: C_26  and  O_27
REMARK    4  A    between atoms: C_30  and  O_31
REMARK                            x       y       z     vdW  Elec       q    Type
REMARK                         _______ _______ _______ _____ _____    ______ ____
ROOT
ATOM      1  N   UNL     1     145.755 127.503 101.717  0.00  0.00    +0.000 N 
ATOM      2  N   UNL     1     142.314 124.227  97.232  0.00  0.00    +0.000 N 
ATOM      3  C   UNL     1     144.014 126.204 101.279  0.00  0.00    +0.000 C 
ATOM      4  C   UNL     1     143.791 125.826  97.655  0.00  0.00    +0.000 C 
ATOM      5  C   UNL     1     144.928 127.080 100.697  0.00  0.00    +0.000 C 
ATOM      6  C   UNL     1     142.784 125.055  98.230  0.00  0.00    +0.000 C 
ATOM      7  C   UNL     1     144.250 126.149 102.673  0.00  0.00    +0.000 A 
ATOM      8  C   UNL     1     143.886 125.507  96.278  0.00  0.00    +0.000 A 
ATOM      9  C   UNL     1     145.345 126.976 102.922  0.00  0.00    +0.000 A 
ATOM     10  C   UNL     1     142.946 124.506  96.038  0.00  0.00    +0.000 A 
ATOM     11  C   UNL     1     145.142 127.484  99.332  0.00  0.00    +0.000 C 
ATOM     12  C   UNL     1     142.291 124.966  99.580  0.00  0.00    +0.000 C 
ATOM     13  C   UNL     1     144.578 126.755  98.404  0.00  0.00    +0.000 C 
ATOM     14  C   UNL     1     143.035 125.491 100.519  0.00  0.00    +0.000 C 
ATOM     15  C   UNL     1     143.656 125.465 103.750  0.00  0.00    +0.000 A 
ATOM     16  C   UNL     1     144.688 125.956  95.213  0.00  0.00    +0.000 A 
ATOM     17  C   UNL     1     145.878 127.161 104.203  0.00  0.00    +0.000 A 
ATOM     18  C   UNL     1     142.762 123.927  94.777  0.00  0.00    +0.000 A 
ATOM     19  C   UNL     1     144.172 125.643 105.035  0.00  0.00    +0.000 A 
ATOM     20  C   UNL     1     144.513 125.394  93.947  0.00  0.00    +0.000 A 
ATOM     21  C   UNL     1     145.263 126.478 105.254  0.00  0.00    +0.000 A 
ATOM     22  C   UNL     1     143.565 124.399  93.736  0.00  0.00    +0.000 A 
ATOM     23  H   UNL     1     146.564 128.105 101.629  0.00  0.00    +0.000 HD
ATOM     24  H   UNL     1     141.616 123.500  97.325  0.00  0.00    +0.000 HD
ENDROOT
BRANCH  11  26
ATOM     25  O   UNL     1     145.339 129.547  98.138  0.00  0.00    +0.000 OA
ATOM     26  C   UNL     1     145.840 128.729  98.899  0.00  0.00    +0.000 C 
BRANCH  26  27
ATOM     27  O   UNL     1     147.062 128.781  99.503  0.00  0.00    +0.000 OA
ATOM     28  C   UNL     1     148.206 128.656  98.700  0.00  0.00    +0.000 C 
ENDBRANCH  26  27
ENDBRANCH  11  26
BRANCH  12  30
ATOM     29  O   UNL     1     140.510 123.366  99.597  0.00  0.00    +0.000 OA
ATOM     30  C   UNL     1     140.950 124.445  99.978  0.00  0.00    +0.000 C 
BRANCH  30  31
ATOM     31  O   UNL     1     140.361 125.344 100.818  0.00  0.00    +0.000 OA
ATOM     32  C   UNL     1     139.095 125.034 101.339  0.00  0.00    +0.000 C 
ENDBRANCH  30  31
ENDBRANCH  12  30
TORSDOF 4
ENDMDL
MODEL 4
REMARK VINA RESULT:      -6.7      1.931      2.685
REMARK  Name = 5326018_Caulerpin.pdbqt.pdb
REMARK  4 active torsions:
REMARK  status: ('A' for Active; 'I' for Inactive)
REMARK    1  A    between atoms: C_11  and  C_26
REMARK    2  A    between atoms: C_12  and  C_30
REMARK    3  A    between atoms: C_26  and  O_27
REMARK    4  A    between atoms: C_30  and  O_31
REMARK                            x       y       z     vdW  Elec       q    Type
REMARK                         _______ _______ _______ _____ _____    ______ ____
ROOT
ATOM      1  N   UNL     1     146.996 127.119  98.136  0.00  0.00    +0.000 N 
ATOM      2  N   UNL     1     143.257 121.997  96.565  0.00  0.00    +0.000 N 
ATOM      3  C   UNL     1     145.241 125.862  98.638  0.00  0.00    +0.000 C 
ATOM      4  C   UNL     1     144.743 123.501  95.899  0.00  0.00    +0.000 C 
ATOM      5  C   UNL     1     146.098 126.221  97.599  0.00  0.00    +0.000 C 
ATOM      6  C   UNL     1     143.793 123.228  96.880  0.00  0.00    +0.000 C 
ATOM      7  C   UNL     1     145.585 126.601  99.796  0.00  0.00    +0.000 A 
ATOM      8  C   UNL     1     144.736 122.454  94.946  0.00  0.00    +0.000 A 
ATOM      9  C   UNL     1     146.686 127.385  99.453  0.00  0.00    +0.000 A 
ATOM     10  C   UNL     1     143.792 121.526  95.384  0.00  0.00    +0.000 A 
ATOM     11  C   UNL     1     146.201 125.770  96.236  0.00  0.00    +0.000 C 
ATOM     12  C   UNL     1     143.406 123.938  98.071  0.00  0.00    +0.000 C 
ATOM     13  C   UNL     1     145.576 124.663  95.929  0.00  0.00    +0.000 C 
ATOM     14  C   UNL     1     144.215 124.878  98.490  0.00  0.00    +0.000 C 
ATOM     15  C   UNL     1     145.083 126.670 101.108  0.00  0.00    +0.000 A 
ATOM     16  C   UNL     1     145.448 122.190  93.761  0.00  0.00    +0.000 A 
ATOM     17  C   UNL     1     147.314 128.246 100.359  0.00  0.00    +0.000 A 
ATOM     18  C   UNL     1     143.518 120.341  94.693  0.00  0.00    +0.000 A 
ATOM     19  C   UNL     1     145.695 127.529 102.025  0.00  0.00    +0.000 A 
ATOM     20  C   UNL     1     145.183 121.015  93.056  0.00  0.00    +0.000 A 
ATOM     21  C   UNL     1     146.790 128.302 101.653  0.00  0.00    +0.000 A 
ATOM     22  C   UNL     1     144.233 120.110  93.516  0.00  0.00    +0.000 A 
ATOM     23  H   UNL     1     147.789 127.536  97.665  0.00  0.00    +0.000 HD
ATOM     24  H   UNL     1     142.576 121.476  97.104  0.00  0.00    +0.000 HD
ENDROOT
BRANCH  11  26
ATOM     25  O   UNL     1     147.593 127.480  95.306  0.00  0.00    +0.000 OA
ATOM     26  C   UNL     1     146.849 126.524  95.124  0.00  0.00    +0.000 C 
BRANCH  26  27
ATOM     27  O   UNL     1     146.488 125.954  93.938  0.00  0.00    +0.000 OA
ATOM     28  C   UNL     1     146.961 126.534  92.751  0.00  0.00    +0.000 C 
ENDBRANCH  26  27
ENDBRANCH  11  26
BRANCH  12  30
ATOM     29  O   UNL     1     141.165 123.140  98.336  0.00  0.00    +0.000 OA
ATOM     30  C   UNL     1     142.106 123.782  98.787  0.00  0.00    +0.000 C 
BRANCH  30  31
ATOM     31  O   UNL     1     142.182 124.436  99.983  0.00  0.00    +0.000 OA
ATOM     32  C   UNL     1     141.070 125.183 100.401  0.00  0.00    +0.000 C 
ENDBRANCH  30  31
ENDBRANCH  12  30
TORSDOF 4
ENDMDL
MODEL 5
REMARK VINA RESULT:      -6.5     35.160     39.403
REMARK  Name = 5326018_Caulerpin.pdbqt.pdb
REMARK  4 active torsions:
REMARK  status: ('A' for Active; 'I' for Inactive)
REMARK    1  A    between atoms: C_11  and  C_26
REMARK    2  A    between atoms: C_12  and  C_30
REMARK    3  A    between atoms: C_26  and  O_27
REMARK    4  A    between atoms: C_30  and  O_31
REMARK                            x       y       z     vdW  Elec       q    Type
REMARK                         _______ _______ _______ _____ _____    ______ ____
ROOT
ATOM      1  N   UNL     1     133.348 121.412 140.179  0.00  0.00    +0.000 N 
ATOM      2  N   UNL     1     135.325 121.546 133.953  0.00  0.00    +0.000 N 
ATOM      3  C   UNL     1     134.883 122.063 138.719  0.00  0.00    +0.000 C 
ATOM      4  C   UNL     1     134.040 120.591 135.487  0.00  0.00    +0.000 C 
ATOM      5  C   UNL     1     133.842 121.159 138.916  0.00  0.00    +0.000 C 
ATOM      6  C   UNL     1     135.168 121.388 135.315  0.00  0.00    +0.000 C 
ATOM      7  C   UNL     1     135.063 122.824 139.899  0.00  0.00    +0.000 A 
ATOM      8  C   UNL     1     133.547 120.208 134.216  0.00  0.00    +0.000 A 
ATOM      9  C   UNL     1     134.091 122.393 140.801  0.00  0.00    +0.000 A 
ATOM     10  C   UNL     1     134.373 120.816 133.271  0.00  0.00    +0.000 A 
ATOM     11  C   UNL     1     133.240 120.178 138.052  0.00  0.00    +0.000 C 
ATOM     12  C   UNL     1     136.034 122.050 136.256  0.00  0.00    +0.000 C 
ATOM     13  C   UNL     1     133.508 120.270 136.775  0.00  0.00    +0.000 C 
ATOM     14  C   UNL     1     135.597 122.164 137.484  0.00  0.00    +0.000 C 
ATOM     15  C   UNL     1     135.943 123.851 140.287  0.00  0.00    +0.000 A 
ATOM     16  C   UNL     1     132.471 119.420 133.769  0.00  0.00    +0.000 A 
ATOM     17  C   UNL     1     133.955 122.935 142.083  0.00  0.00    +0.000 A 
ATOM     18  C   UNL     1     134.181 120.673 131.893  0.00  0.00    +0.000 A 
ATOM     19  C   UNL     1     135.825 124.399 141.566  0.00  0.00    +0.000 A 
ATOM     20  C   UNL     1     132.268 119.262 132.397  0.00  0.00    +0.000 A 
ATOM     21  C   UNL     1     134.847 123.946 142.446  0.00  0.00    +0.000 A 
ATOM     22  C   UNL     1     133.111 119.878 131.478  0.00  0.00    +0.000 A 
ATOM     23  H   UNL     1     132.551 120.969 140.617  0.00  0.00    +0.000 HD
ATOM     24  H   UNL     1     136.019 122.115 133.484  0.00  0.00    +0.000 HD
ENDROOT
BRANCH  11  26
ATOM     25  O   UNL     1     132.892 117.854 138.501  0.00  0.00    +0.000 OA
ATOM     26  C   UNL     1     132.450 118.996 138.504  0.00  0.00    +0.000 C 
BRANCH  26  27
ATOM     27  O   UNL     1     131.222 119.421 138.919  0.00  0.00    +0.000 OA
ATOM     28  C   UNL     1     130.149 119.330 138.020  0.00  0.00    +0.000 C 
ENDBRANCH  26  27
ENDBRANCH  11  26
BRANCH  12  30
ATOM     29  O   UNL     1     138.405 122.059 136.580  0.00  0.00    +0.000 OA
ATOM     30  C   UNL     1     137.431 122.497 135.981  0.00  0.00    +0.000 C 
BRANCH  30  31
ATOM     31  O   UNL     1     137.407 123.416 134.972  0.00  0.00    +0.000 OA
ATOM     32  C   UNL     1     138.521 123.497 134.123  0.00  0.00    +0.000 C 
ENDBRANCH  30  31
ENDBRANCH  12  30
TORSDOF 4
ENDMDL
MODEL 6
REMARK VINA RESULT:      -6.4     15.257     17.987
REMARK  Name = 5326018_Caulerpin.pdbqt.pdb
REMARK  4 active torsions:
REMARK  status: ('A' for Active; 'I' for Inactive)
REMARK    1  A    between atoms: C_11  and  C_26
REMARK    2  A    between atoms: C_12  and  C_30
REMARK    3  A    between atoms: C_26  and  O_27
REMARK    4  A    between atoms: C_30  and  O_31
REMARK                            x       y       z     vdW  Elec       q    Type
REMARK                         _______ _______ _______ _____ _____    ______ ____
ROOT
ATOM      1  N   UNL     1     144.432 112.320 113.811  0.00  0.00    +0.000 N 
ATOM      2  N   UNL     1     140.055 116.894 112.196  0.00  0.00    +0.000 N 
ATOM      3  C   UNL     1     144.050 114.300 112.891  0.00  0.00    +0.000 C 
ATOM      4  C   UNL     1     140.435 114.779 112.740  0.00  0.00    +0.000 C 
ATOM      5  C   UNL     1     143.442 113.099 113.250  0.00  0.00    +0.000 C 
ATOM      6  C   UNL     1     141.042 115.931 112.249  0.00  0.00    +0.000 C 
ATOM      7  C   UNL     1     145.434 114.219 113.177  0.00  0.00    +0.000 A 
ATOM      8  C   UNL     1     139.053 115.028 112.924  0.00  0.00    +0.000 A 
ATOM      9  C   UNL     1     145.648 112.966 113.749  0.00  0.00    +0.000 A 
ATOM     10  C   UNL     1     138.840 116.360 112.571  0.00  0.00    +0.000 A 
ATOM     11  C   UNL     1     142.073 112.658 113.193  0.00  0.00    +0.000 C 
ATOM     12  C   UNL     1     142.409 116.231 111.909  0.00  0.00    +0.000 C 
ATOM     13  C   UNL     1     141.161 113.578 113.013  0.00  0.00    +0.000 C 
ATOM     14  C   UNL     1     143.323 115.404 112.345  0.00  0.00    +0.000 C 
ATOM     15  C   UNL     1     146.527 115.093 113.024  0.00  0.00    +0.000 A 
ATOM     16  C   UNL     1     137.961 114.261 113.372  0.00  0.00    +0.000 A 
ATOM     17  C   UNL     1     146.909 112.534 114.176  0.00  0.00    +0.000 A 
ATOM     18  C   UNL     1     137.583 116.970 112.639  0.00  0.00    +0.000 A 
ATOM     19  C   UNL     1     147.793 114.675 113.439  0.00  0.00    +0.000 A 
ATOM     20  C   UNL     1     136.699 114.852 113.441  0.00  0.00    +0.000 A 
ATOM     21  C   UNL     1     147.977 113.417 114.004  0.00  0.00    +0.000 A 
ATOM     22  C   UNL     1     136.516 116.183 113.079  0.00  0.00    +0.000 A 
ATOM     23  H   UNL     1     144.318 111.405 114.229  0.00  0.00    +0.000 HD
ATOM     24  H   UNL     1     140.169 117.866 111.935  0.00  0.00    +0.000 HD
ENDROOT
BRANCH  11  26
ATOM     25  O   UNL     1     142.179 110.358 112.543  0.00  0.00    +0.000 OA
ATOM     26  C   UNL     1     141.623 111.235 113.192  0.00  0.00    +0.000 C 
BRANCH  26  27
ATOM     27  O   UNL     1     140.551 111.112 114.027  0.00  0.00    +0.000 OA
ATOM     28  C   UNL     1     140.763 110.569 115.303  0.00  0.00    +0.000 C 
ENDBRANCH  26  27
ENDBRANCH  11  26
BRANCH  12  30
ATOM     29  O   UNL     1     143.154 117.142 109.825  0.00  0.00    +0.000 OA
ATOM     30  C   UNL     1     142.853 117.327 110.998  0.00  0.00    +0.000 C 
BRANCH  30  31
ATOM     31  O   UNL     1     142.833 118.505 111.686  0.00  0.00    +0.000 OA
ATOM     32  C   UNL     1     142.676 119.695 110.959  0.00  0.00    +0.000 C 
ENDBRANCH  30  31
ENDBRANCH  12  30
TORSDOF 4
ENDMDL
MODEL 7
REMARK VINA RESULT:      -6.3      3.126      6.837
REMARK  Name = 5326018_Caulerpin.pdbqt.pdb
REMARK  4 active torsions:
REMARK  status: ('A' for Active; 'I' for Inactive)
REMARK    1  A    between atoms: C_11  and  C_26
REMARK    2  A    between atoms: C_12  and  C_30
REMARK    3  A    between atoms: C_26  and  O_27
REMARK    4  A    between atoms: C_30  and  O_31
REMARK                            x       y       z     vdW  Elec       q    Type
REMARK                         _______ _______ _______ _____ _____    ______ ____
ROOT
ATOM      1  N   UNL     1     147.878 126.497  95.291  0.00  0.00    +0.000 N 
ATOM      2  N   UNL     1     142.578 123.030  96.898  0.00  0.00    +0.000 N 
ATOM      3  C   UNL     1     146.547 124.788  94.818  0.00  0.00    +0.000 C 
ATOM      4  C   UNL     1     144.141 124.462  97.544  0.00  0.00    +0.000 C 
ATOM      5  C   UNL     1     146.935 125.652  95.840  0.00  0.00    +0.000 C 
ATOM      6  C   UNL     1     143.836 123.502  96.583  0.00  0.00    +0.000 C 
ATOM      7  C   UNL     1     147.311 125.071  93.660  0.00  0.00    +0.000 A 
ATOM      8  C   UNL     1     143.087 124.525  98.487  0.00  0.00    +0.000 A 
ATOM      9  C   UNL     1     148.141 126.143  93.985  0.00  0.00    +0.000 A 
ATOM     10  C   UNL     1     142.121 123.613  98.062  0.00  0.00    +0.000 A 
ATOM     11  C   UNL     1     146.477 125.809  97.195  0.00  0.00    +0.000 C 
ATOM     12  C   UNL     1     144.538 123.055  95.409  0.00  0.00    +0.000 C 
ATOM     13  C   UNL     1     145.341 125.241  97.506  0.00  0.00    +0.000 C 
ATOM     14  C   UNL     1     145.516 123.811  94.980  0.00  0.00    +0.000 C 
ATOM     15  C   UNL     1     147.369 124.535  92.360  0.00  0.00    +0.000 A 
ATOM     16  C   UNL     1     142.845 125.277  99.652  0.00  0.00    +0.000 A 
ATOM     17  C   UNL     1     149.037 126.710  93.072  0.00  0.00    +0.000 A 
ATOM     18  C   UNL     1     140.919 123.409  98.747  0.00  0.00    +0.000 A 
ATOM     19  C   UNL     1     148.263 125.086  91.438  0.00  0.00    +0.000 A 
ATOM     20  C   UNL     1     141.653 125.081 100.351  0.00  0.00    +0.000 A 
ATOM     21  C   UNL     1     149.081 126.153  91.792  0.00  0.00    +0.000 A 
ATOM     22  C   UNL     1     140.710 124.161  99.905  0.00  0.00    +0.000 A 
ATOM     23  H   UNL     1     148.326 127.281  95.747  0.00  0.00    +0.000 HD
ATOM     24  H   UNL     1     142.032 122.360  96.370  0.00  0.00    +0.000 HD
ENDROOT
BRANCH  11  26
ATOM     25  O   UNL     1     148.105 127.304  98.110  0.00  0.00    +0.000 OA
ATOM     26  C   UNL     1     147.249 126.449  98.299  0.00  0.00    +0.000 C 
BRANCH  26  27
ATOM     27  O   UNL     1     146.819 125.939  99.490  0.00  0.00    +0.000 OA
ATOM     28  C   UNL     1     147.099 126.659 100.661  0.00  0.00    +0.000 C 
ENDBRANCH  26  27
ENDBRANCH  11  26
BRANCH  12  30
ATOM     29  O   UNL     1     143.428 120.971  95.016  0.00  0.00    +0.000 OA
ATOM     30  C   UNL     1     144.330 121.747  94.722  0.00  0.00    +0.000 C 
BRANCH  30  31
ATOM     31  O   UNL     1     145.272 121.609  93.744  0.00  0.00    +0.000 OA
ATOM     32  C   UNL     1     145.825 120.337  93.530  0.00  0.00    +0.000 C 
ENDBRANCH  30  31
ENDBRANCH  12  30
TORSDOF 4
ENDMDL
MODEL 8
REMARK VINA RESULT:      -6.3     13.050     15.848
REMARK  Name = 5326018_Caulerpin.pdbqt.pdb
REMARK  4 active torsions:
REMARK  status: ('A' for Active; 'I' for Inactive)
REMARK    1  A    between atoms: C_11  and  C_26
REMARK    2  A    between atoms: C_12  and  C_30
REMARK    3  A    between atoms: C_26  and  O_27
REMARK    4  A    between atoms: C_30  and  O_31
REMARK                            x       y       z     vdW  Elec       q    Type
REMARK                         _______ _______ _______ _____ _____    ______ ____
ROOT
ATOM      1  N   UNL     1     140.555 114.387 109.594  0.00  0.00    +0.000 N 
ATOM      2  N   UNL     1     147.085 114.610 109.577  0.00  0.00    +0.000 N 
ATOM      3  C   UNL     1     142.416 114.569 108.404  0.00  0.00    +0.000 C 
ATOM      4  C   UNL     1     145.210 114.827 110.739  0.00  0.00    +0.000 C 
ATOM      5  C   UNL     1     141.893 114.710 109.688  0.00  0.00    +0.000 C 
ATOM      6  C   UNL     1     145.728 114.825 109.447  0.00  0.00    +0.000 C 
ATOM      7  C   UNL     1     141.370 114.221 107.515  0.00  0.00    +0.000 A 
ATOM      8  C   UNL     1     146.272 114.676 111.663  0.00  0.00    +0.000 A 
ATOM      9  C   UNL     1     140.213 114.118 108.286  0.00  0.00    +0.000 A 
ATOM     10  C   UNL     1     147.438 114.547 110.908  0.00  0.00    +0.000 A 
ATOM     11  C   UNL     1     142.507 115.030 110.949  0.00  0.00    +0.000 C 
ATOM     12  C   UNL     1     145.099 114.925 108.156  0.00  0.00    +0.000 C 
ATOM     13  C   UNL     1     143.811 114.943 111.012  0.00  0.00    +0.000 C 
ATOM     14  C   UNL     1     143.805 114.741 108.111  0.00  0.00    +0.000 C 
ATOM     15  C   UNL     1     141.292 113.965 106.134  0.00  0.00    +0.000 A 
ATOM     16  C   UNL     1     146.362 114.619 113.066  0.00  0.00    +0.000 A 
ATOM     17  C   UNL     1     138.970 113.774 107.743  0.00  0.00    +0.000 A 
ATOM     18  C   UNL     1     148.699 114.367 111.487  0.00  0.00    +0.000 A 
ATOM     19  C   UNL     1     140.058 113.626 105.575  0.00  0.00    +0.000 A 
ATOM     20  C   UNL     1     147.613 114.446 113.661  0.00  0.00    +0.000 A 
ATOM     21  C   UNL     1     138.920 113.534 106.368  0.00  0.00    +0.000 A 
ATOM     22  C   UNL     1     148.759 114.323 112.882  0.00  0.00    +0.000 A 
ATOM     23  H   UNL     1     139.891 114.333 110.356  0.00  0.00    +0.000 HD
ATOM     24  H   UNL     1     147.755 114.497 108.826  0.00  0.00    +0.000 HD
ENDROOT
BRANCH  11  26
ATOM     25  O   UNL     1     141.966 115.142 113.277  0.00  0.00    +0.000 OA
ATOM     26  C   UNL     1     141.797 115.574 112.143  0.00  0.00    +0.000 C 
BRANCH  26  27
ATOM     27  O   UNL     1     140.992 116.602 111.746  0.00  0.00    +0.000 OA
ATOM     28  C   UNL     1     141.571 117.867 111.567  0.00  0.00    +0.000 C 
ENDBRANCH  26  27
ENDBRANCH  11  26
BRANCH  12  30
ATOM     29  O   UNL     1     145.543 114.837 105.805  0.00  0.00    +0.000 OA
ATOM     30  C   UNL     1     145.776 115.347 106.895  0.00  0.00    +0.000 C 
BRANCH  30  31
ATOM     31  O   UNL     1     146.634 116.370 107.178  0.00  0.00    +0.000 OA
ATOM     32  C   UNL     1     147.897 116.365 106.565  0.00  0.00    +0.000 C 
ENDBRANCH  30  31
ENDBRANCH  12  30
TORSDOF 4
ENDMDL
MODEL 9
REMARK VINA RESULT:      -6.3     12.689     14.660
REMARK  Name = 5326018_Caulerpin.pdbqt.pdb
REMARK  4 active torsions:
REMARK  status: ('A' for Active; 'I' for Inactive)
REMARK    1  A    between atoms: C_11  and  C_26
REMARK    2  A    between atoms: C_12  and  C_30
REMARK    3  A    between atoms: C_26  and  O_27
REMARK    4  A    between atoms: C_30  and  O_31
REMARK                            x       y       z     vdW  Elec       q    Type
REMARK                         _______ _______ _______ _____ _____    ______ ____
ROOT
ATOM      1  N   UNL     1     148.733 113.529 106.417  0.00  0.00    +0.000 N 
ATOM      2  N   UNL     1     143.226 116.015 108.902  0.00  0.00    +0.000 N 
ATOM      3  C   UNL     1     146.690 114.297 106.034  0.00  0.00    +0.000 C 
ATOM      4  C   UNL     1     145.098 114.886 109.266  0.00  0.00    +0.000 C 
ATOM      5  C   UNL     1     147.519 113.774 107.024  0.00  0.00    +0.000 C 
ATOM      6  C   UNL     1     144.209 115.281 108.271  0.00  0.00    +0.000 C 
ATOM      7  C   UNL     1     147.389 114.305 104.803  0.00  0.00    +0.000 A 
ATOM      8  C   UNL     1     144.613 115.328 110.521  0.00  0.00    +0.000 A 
ATOM      9  C   UNL     1     148.666 113.814 105.070  0.00  0.00    +0.000 A 
ATOM     10  C   UNL     1     143.436 116.030 110.265  0.00  0.00    +0.000 A 
ATOM     11  C   UNL     1     147.322 113.562 108.434  0.00  0.00    +0.000 C 
ATOM     12  C   UNL     1     144.225 115.114 106.841  0.00  0.00    +0.000 C 
ATOM     13  C   UNL     1     146.303 114.168 108.987  0.00  0.00    +0.000 C 
ATOM     14  C   UNL     1     145.361 114.754 106.300  0.00  0.00    +0.000 C 
ATOM     15  C   UNL     1     147.071 114.697 103.490  0.00  0.00    +0.000 A 
ATOM     16  C   UNL     1     145.064 115.220 111.849  0.00  0.00    +0.000 A 
ATOM     17  C   UNL     1     149.650 113.689 104.083  0.00  0.00    +0.000 A 
ATOM     18  C   UNL     1     142.676 116.629 111.276  0.00  0.00    +0.000 A 
ATOM     19  C   UNL     1     148.040 114.574 102.491  0.00  0.00    +0.000 A 
ATOM     20  C   UNL     1     144.316 115.807 112.871  0.00  0.00    +0.000 A 
ATOM     21  C   UNL     1     149.306 114.077 102.787  0.00  0.00    +0.000 A 
ATOM     22  C   UNL     1     143.143 116.498 112.586  0.00  0.00    +0.000 A 
ATOM     23  H   UNL     1     149.578 113.197 106.866  0.00  0.00    +0.000 HD
ATOM     24  H   UNL     1     142.452 116.497 108.461  0.00  0.00    +0.000 HD
ENDROOT
BRANCH  11  26
ATOM     25  O   UNL     1     148.525 111.541 108.870  0.00  0.00    +0.000 OA
ATOM     26  C   UNL     1     148.099 112.613 109.282  0.00  0.00    +0.000 C 
BRANCH  26  27
ATOM     27  O   UNL     1     148.253 113.157 110.524  0.00  0.00    +0.000 OA
ATOM     28  C   UNL     1     149.471 113.781 110.830  0.00  0.00    +0.000 C 
ENDBRANCH  26  27
ENDBRANCH  11  26
BRANCH  12  30
ATOM     29  O   UNL     1     143.106 115.448 104.752  0.00  0.00    +0.000 OA
ATOM     30  C   UNL     1     143.033 115.189 105.947  0.00  0.00    +0.000 C 
BRANCH  30  31
ATOM     31  O   UNL     1     141.917 114.904 106.679  0.00  0.00    +0.000 OA
ATOM     32  C   UNL     1     140.798 114.385 106.009  0.00  0.00    +0.000 C 
ENDBRANCH  30  31
ENDBRANCH  12  30
TORSDOF 4
ENDMDL
