MODEL 1
REMARK VINA RESULT:      -3.4      0.000      0.000
REMARK  Name = 5350_Sulforaphane.pdbqt.pdb
REMARK  3 active torsions:
REMARK  status: ('A' for Active; 'I' for Inactive)
REMARK    1  A    between atoms: C_1  and  C_2
REMARK    2  A    between atoms: C_3  and  N_5
REMARK    3  A    between atoms: C_7  and  S_8
REMARK                            x       y       z     vdW  Elec       q    Type
REMARK                         _______ _______ _______ _____ _____    ______ ____
ROOT
ATOM      1  C   UNL     1     147.073 128.297 100.510  0.00  0.00    +0.000 C 
ATOM      2  C   UNL     1     146.735 127.929 101.959  0.00  0.00    +0.000 C 
ENDROOT
BRANCH   2   3
ATOM      3  S   UNL     1     146.348 127.510 103.626  0.00  0.00    +0.000 S 
ATOM      4  O   UNL     1     147.439 126.481 103.677  0.00  0.00    +0.000 OA
ATOM      5  C   UNL     1     145.149 126.310 103.155  0.00  0.00    +0.000 C 
ENDBRANCH   2   3
BRANCH   1   6
ATOM      6  C   UNL     1     147.413 128.663  99.063  0.00  0.00    +0.000 C 
ATOM      7  C   UNL     1     147.753 129.029  97.613  0.00  0.00    +0.000 C 
BRANCH   7   9
ATOM      8  S   UNL     1     147.564 127.234  94.624  0.00  0.00    +0.000 S 
ATOM      9  N   UNL     1     148.061 129.342  96.347  0.00  0.00    +0.000 NA
ATOM     10  C   UNL     1     147.843 128.436  95.633  0.00  0.00    +0.000 C 
ENDBRANCH   7   9
ENDBRANCH   1   6
TORSDOF 3
ENDMDL
MODEL 2
REMARK VINA RESULT:      -3.4      5.638      5.959
REMARK  Name = 5350_Sulforaphane.pdbqt.pdb
REMARK  3 active torsions:
REMARK  status: ('A' for Active; 'I' for Inactive)
REMARK    1  A    between atoms: C_1  and  C_2
REMARK    2  A    between atoms: C_3  and  N_5
REMARK    3  A    between atoms: C_7  and  S_8
REMARK                            x       y       z     vdW  Elec       q    Type
REMARK                         _______ _______ _______ _____ _____    ______ ____
ROOT
ATOM      1  C   UNL     1     143.568 124.548 100.802  0.00  0.00    +0.000 C 
ATOM      2  C   UNL     1     143.870 125.463 101.993  0.00  0.00    +0.000 C 
ENDROOT
BRANCH   2   3
ATOM      3  S   UNL     1     144.217 126.511 103.366  0.00  0.00    +0.000 S 
ATOM      4  O   UNL     1     143.122 125.894 104.184  0.00  0.00    +0.000 OA
ATOM      5  C   UNL     1     143.154 127.791 102.790  0.00  0.00    +0.000 C 
ENDBRANCH   2   3
BRANCH   1   6
ATOM      6  C   UNL     1     143.263 123.634  99.611  0.00  0.00    +0.000 C 
ATOM      7  C   UNL     1     142.958 122.720  98.419  0.00  0.00    +0.000 C 
BRANCH   7   9
ATOM      8  S   UNL     1     144.274 122.573  95.187  0.00  0.00    +0.000 S 
ATOM      9  N   UNL     1     142.699 121.928  97.369  0.00  0.00    +0.000 NA
ATOM     10  C   UNL     1     143.376 122.217  96.456  0.00  0.00    +0.000 C 
ENDBRANCH   7   9
ENDBRANCH   1   6
TORSDOF 3
ENDMDL
MODEL 3
REMARK VINA RESULT:      -3.3      2.046      2.346
REMARK  Name = 5350_Sulforaphane.pdbqt.pdb
REMARK  3 active torsions:
REMARK  status: ('A' for Active; 'I' for Inactive)
REMARK    1  A    between atoms: C_1  and  C_2
REMARK    2  A    between atoms: C_3  and  N_5
REMARK    3  A    between atoms: C_7  and  S_8
REMARK                            x       y       z     vdW  Elec       q    Type
REMARK                         _______ _______ _______ _____ _____    ______ ____
ROOT
ATOM      1  C   UNL     1     145.771 127.283 101.279  0.00  0.00    +0.000 C 
ATOM      2  C   UNL     1     144.919 126.559 102.328  0.00  0.00    +0.000 C 
ENDROOT
BRANCH   2   3
ATOM      3  S   UNL     1     143.937 125.730 103.533  0.00  0.00    +0.000 S 
ATOM      4  O   UNL     1     142.956 126.863 103.593  0.00  0.00    +0.000 OA
ATOM      5  C   UNL     1     144.865 126.375 104.883  0.00  0.00    +0.000 C 
ENDBRANCH   2   3
BRANCH   1   6
ATOM      6  C   UNL     1     146.623 128.008 100.233  0.00  0.00    +0.000 C 
ATOM      7  C   UNL     1     147.477 128.734  99.187  0.00  0.00    +0.000 C 
BRANCH   7   9
ATOM      8  S   UNL     1     147.691 128.434  95.714  0.00  0.00    +0.000 S 
ATOM      9  N   UNL     1     148.212 129.371  98.265  0.00  0.00    +0.000 NA
ATOM     10  C   UNL     1     147.976 128.960  97.191  0.00  0.00    +0.000 C 
ENDBRANCH   7   9
ENDBRANCH   1   6
TORSDOF 3
ENDMDL
MODEL 4
REMARK VINA RESULT:      -3.3      4.355      7.478
REMARK  Name = 5350_Sulforaphane.pdbqt.pdb
REMARK  3 active torsions:
REMARK  status: ('A' for Active; 'I' for Inactive)
REMARK    1  A    between atoms: C_1  and  C_2
REMARK    2  A    between atoms: C_3  and  N_5
REMARK    3  A    between atoms: C_7  and  S_8
REMARK                            x       y       z     vdW  Elec       q    Type
REMARK                         _______ _______ _______ _____ _____    ______ ____
ROOT
ATOM      1  C   UNL     1     145.982 127.591 101.269  0.00  0.00    +0.000 C 
ATOM      2  C   UNL     1     146.773 128.223 100.118  0.00  0.00    +0.000 C 
ENDROOT
BRANCH   2   3
ATOM      3  S   UNL     1     147.681 128.954  98.797  0.00  0.00    +0.000 S 
ATOM      4  O   UNL     1     146.446 129.106  97.960  0.00  0.00    +0.000 OA
ATOM      5  C   UNL     1     148.065 127.399  98.065  0.00  0.00    +0.000 C 
ENDBRANCH   2   3
BRANCH   1   6
ATOM      6  C   UNL     1     145.190 126.960 102.417  0.00  0.00    +0.000 C 
ATOM      7  C   UNL     1     144.397 126.327 103.567  0.00  0.00    +0.000 C 
BRANCH   7   9
ATOM      8  S   UNL     1     145.125 125.741 106.932  0.00  0.00    +0.000 S 
ATOM      9  N   UNL     1     143.693 125.772 104.564  0.00  0.00    +0.000 NA
ATOM     10  C   UNL     1     144.317 125.769 105.558  0.00  0.00    +0.000 C 
ENDBRANCH   7   9
ENDBRANCH   1   6
TORSDOF 3
ENDMDL
MODEL 5
REMARK VINA RESULT:      -3.3      6.343      8.421
REMARK  Name = 5350_Sulforaphane.pdbqt.pdb
REMARK  3 active torsions:
REMARK  status: ('A' for Active; 'I' for Inactive)
REMARK    1  A    between atoms: C_1  and  C_2
REMARK    2  A    between atoms: C_3  and  N_5
REMARK    3  A    between atoms: C_7  and  S_8
REMARK                            x       y       z     vdW  Elec       q    Type
REMARK                         _______ _______ _______ _____ _____    ______ ____
ROOT
ATOM      1  C   UNL     1     142.179 126.092 101.250  0.00  0.00    +0.000 C 
ATOM      2  C   UNL     1     143.587 126.674 101.414  0.00  0.00    +0.000 C 
ENDROOT
BRANCH   2   3
ATOM      3  S   UNL     1     145.205 127.347 101.599  0.00  0.00    +0.000 S 
ATOM      4  O   UNL     1     145.751 126.041 102.095  0.00  0.00    +0.000 OA
ATOM      5  C   UNL     1     144.894 127.914 103.237  0.00  0.00    +0.000 C 
ENDBRANCH   2   3
BRANCH   1   6
ATOM      6  C   UNL     1     140.773 125.508 101.085  0.00  0.00    +0.000 C 
ATOM      7  C   UNL     1     139.365 124.924 100.919  0.00  0.00    +0.000 C 
BRANCH   7   9
ATOM      8  S   UNL     1     137.146 123.426 103.161  0.00  0.00    +0.000 S 
ATOM      9  N   UNL     1     138.140 124.402 100.770  0.00  0.00    +0.000 NA
ATOM     10  C   UNL     1     137.736 123.994 101.794  0.00  0.00    +0.000 C 
ENDBRANCH   7   9
ENDBRANCH   1   6
TORSDOF 3
ENDMDL
MODEL 6
REMARK VINA RESULT:      -3.2      8.834      9.118
REMARK  Name = 5350_Sulforaphane.pdbqt.pdb
REMARK  3 active torsions:
REMARK  status: ('A' for Active; 'I' for Inactive)
REMARK    1  A    between atoms: C_1  and  C_2
REMARK    2  A    between atoms: C_3  and  N_5
REMARK    3  A    between atoms: C_7  and  S_8
REMARK                            x       y       z     vdW  Elec       q    Type
REMARK                         _______ _______ _______ _____ _____    ______ ____
ROOT
ATOM      1  C   UNL     1     142.731 122.095  96.934  0.00  0.00    +0.000 C 
ATOM      2  C   UNL     1     142.319 122.890  98.178  0.00  0.00    +0.000 C 
ENDROOT
BRANCH   2   3
ATOM      3  S   UNL     1     141.843 123.801  99.609  0.00  0.00    +0.000 S 
ATOM      4  O   UNL     1     140.401 123.431  99.431  0.00  0.00    +0.000 OA
ATOM      5  C   UNL     1     141.636 125.302  98.711  0.00  0.00    +0.000 C 
ENDBRANCH   2   3
BRANCH   1   6
ATOM      6  C   UNL     1     143.141 121.303  95.689  0.00  0.00    +0.000 C 
ATOM      7  C   UNL     1     143.551 120.509  94.443  0.00  0.00    +0.000 C 
BRANCH   7   9
ATOM      8  S   UNL     1     142.932 117.238  93.389  0.00  0.00    +0.000 S 
ATOM      9  N   UNL     1     143.909 119.827  93.347  0.00  0.00    +0.000 NA
ATOM     10  C   UNL     1     143.485 118.733  93.384  0.00  0.00    +0.000 C 
ENDBRANCH   7   9
ENDBRANCH   1   6
TORSDOF 3
ENDMDL
MODEL 7
REMARK VINA RESULT:      -3.2      5.339      5.845
REMARK  Name = 5350_Sulforaphane.pdbqt.pdb
REMARK  3 active torsions:
REMARK  status: ('A' for Active; 'I' for Inactive)
REMARK    1  A    between atoms: C_1  and  C_2
REMARK    2  A    between atoms: C_3  and  N_5
REMARK    3  A    between atoms: C_7  and  S_8
REMARK                            x       y       z     vdW  Elec       q    Type
REMARK                         _______ _______ _______ _____ _____    ______ ____
ROOT
ATOM      1  C   UNL     1     143.860 125.303 101.898  0.00  0.00    +0.000 C 
ATOM      2  C   UNL     1     144.650 126.016 103.001  0.00  0.00    +0.000 C 
ENDROOT
BRANCH   2   3
ATOM      3  S   UNL     1     145.558 126.839 104.267  0.00  0.00    +0.000 S 
ATOM      4  O   UNL     1     145.346 128.177 103.623  0.00  0.00    +0.000 OA
ATOM      5  C   UNL     1     147.101 126.617 103.448  0.00  0.00    +0.000 C 
ENDBRANCH   2   3
BRANCH   1   6
ATOM      6  C   UNL     1     143.073 124.589 100.795  0.00  0.00    +0.000 C 
ATOM      7  C   UNL     1     142.285 123.875  99.691  0.00  0.00    +0.000 C 
BRANCH   7   9
ATOM      8  S   UNL     1     143.280 122.252  96.763  0.00  0.00    +0.000 S 
ATOM      9  N   UNL     1     141.601 123.239  98.729  0.00  0.00    +0.000 NA
ATOM     10  C   UNL     1     142.330 122.828  97.906  0.00  0.00    +0.000 C 
ENDBRANCH   7   9
ENDBRANCH   1   6
TORSDOF 3
ENDMDL
MODEL 8
REMARK VINA RESULT:      -3.2      9.248     10.717
REMARK  Name = 5350_Sulforaphane.pdbqt.pdb
REMARK  3 active torsions:
REMARK  status: ('A' for Active; 'I' for Inactive)
REMARK    1  A    between atoms: C_1  and  C_2
REMARK    2  A    between atoms: C_3  and  N_5
REMARK    3  A    between atoms: C_7  and  S_8
REMARK                            x       y       z     vdW  Elec       q    Type
REMARK                         _______ _______ _______ _____ _____    ______ ____
ROOT
ATOM      1  C   UNL     1     142.765 121.338  95.442  0.00  0.00    +0.000 C 
ATOM      2  C   UNL     1     143.752 120.588  94.541  0.00  0.00    +0.000 C 
ENDROOT
BRANCH   2   3
ATOM      3  S   UNL     1     144.884 119.727  93.501  0.00  0.00    +0.000 S 
ATOM      4  O   UNL     1     144.416 120.468  92.285  0.00  0.00    +0.000 OA
ATOM      5  C   UNL     1     143.764 118.401  93.206  0.00  0.00    +0.000 C 
ENDBRANCH   2   3
BRANCH   1   6
ATOM      6  C   UNL     1     141.778 122.084  96.344  0.00  0.00    +0.000 C 
ATOM      7  C   UNL     1     140.790 122.831  97.248  0.00  0.00    +0.000 C 
BRANCH   7   9
ATOM      8  S   UNL     1     141.188 124.772 100.123  0.00  0.00    +0.000 S 
ATOM      9  N   UNL     1     139.919 123.487  98.026  0.00  0.00    +0.000 NA
ATOM     10  C   UNL     1     140.476 124.025  98.908  0.00  0.00    +0.000 C 
ENDBRANCH   7   9
ENDBRANCH   1   6
TORSDOF 3
ENDMDL
MODEL 9
REMARK VINA RESULT:      -3.2     11.280     12.532
REMARK  Name = 5350_Sulforaphane.pdbqt.pdb
REMARK  3 active torsions:
REMARK  status: ('A' for Active; 'I' for Inactive)
REMARK    1  A    between atoms: C_1  and  C_2
REMARK    2  A    between atoms: C_3  and  N_5
REMARK    3  A    between atoms: C_7  and  S_8
REMARK                            x       y       z     vdW  Elec       q    Type
REMARK                         _______ _______ _______ _____ _____    ______ ____
ROOT
ATOM      1  C   UNL     1     145.219 137.454 105.237  0.00  0.00    +0.000 C 
ATOM      2  C   UNL     1     143.846 137.014 104.719  0.00  0.00    +0.000 C 
ENDROOT
BRANCH   2   3
ATOM      3  S   UNL     1     142.269 136.504 104.122  0.00  0.00    +0.000 S 
ATOM      4  O   UNL     1     142.744 135.098 103.905  0.00  0.00    +0.000 OA
ATOM      5  C   UNL     1     142.638 136.954 102.460  0.00  0.00    +0.000 C 
ENDBRANCH   2   3
BRANCH   1   6
ATOM      6  C   UNL     1     146.592 137.896 105.753  0.00  0.00    +0.000 C 
ATOM      7  C   UNL     1     147.966 138.338 106.269  0.00  0.00    +0.000 C 
BRANCH   7   9
ATOM      8  S   UNL     1     149.854 137.400 109.053  0.00  0.00    +0.000 S 
ATOM      9  N   UNL     1     149.173 138.714 106.715  0.00  0.00    +0.000 NA
ATOM     10  C   UNL     1     149.443 138.146 107.706  0.00  0.00    +0.000 C 
ENDBRANCH   7   9
ENDBRANCH   1   6
TORSDOF 3
ENDMDL
