MODEL 1
REMARK VINA RESULT:      -5.5      0.000      0.000
REMARK  Name = 5357283_Methylferulate.pdbqt.pdb
REMARK  5 active torsions:
REMARK  status: ('A' for Active; 'I' for Inactive)
REMARK    1  A    between atoms: C_1  and  C_11
REMARK    2  A    between atoms: C_2  and  O_7
REMARK    3  A    between atoms: C_5  and  O_9
REMARK    4  A    between atoms: C_12  and  C_14
REMARK    5  A    between atoms: C_14  and  O_15
REMARK                            x       y       z     vdW  Elec       q    Type
REMARK                         _______ _______ _______ _____ _____    ______ ____
ROOT
ATOM      1  C   UNL     1     140.794 124.364 135.144  0.00  0.00    +0.000 A 
ATOM      2  C   UNL     1     142.966 123.631 135.934  0.00  0.00    +0.000 A 
ATOM      3  C   UNL     1     141.806 123.406 135.187  0.00  0.00    +0.000 A 
ATOM      4  C   UNL     1     140.931 125.558 135.847  0.00  0.00    +0.000 A 
ATOM      5  C   UNL     1     143.091 124.834 136.634  0.00  0.00    +0.000 A 
ATOM      6  C   UNL     1     142.081 125.795 136.594  0.00  0.00    +0.000 A 
ENDROOT
BRANCH   2   7
ATOM      7  O   UNL     1     144.009 122.741 136.029  0.00  0.00    +0.000 OA
ATOM      8  C   UNL     1     143.694 121.504 136.613  0.00  0.00    +0.000 C 
ENDBRANCH   2   7
BRANCH   5   9
ATOM      9  O   UNL     1     144.220 125.073 137.370  0.00  0.00    +0.000 OA
ATOM     10  H   UNL     1     144.005 125.713 138.073  0.00  0.00    +0.000 HD
ENDBRANCH   5   9
BRANCH   1  11
ATOM     11  C   UNL     1     139.617 124.117 134.378  0.00  0.00    +0.000 C 
ATOM     12  C   UNL     1     138.623 123.909 133.734  0.00  0.00    +0.000 C 
BRANCH  12  14
ATOM     13  O   UNL     1     137.483 122.918 131.985  0.00  0.00    +0.000 OA
ATOM     14  C   UNL     1     137.429 123.654 132.962  0.00  0.00    +0.000 C 
BRANCH  14  15
ATOM     15  O   UNL     1     136.355 124.321 133.478  0.00  0.00    +0.000 OA
ATOM     16  C   UNL     1     135.691 123.748 134.575  0.00  0.00    +0.000 C 
ENDBRANCH  14  15
ENDBRANCH  12  14
ENDBRANCH   1  11
TORSDOF 5
ENDMDL
MODEL 2
REMARK VINA RESULT:      -5.4      1.688      6.376
REMARK  Name = 5357283_Methylferulate.pdbqt.pdb
REMARK  5 active torsions:
REMARK  status: ('A' for Active; 'I' for Inactive)
REMARK    1  A    between atoms: C_1  and  C_11
REMARK    2  A    between atoms: C_2  and  O_7
REMARK    3  A    between atoms: C_5  and  O_9
REMARK    4  A    between atoms: C_12  and  C_14
REMARK    5  A    between atoms: C_14  and  O_15
REMARK                            x       y       z     vdW  Elec       q    Type
REMARK                         _______ _______ _______ _____ _____    ______ ____
ROOT
ATOM      1  C   UNL     1     139.670 124.323 134.482  0.00  0.00    +0.000 A 
ATOM      2  C   UNL     1     137.849 122.787 134.026  0.00  0.00    +0.000 A 
ATOM      3  C   UNL     1     138.695 123.433 134.932  0.00  0.00    +0.000 A 
ATOM      4  C   UNL     1     139.808 124.577 133.120  0.00  0.00    +0.000 A 
ATOM      5  C   UNL     1     138.000 123.052 132.663  0.00  0.00    +0.000 A 
ATOM      6  C   UNL     1     138.972 123.941 132.207  0.00  0.00    +0.000 A 
ENDROOT
BRANCH   2   7
ATOM      7  O   UNL     1     136.865 121.898 134.385  0.00  0.00    +0.000 OA
ATOM      8  C   UNL     1     135.724 122.467 134.971  0.00  0.00    +0.000 C 
ENDBRANCH   2   7
BRANCH   5   9
ATOM      9  O   UNL     1     137.180 122.431 131.760  0.00  0.00    +0.000 OA
ATOM     10  H   UNL     1     137.727 122.069 131.038  0.00  0.00    +0.000 HD
ENDBRANCH   5   9
BRANCH   1  11
ATOM     11  C   UNL     1     140.525 124.972 135.421  0.00  0.00    +0.000 C 
ATOM     12  C   UNL     1     141.246 125.518 136.213  0.00  0.00    +0.000 C 
BRANCH  12  14
ATOM     13  O   UNL     1     141.625 126.921 138.010  0.00  0.00    +0.000 OA
ATOM     14  C   UNL     1     142.108 126.175 137.168  0.00  0.00    +0.000 C 
BRANCH  14  15
ATOM     15  O   UNL     1     143.416 125.837 136.967  0.00  0.00    +0.000 OA
ATOM     16  C   UNL     1     143.801 124.511 137.228  0.00  0.00    +0.000 C 
ENDBRANCH  14  15
ENDBRANCH  12  14
ENDBRANCH   1  11
TORSDOF 5
ENDMDL
MODEL 3
REMARK VINA RESULT:      -5.4      4.410      4.656
REMARK  Name = 5357283_Methylferulate.pdbqt.pdb
REMARK  5 active torsions:
REMARK  status: ('A' for Active; 'I' for Inactive)
REMARK    1  A    between atoms: C_1  and  C_11
REMARK    2  A    between atoms: C_2  and  O_7
REMARK    3  A    between atoms: C_5  and  O_9
REMARK    4  A    between atoms: C_12  and  C_14
REMARK    5  A    between atoms: C_14  and  O_15
REMARK                            x       y       z     vdW  Elec       q    Type
REMARK                         _______ _______ _______ _____ _____    ______ ____
ROOT
ATOM      1  C   UNL     1     138.945 125.605 132.496  0.00  0.00    +0.000 A 
ATOM      2  C   UNL     1     140.976 126.228 131.326  0.00  0.00    +0.000 A 
ATOM      3  C   UNL     1     139.936 125.323 131.557  0.00  0.00    +0.000 A 
ATOM      4  C   UNL     1     138.984 126.797 133.216  0.00  0.00    +0.000 A 
ATOM      5  C   UNL     1     141.002 127.420 132.055  0.00  0.00    +0.000 A 
ATOM      6  C   UNL     1     140.014 127.707 132.996  0.00  0.00    +0.000 A 
ENDROOT
BRANCH   2   7
ATOM      7  O   UNL     1     141.989 126.028 130.420  0.00  0.00    +0.000 OA
ATOM      8  C   UNL     1     141.608 126.075 129.070  0.00  0.00    +0.000 C 
ENDBRANCH   2   7
BRANCH   5   9
ATOM      9  O   UNL     1     142.011 128.320 131.843  0.00  0.00    +0.000 OA
ATOM     10  H   UNL     1     141.623 129.153 131.518  0.00  0.00    +0.000 HD
ENDBRANCH   5   9
BRANCH   1  11
ATOM     11  C   UNL     1     137.893 124.669 132.720  0.00  0.00    +0.000 C 
ATOM     12  C   UNL     1     137.004 123.881 132.908  0.00  0.00    +0.000 C 
BRANCH  12  14
ATOM     13  O   UNL     1     135.367 122.419 132.184  0.00  0.00    +0.000 OA
ATOM     14  C   UNL     1     135.935 122.938 133.137  0.00  0.00    +0.000 C 
BRANCH  14  15
ATOM     15  O   UNL     1     135.711 122.760 134.472  0.00  0.00    +0.000 OA
ATOM     16  C   UNL     1     135.157 123.831 135.194  0.00  0.00    +0.000 C 
ENDBRANCH  14  15
ENDBRANCH  12  14
ENDBRANCH   1  11
TORSDOF 5
ENDMDL
MODEL 4
REMARK VINA RESULT:      -5.3     22.798     24.621
REMARK  Name = 5357283_Methylferulate.pdbqt.pdb
REMARK  5 active torsions:
REMARK  status: ('A' for Active; 'I' for Inactive)
REMARK    1  A    between atoms: C_1  and  C_11
REMARK    2  A    between atoms: C_2  and  O_7
REMARK    3  A    between atoms: C_5  and  O_9
REMARK    4  A    between atoms: C_12  and  C_14
REMARK    5  A    between atoms: C_14  and  O_15
REMARK                            x       y       z     vdW  Elec       q    Type
REMARK                         _______ _______ _______ _____ _____    ______ ____
ROOT
ATOM      1  C   UNL     1     136.973 127.633 111.585  0.00  0.00    +0.000 A 
ATOM      2  C   UNL     1     139.090 126.948 110.621  0.00  0.00    +0.000 A 
ATOM      3  C   UNL     1     137.803 127.475 110.476  0.00  0.00    +0.000 A 
ATOM      4  C   UNL     1     137.421 127.265 112.852  0.00  0.00    +0.000 A 
ATOM      5  C   UNL     1     139.525 126.583 111.897  0.00  0.00    +0.000 A 
ATOM      6  C   UNL     1     138.699 126.739 113.009  0.00  0.00    +0.000 A 
ENDROOT
BRANCH   2   7
ATOM      7  O   UNL     1     139.970 126.759 109.582  0.00  0.00    +0.000 OA
ATOM      8  C   UNL     1     139.390 126.361 108.367  0.00  0.00    +0.000 C 
ENDBRANCH   2   7
BRANCH   5   9
ATOM      9  O   UNL     1     140.782 126.065 112.059  0.00  0.00    +0.000 OA
ATOM     10  H   UNL     1     141.429 126.792 112.002  0.00  0.00    +0.000 HD
ENDBRANCH   5   9
BRANCH   1  11
ATOM     11  C   UNL     1     135.663 128.172 111.419  0.00  0.00    +0.000 C 
ATOM     12  C   UNL     1     134.558 128.625 111.280  0.00  0.00    +0.000 C 
BRANCH  12  14
ATOM     13  O   UNL     1     132.635 128.993 110.052  0.00  0.00    +0.000 OA
ATOM     14  C   UNL     1     133.230 129.166 111.108  0.00  0.00    +0.000 C 
BRANCH  14  15
ATOM     15  O   UNL     1     132.820 129.832 112.227  0.00  0.00    +0.000 OA
ATOM     16  C   UNL     1     132.077 131.013 112.054  0.00  0.00    +0.000 C 
ENDBRANCH  14  15
ENDBRANCH  12  14
ENDBRANCH   1  11
TORSDOF 5
ENDMDL
MODEL 5
REMARK VINA RESULT:      -5.3     32.485     34.291
REMARK  Name = 5357283_Methylferulate.pdbqt.pdb
REMARK  5 active torsions:
REMARK  status: ('A' for Active; 'I' for Inactive)
REMARK    1  A    between atoms: C_1  and  C_11
REMARK    2  A    between atoms: C_2  and  O_7
REMARK    3  A    between atoms: C_5  and  O_9
REMARK    4  A    between atoms: C_12  and  C_14
REMARK    5  A    between atoms: C_14  and  O_15
REMARK                            x       y       z     vdW  Elec       q    Type
REMARK                         _______ _______ _______ _____ _____    ______ ____
ROOT
ATOM      1  C   UNL     1     146.100 127.547 102.200  0.00  0.00    +0.000 A 
ATOM      2  C   UNL     1     144.110 126.881 103.415  0.00  0.00    +0.000 A 
ATOM      3  C   UNL     1     144.719 127.362 102.253  0.00  0.00    +0.000 A 
ATOM      4  C   UNL     1     146.887 127.250 103.310  0.00  0.00    +0.000 A 
ATOM      5  C   UNL     1     144.912 126.588 104.521  0.00  0.00    +0.000 A 
ATOM      6  C   UNL     1     146.294 126.770 104.473  0.00  0.00    +0.000 A 
ENDROOT
BRANCH   2   7
ATOM      7  O   UNL     1     142.758 126.671 103.551  0.00  0.00    +0.000 OA
ATOM      8  C   UNL     1     141.959 127.219 102.535  0.00  0.00    +0.000 C 
ENDBRANCH   2   7
BRANCH   5   9
ATOM      9  O   UNL     1     144.335 126.114 105.668  0.00  0.00    +0.000 OA
ATOM     10  H   UNL     1     144.902 126.350 106.424  0.00  0.00    +0.000 HD
ENDBRANCH   5   9
BRANCH   1  11
ATOM     11  C   UNL     1     146.704 128.040 101.007  0.00  0.00    +0.000 C 
ATOM     12  C   UNL     1     147.214 128.455 100.000  0.00  0.00    +0.000 C 
BRANCH  12  14
ATOM     13  O   UNL     1     148.959 128.583  98.490  0.00  0.00    +0.000 OA
ATOM     14  C   UNL     1     147.831 128.951  98.792  0.00  0.00    +0.000 C 
BRANCH  14  15
ATOM     15  O   UNL     1     147.002 129.813  98.132  0.00  0.00    +0.000 OA
ATOM     16  C   UNL     1     145.701 129.374  97.832  0.00  0.00    +0.000 C 
ENDBRANCH  14  15
ENDBRANCH  12  14
ENDBRANCH   1  11
TORSDOF 5
ENDMDL
MODEL 6
REMARK VINA RESULT:      -5.0      4.002      6.502
REMARK  Name = 5357283_Methylferulate.pdbqt.pdb
REMARK  5 active torsions:
REMARK  status: ('A' for Active; 'I' for Inactive)
REMARK    1  A    between atoms: C_1  and  C_11
REMARK    2  A    between atoms: C_2  and  O_7
REMARK    3  A    between atoms: C_5  and  O_9
REMARK    4  A    between atoms: C_12  and  C_14
REMARK    5  A    between atoms: C_14  and  O_15
REMARK                            x       y       z     vdW  Elec       q    Type
REMARK                         _______ _______ _______ _____ _____    ______ ____
ROOT
ATOM      1  C   UNL     1     137.900 124.249 133.691  0.00  0.00    +0.000 A 
ATOM      2  C   UNL     1     136.104 122.624 133.593  0.00  0.00    +0.000 A 
ATOM      3  C   UNL     1     136.685 123.819 133.161  0.00  0.00    +0.000 A 
ATOM      4  C   UNL     1     138.549 123.487 134.660  0.00  0.00    +0.000 A 
ATOM      5  C   UNL     1     136.765 121.869 134.565  0.00  0.00    +0.000 A 
ATOM      6  C   UNL     1     137.981 122.295 135.099  0.00  0.00    +0.000 A 
ENDROOT
BRANCH   2   7
ATOM      7  O   UNL     1     134.911 122.129 133.123  0.00  0.00    +0.000 OA
ATOM      8  C   UNL     1     134.949 121.600 131.823  0.00  0.00    +0.000 C 
ENDBRANCH   2   7
BRANCH   5   9
ATOM      9  O   UNL     1     136.213 120.695 135.000  0.00  0.00    +0.000 OA
ATOM     10  H   UNL     1     135.542 120.407 134.354  0.00  0.00    +0.000 HD
ENDBRANCH   5   9
BRANCH   1  11
ATOM     11  C   UNL     1     138.478 125.472 133.240  0.00  0.00    +0.000 C 
ATOM     12  C   UNL     1     138.965 126.504 132.861  0.00  0.00    +0.000 C 
BRANCH  12  14
ATOM     13  O   UNL     1     139.055 128.336 131.456  0.00  0.00    +0.000 OA
ATOM     14  C   UNL     1     139.547 127.746 132.408  0.00  0.00    +0.000 C 
BRANCH  14  15
ATOM     15  O   UNL     1     140.630 128.089 133.166  0.00  0.00    +0.000 OA
ATOM     16  C   UNL     1     141.589 128.943 132.594  0.00  0.00    +0.000 C 
ENDBRANCH  14  15
ENDBRANCH  12  14
ENDBRANCH   1  11
TORSDOF 5
ENDMDL
MODEL 7
REMARK VINA RESULT:      -5.0     32.382     34.180
REMARK  Name = 5357283_Methylferulate.pdbqt.pdb
REMARK  5 active torsions:
REMARK  status: ('A' for Active; 'I' for Inactive)
REMARK    1  A    between atoms: C_1  and  C_11
REMARK    2  A    between atoms: C_2  and  O_7
REMARK    3  A    between atoms: C_5  and  O_9
REMARK    4  A    between atoms: C_12  and  C_14
REMARK    5  A    between atoms: C_14  and  O_15
REMARK                            x       y       z     vdW  Elec       q    Type
REMARK                         _______ _______ _______ _____ _____    ______ ____
ROOT
ATOM      1  C   UNL     1     143.172 125.972 101.513  0.00  0.00    +0.000 A 
ATOM      2  C   UNL     1     145.201 126.498 102.733  0.00  0.00    +0.000 A 
ATOM      3  C   UNL     1     144.476 125.653 101.888  0.00  0.00    +0.000 A 
ATOM      4  C   UNL     1     142.577 127.142 101.981  0.00  0.00    +0.000 A 
ATOM      5  C   UNL     1     144.592 127.668 103.194  0.00  0.00    +0.000 A 
ATOM      6  C   UNL     1     143.288 127.993 102.822  0.00  0.00    +0.000 A 
ENDROOT
BRANCH   2   7
ATOM      7  O   UNL     1     146.488 126.258 103.150  0.00  0.00    +0.000 OA
ATOM      8  C   UNL     1     147.346 125.724 102.176  0.00  0.00    +0.000 C 
ENDBRANCH   2   7
BRANCH   5   9
ATOM      9  O   UNL     1     145.285 128.510 104.021  0.00  0.00    +0.000 OA
ATOM     10  H   UNL     1     144.811 128.574 104.870  0.00  0.00    +0.000 HD
ENDBRANCH   5   9
BRANCH   1  11
ATOM     11  C   UNL     1     142.447 125.098 100.652  0.00  0.00    +0.000 C 
ATOM     12  C   UNL     1     141.835 124.359  99.926  0.00  0.00    +0.000 C 
BRANCH  12  14
ATOM     13  O   UNL     1     139.877 123.476  99.074  0.00  0.00    +0.000 OA
ATOM     14  C   UNL     1     141.100 123.469  99.058  0.00  0.00    +0.000 C 
BRANCH  14  15
ATOM     15  O   UNL     1     141.946 122.706  98.304  0.00  0.00    +0.000 OA
ATOM     16  C   UNL     1     142.198 123.114  96.983  0.00  0.00    +0.000 C 
ENDBRANCH  14  15
ENDBRANCH  12  14
ENDBRANCH   1  11
TORSDOF 5
ENDMDL
MODEL 8
REMARK VINA RESULT:      -5.0      3.382      5.831
REMARK  Name = 5357283_Methylferulate.pdbqt.pdb
REMARK  5 active torsions:
REMARK  status: ('A' for Active; 'I' for Inactive)
REMARK    1  A    between atoms: C_1  and  C_11
REMARK    2  A    between atoms: C_2  and  O_7
REMARK    3  A    between atoms: C_5  and  O_9
REMARK    4  A    between atoms: C_12  and  C_14
REMARK    5  A    between atoms: C_14  and  O_15
REMARK                            x       y       z     vdW  Elec       q    Type
REMARK                         _______ _______ _______ _____ _____    ______ ____
ROOT
ATOM      1  C   UNL     1     139.146 124.709 133.601  0.00  0.00    +0.000 A 
ATOM      2  C   UNL     1     138.321 122.757 134.781  0.00  0.00    +0.000 A 
ATOM      3  C   UNL     1     139.062 123.942 134.763  0.00  0.00    +0.000 A 
ATOM      4  C   UNL     1     138.490 124.297 132.444  0.00  0.00    +0.000 A 
ATOM      5  C   UNL     1     137.668 122.357 133.613  0.00  0.00    +0.000 A 
ATOM      6  C   UNL     1     137.749 123.119 132.448  0.00  0.00    +0.000 A 
ENDROOT
BRANCH   2   7
ATOM      7  O   UNL     1     138.187 121.945 135.881  0.00  0.00    +0.000 OA
ATOM      8  C   UNL     1     137.396 122.463 136.919  0.00  0.00    +0.000 C 
ENDBRANCH   2   7
BRANCH   5   9
ATOM      9  O   UNL     1     136.936 121.200 133.610  0.00  0.00    +0.000 OA
ATOM     10  H   UNL     1     137.074 120.745 132.760  0.00  0.00    +0.000 HD
ENDBRANCH   5   9
BRANCH   1  11
ATOM     11  C   UNL     1     139.908 125.914 133.601  0.00  0.00    +0.000 C 
ATOM     12  C   UNL     1     140.549 126.931 133.599  0.00  0.00    +0.000 C 
BRANCH  12  14
ATOM     13  O   UNL     1     141.890 128.506 132.568  0.00  0.00    +0.000 OA
ATOM     14  C   UNL     1     141.321 128.152 133.592  0.00  0.00    +0.000 C 
BRANCH  14  15
ATOM     15  O   UNL     1     141.294 128.760 134.815  0.00  0.00    +0.000 OA
ATOM     16  C   UNL     1     141.914 128.102 135.891  0.00  0.00    +0.000 C 
ENDBRANCH  14  15
ENDBRANCH  12  14
ENDBRANCH   1  11
TORSDOF 5
ENDMDL
MODEL 9
REMARK VINA RESULT:      -4.8     32.076     33.873
REMARK  Name = 5357283_Methylferulate.pdbqt.pdb
REMARK  5 active torsions:
REMARK  status: ('A' for Active; 'I' for Inactive)
REMARK    1  A    between atoms: C_1  and  C_11
REMARK    2  A    between atoms: C_2  and  O_7
REMARK    3  A    between atoms: C_5  and  O_9
REMARK    4  A    between atoms: C_12  and  C_14
REMARK    5  A    between atoms: C_14  and  O_15
REMARK                            x       y       z     vdW  Elec       q    Type
REMARK                         _______ _______ _______ _____ _____    ______ ____
ROOT
ATOM      1  C   UNL     1     144.145 125.827 101.410  0.00  0.00    +0.000 A 
ATOM      2  C   UNL     1     145.062 126.579 103.526  0.00  0.00    +0.000 A 
ATOM      3  C   UNL     1     144.125 125.833 102.805  0.00  0.00    +0.000 A 
ATOM      4  C   UNL     1     145.102 126.567 100.722  0.00  0.00    +0.000 A 
ATOM      5  C   UNL     1     146.017 127.317 102.821  0.00  0.00    +0.000 A 
ATOM      6  C   UNL     1     146.041 127.314 101.427  0.00  0.00    +0.000 A 
ENDROOT
BRANCH   2   7
ATOM      7  O   UNL     1     145.113 126.640 104.898  0.00  0.00    +0.000 OA
ATOM      8  C   UNL     1     144.397 125.638 105.571  0.00  0.00    +0.000 C 
ENDBRANCH   2   7
BRANCH   5   9
ATOM      9  O   UNL     1     146.944 128.053 103.509  0.00  0.00    +0.000 OA
ATOM     10  H   UNL     1     147.354 128.691 102.897  0.00  0.00    +0.000 HD
ENDBRANCH   5   9
BRANCH   1  11
ATOM     11  C   UNL     1     143.181 125.061 100.691  0.00  0.00    +0.000 C 
ATOM     12  C   UNL     1     142.367 124.417 100.085  0.00  0.00    +0.000 C 
BRANCH  12  14
ATOM     13  O   UNL     1     140.285 123.439  99.855  0.00  0.00    +0.000 OA
ATOM     14  C   UNL     1     141.386 123.643  99.360  0.00  0.00    +0.000 C 
BRANCH  14  15
ATOM     15  O   UNL     1     141.874 123.233  98.152  0.00  0.00    +0.000 OA
ATOM     16  C   UNL     1     143.016 122.413  98.148  0.00  0.00    +0.000 C 
ENDBRANCH  14  15
ENDBRANCH  12  14
ENDBRANCH   1  11
TORSDOF 5
ENDMDL
