MODEL 1
REMARK VINA RESULT:      -6.1      0.000      0.000
REMARK  Name = 5358691_Yuanhuacine.pdbqt.pdb
REMARK  12 active torsions:
REMARK  status: ('A' for Active; 'I' for Inactive)
REMARK    1  A    between atoms: C_9  and  C_48
REMARK    2  A    between atoms: C_13  and  C_23
REMARK    3  A    between atoms: C_14  and  O_26
REMARK    4  A    between atoms: C_15  and  O_28
REMARK    5  A    between atoms: C_16  and  O_39
REMARK    6  A    between atoms: C_17  and  C_30
REMARK    7  A    between atoms: C_31  and  C_32
REMARK    8  A    between atoms: C_33  and  C_34
REMARK    9  A    between atoms: C_35  and  C_36
REMARK   10  A    between atoms: O_39  and  C_41
REMARK   11  A    between atoms: C_41  and  C_42
REMARK   12  A    between atoms: C_48  and  O_49
REMARK                            x       y       z     vdW  Elec       q    Type
REMARK                         _______ _______ _______ _____ _____    ______ ____
ROOT
ATOM      1  O   UNL     1     143.445 117.159 112.259  0.00  0.00    +0.000 OA
ATOM      2  O   UNL     1     143.847 113.705 112.667  0.00  0.00    +0.000 OA
ATOM      3  O   UNL     1     145.573 114.707 111.383  0.00  0.00    +0.000 OA
ATOM      4  O   UNL     1     145.062 112.501 111.022  0.00  0.00    +0.000 OA
ATOM      5  O   UNL     1     138.451 116.008 113.184  0.00  0.00    +0.000 OA
ATOM      6  C   UNL     1     143.433 115.277 110.859  0.00  0.00    +0.000 C 
ATOM      7  C   UNL     1     142.805 114.224 111.784  0.00  0.00    +0.000 C 
ATOM      8  C   UNL     1     143.294 116.701 110.975  0.00  0.00    +0.000 C 
ATOM      9  C   UNL     1     142.293 117.611 111.534  0.00  0.00    +0.000 C 
ATOM     10  C   UNL     1     144.661 114.672 110.329  0.00  0.00    +0.000 C 
ATOM     11  C   UNL     1     141.735 114.804 112.657  0.00  0.00    +0.000 C 
ATOM     12  C   UNL     1     142.270 113.051 110.909  0.00  0.00    +0.000 C 
ATOM     13  C   UNL     1     144.559 113.203 109.851  0.00  0.00    +0.000 C 
ATOM     14  C   UNL     1     140.621 115.647 112.079  0.00  0.00    +0.000 C 
ATOM     15  C   UNL     1     140.938 117.100 111.873  0.00  0.00    +0.000 C 
ATOM     16  C   UNL     1     143.114 112.743 109.766  0.00  0.00    +0.000 C 
ATOM     17  C   UNL     1     145.133 113.507 112.030  0.00  0.00    +0.000 C 
ATOM     18  C   UNL     1     141.328 114.333 113.932  0.00  0.00    +0.000 C 
ATOM     19  C   UNL     1     141.127 112.102 111.272  0.00  0.00    +0.000 C 
ATOM     20  C   UNL     1     139.561 115.484 113.218  0.00  0.00    +0.000 C 
ATOM     21  C   UNL     1     140.131 114.631 114.312  0.00  0.00    +0.000 C 
ATOM     22  C   UNL     1     139.681 114.606 115.736  0.00  0.00    +0.000 C 
ENDROOT
BRANCH  13  23
ATOM     23  C   UNL     1     145.439 112.996 108.596  0.00  0.00    +0.000 C 
ATOM     24  C   UNL     1     146.031 111.651 108.177  0.00  0.00    +0.000 C 
ATOM     25  C   UNL     1     146.007 114.008 107.909  0.00  0.00    +0.000 C 
ENDBRANCH  13  23
BRANCH  14  26
ATOM     26  O   UNL     1     140.170 115.122 110.848  0.00  0.00    +0.000 OA
ATOM     27  H   UNL     1     139.324 115.565 110.637  0.00  0.00    +0.000 HD
ENDBRANCH  14  26
BRANCH  15  28
ATOM     28  O   UNL     1     139.854 117.980 111.822  0.00  0.00    +0.000 OA
ATOM     29  H   UNL     1     139.155 117.816 112.490  0.00  0.00    +0.000 HD
ENDBRANCH  15  28
BRANCH  17  30
ATOM     30  C   UNL     1     146.104 113.110 113.044  0.00  0.00    +0.000 C 
ATOM     31  C   UNL     1     146.902 112.785 113.880  0.00  0.00    +0.000 C 
BRANCH  31  32
ATOM     32  C   UNL     1     147.919 112.370 114.946  0.00  0.00    +0.000 C 
ATOM     33  C   UNL     1     148.715 112.044 115.783  0.00  0.00    +0.000 C 
BRANCH  33  34
ATOM     34  C   UNL     1     149.730 111.629 116.853  0.00  0.00    +0.000 C 
ATOM     35  C   UNL     1     150.744 111.214 117.923  0.00  0.00    +0.000 C 
BRANCH  35  36
ATOM     36  C   UNL     1     151.758 110.799 118.994  0.00  0.00    +0.000 C 
ATOM     37  C   UNL     1     152.771 110.386 120.066  0.00  0.00    +0.000 C 
ATOM     38  C   UNL     1     153.784 109.973 121.138  0.00  0.00    +0.000 C 
ENDBRANCH  35  36
ENDBRANCH  33  34
ENDBRANCH  31  32
ENDBRANCH  17  30
BRANCH  16  39
ATOM     39  O   UNL     1     142.552 112.014 108.705  0.00  0.00    +0.000 OA
BRANCH  39  41
ATOM     40  O   UNL     1     140.457 112.712 108.070  0.00  0.00    +0.000 OA
ATOM     41  C   UNL     1     141.669 112.723 107.942  0.00  0.00    +0.000 C 
BRANCH  41  42
ATOM     42  C   UNL     1     142.386 113.478 106.898  0.00  0.00    +0.000 A 
ATOM     43  C   UNL     1     142.453 114.871 106.922  0.00  0.00    +0.000 A 
ATOM     44  C   UNL     1     143.006 112.763 105.875  0.00  0.00    +0.000 A 
ATOM     45  C   UNL     1     143.142 115.549 105.918  0.00  0.00    +0.000 A 
ATOM     46  C   UNL     1     143.694 113.443 104.873  0.00  0.00    +0.000 A 
ATOM     47  C   UNL     1     143.762 114.835 104.896  0.00  0.00    +0.000 A 
ENDBRANCH  41  42
ENDBRANCH  39  41
ENDBRANCH  16  39
BRANCH   9  48
ATOM     48  C   UNL     1     142.424 119.033 111.244  0.00  0.00    +0.000 C 
BRANCH  48  49
ATOM     49  O   UNL     1     142.542 120.330 110.972  0.00  0.00    +0.000 OA
ATOM     50  H   UNL     1     141.773 120.643 110.466  0.00  0.00    +0.000 HD
ENDBRANCH  48  49
ENDBRANCH   9  48
TORSDOF 12
ENDMDL
MODEL 2
REMARK VINA RESULT:      -6.0     30.953     35.236
REMARK  Name = 5358691_Yuanhuacine.pdbqt.pdb
REMARK  12 active torsions:
REMARK  status: ('A' for Active; 'I' for Inactive)
REMARK    1  A    between atoms: C_9  and  C_48
REMARK    2  A    between atoms: C_13  and  C_23
REMARK    3  A    between atoms: C_14  and  O_26
REMARK    4  A    between atoms: C_15  and  O_28
REMARK    5  A    between atoms: C_16  and  O_39
REMARK    6  A    between atoms: C_17  and  C_30
REMARK    7  A    between atoms: C_31  and  C_32
REMARK    8  A    between atoms: C_33  and  C_34
REMARK    9  A    between atoms: C_35  and  C_36
REMARK   10  A    between atoms: O_39  and  C_41
REMARK   11  A    between atoms: C_41  and  C_42
REMARK   12  A    between atoms: C_48  and  O_49
REMARK                            x       y       z     vdW  Elec       q    Type
REMARK                         _______ _______ _______ _____ _____    ______ ____
ROOT
ATOM      1  O   UNL     1     139.695 133.903 134.539  0.00  0.00    +0.000 OA
ATOM      2  O   UNL     1     138.401 136.940 135.704  0.00  0.00    +0.000 OA
ATOM      3  O   UNL     1     139.854 135.882 137.254  0.00  0.00    +0.000 OA
ATOM      4  O   UNL     1     138.210 137.270 138.046  0.00  0.00    +0.000 OA
ATOM      5  O   UNL     1     135.448 134.022 131.528  0.00  0.00    +0.000 OA
ATOM      6  C   UNL     1     138.266 134.580 136.272  0.00  0.00    +0.000 C 
ATOM      7  C   UNL     1     137.541 135.763 135.613  0.00  0.00    +0.000 C 
ATOM      8  C   UNL     1     138.916 133.496 135.592  0.00  0.00    +0.000 C 
ATOM      9  C   UNL     1     138.767 132.838 134.292  0.00  0.00    +0.000 C 
ATOM     10  C   UNL     1     138.760 135.074 137.563  0.00  0.00    +0.000 C 
ATOM     11  C   UNL     1     137.275 135.524 134.158  0.00  0.00    +0.000 C 
ATOM     12  C   UNL     1     136.230 136.046 136.406  0.00  0.00    +0.000 C 
ATOM     13  C   UNL     1     137.776 135.926 138.400  0.00  0.00    +0.000 C 
ATOM     14  C   UNL     1     136.623 134.245 133.679  0.00  0.00    +0.000 C 
ATOM     15  C   UNL     1     137.542 133.076 133.481  0.00  0.00    +0.000 C 
ATOM     16  C   UNL     1     136.365 135.861 137.841  0.00  0.00    +0.000 C 
ATOM     17  C   UNL     1     139.112 137.071 136.960  0.00  0.00    +0.000 C 
ATOM     18  C   UNL     1     137.136 136.506 133.145  0.00  0.00    +0.000 C 
ATOM     19  C   UNL     1     134.961 136.695 135.851  0.00  0.00    +0.000 C 
ATOM     20  C   UNL     1     136.077 134.741 132.300  0.00  0.00    +0.000 C 
ATOM     21  C   UNL     1     136.462 136.176 132.095  0.00  0.00    +0.000 C 
ATOM     22  C   UNL     1     136.565 136.883 130.784  0.00  0.00    +0.000 C 
ENDROOT
BRANCH  13  23
ATOM     23  C   UNL     1     137.953 135.609 139.904  0.00  0.00    +0.000 C 
ATOM     24  C   UNL     1     138.195 136.666 140.980  0.00  0.00    +0.000 C 
ATOM     25  C   UNL     1     138.195 134.370 140.380  0.00  0.00    +0.000 C 
ENDBRANCH  13  23
BRANCH  14  26
ATOM     26  O   UNL     1     135.589 133.842 134.552  0.00  0.00    +0.000 OA
ATOM     27  H   UNL     1     134.851 133.519 133.997  0.00  0.00    +0.000 HD
ENDBRANCH  14  26
BRANCH  15  28
ATOM     28  O   UNL     1     137.109 132.075 132.607  0.00  0.00    +0.000 OA
ATOM     29  H   UNL     1     136.917 131.211 133.031  0.00  0.00    +0.000 HD
ENDBRANCH  15  28
BRANCH  17  30
ATOM     30  C   UNL     1     140.020 138.209 136.870  0.00  0.00    +0.000 C 
ATOM     31  C   UNL     1     140.767 139.146 136.794  0.00  0.00    +0.000 C 
BRANCH  31  32
ATOM     32  C   UNL     1     141.719 140.341 136.696  0.00  0.00    +0.000 C 
ATOM     33  C   UNL     1     142.465 141.278 136.618  0.00  0.00    +0.000 C 
BRANCH  33  34
ATOM     34  C   UNL     1     143.417 142.474 136.517  0.00  0.00    +0.000 C 
ATOM     35  C   UNL     1     144.367 143.670 136.417  0.00  0.00    +0.000 C 
BRANCH  35  36
ATOM     36  C   UNL     1     145.320 144.866 136.317  0.00  0.00    +0.000 C 
ATOM     37  C   UNL     1     146.273 146.061 136.218  0.00  0.00    +0.000 C 
ATOM     38  C   UNL     1     147.227 147.256 136.120  0.00  0.00    +0.000 C 
ENDBRANCH  35  36
ENDBRANCH  33  34
ENDBRANCH  31  32
ENDBRANCH  17  30
BRANCH  16  39
ATOM     39  O   UNL     1     135.195 135.684 138.599  0.00  0.00    +0.000 OA
BRANCH  39  41
ATOM     40  O   UNL     1     135.049 137.892 139.220  0.00  0.00    +0.000 OA
ATOM     41  C   UNL     1     134.929 136.704 139.467  0.00  0.00    +0.000 C 
BRANCH  41  42
ATOM     42  C   UNL     1     134.513 136.167 140.776  0.00  0.00    +0.000 A 
ATOM     43  C   UNL     1     134.464 136.973 141.913  0.00  0.00    +0.000 A 
ATOM     44  C   UNL     1     134.164 134.820 140.856  0.00  0.00    +0.000 A 
ATOM     45  C   UNL     1     134.064 136.429 143.131  0.00  0.00    +0.000 A 
ATOM     46  C   UNL     1     133.764 134.279 142.074  0.00  0.00    +0.000 A 
ATOM     47  C   UNL     1     133.715 135.083 143.211  0.00  0.00    +0.000 A 
ENDBRANCH  41  42
ENDBRANCH  39  41
ENDBRANCH  16  39
BRANCH   9  48
ATOM     48  C   UNL     1     139.494 131.596 134.067  0.00  0.00    +0.000 C 
BRANCH  48  49
ATOM     49  O   UNL     1     140.163 130.466 133.860  0.00  0.00    +0.000 OA
ATOM     50  H   UNL     1     140.148 130.230 132.916  0.00  0.00    +0.000 HD
ENDBRANCH  48  49
ENDBRANCH   9  48
TORSDOF 12
ENDMDL
MODEL 3
REMARK VINA RESULT:      -5.7      4.639     11.545
REMARK  Name = 5358691_Yuanhuacine.pdbqt.pdb
REMARK  12 active torsions:
REMARK  status: ('A' for Active; 'I' for Inactive)
REMARK    1  A    between atoms: C_9  and  C_48
REMARK    2  A    between atoms: C_13  and  C_23
REMARK    3  A    between atoms: C_14  and  O_26
REMARK    4  A    between atoms: C_15  and  O_28
REMARK    5  A    between atoms: C_16  and  O_39
REMARK    6  A    between atoms: C_17  and  C_30
REMARK    7  A    between atoms: C_31  and  C_32
REMARK    8  A    between atoms: C_33  and  C_34
REMARK    9  A    between atoms: C_35  and  C_36
REMARK   10  A    between atoms: O_39  and  C_41
REMARK   11  A    between atoms: C_41  and  C_42
REMARK   12  A    between atoms: C_48  and  O_49
REMARK                            x       y       z     vdW  Elec       q    Type
REMARK                         _______ _______ _______ _____ _____    ______ ____
ROOT
ATOM      1  O   UNL     1     144.832 113.948 103.988  0.00  0.00    +0.000 OA
ATOM      2  O   UNL     1     142.502 113.183 106.487  0.00  0.00    +0.000 OA
ATOM      3  O   UNL     1     142.690 115.510 106.059  0.00  0.00    +0.000 OA
ATOM      4  O   UNL     1     142.035 114.815 108.144  0.00  0.00    +0.000 OA
ATOM      5  O   UNL     1     146.809 109.329 105.355  0.00  0.00    +0.000 OA
ATOM      6  C   UNL     1     144.629 114.342 106.292  0.00  0.00    +0.000 C 
ATOM      7  C   UNL     1     143.932 113.054 106.752  0.00  0.00    +0.000 C 
ATOM      8  C   UNL     1     145.412 114.506 105.099  0.00  0.00    +0.000 C 
ATOM      9  C   UNL     1     146.206 113.624 104.241  0.00  0.00    +0.000 C 
ATOM     10  C   UNL     1     143.841 115.451 106.843  0.00  0.00    +0.000 C 
ATOM     11  C   UNL     1     144.414 111.850 106.001  0.00  0.00    +0.000 C 
ATOM     12  C   UNL     1     144.138 112.900 108.290  0.00  0.00    +0.000 C 
ATOM     13  C   UNL     1     143.391 115.313 108.318  0.00  0.00    +0.000 C 
ATOM     14  C   UNL     1     145.890 111.559 105.848  0.00  0.00    +0.000 C 
ATOM     15  C   UNL     1     146.586 112.269 104.725  0.00  0.00    +0.000 C 
ATOM     16  C   UNL     1     144.096 114.161 109.012  0.00  0.00    +0.000 C 
ATOM     17  C   UNL     1     141.955 114.497 106.756  0.00  0.00    +0.000 C 
ATOM     18  C   UNL     1     143.691 110.655 105.754  0.00  0.00    +0.000 C 
ATOM     19  C   UNL     1     144.137 111.587 109.074  0.00  0.00    +0.000 C 
ATOM     20  C   UNL     1     145.816 110.024 105.551  0.00  0.00    +0.000 C 
ATOM     21  C   UNL     1     144.381 109.588 105.528  0.00  0.00    +0.000 C 
ATOM     22  C   UNL     1     143.839 108.376 104.845  0.00  0.00    +0.000 C 
ENDROOT
BRANCH  13  23
ATOM     23  C   UNL     1     143.445 116.693 109.015  0.00  0.00    +0.000 C 
ATOM     24  C   UNL     1     142.826 116.989 110.381  0.00  0.00    +0.000 C 
ATOM     25  C   UNL     1     143.784 117.835 108.382  0.00  0.00    +0.000 C 
ENDBRANCH  13  23
BRANCH  14  26
ATOM     26  O   UNL     1     146.591 111.840 107.041  0.00  0.00    +0.000 OA
ATOM     27  H   UNL     1     147.325 111.197 107.104  0.00  0.00    +0.000 HD
ENDBRANCH  14  26
BRANCH  15  28
ATOM     28  O   UNL     1     147.763 111.689 104.245  0.00  0.00    +0.000 OA
ATOM     29  H   UNL     1     147.649 111.108 103.463  0.00  0.00    +0.000 HD
ENDBRANCH  15  28
BRANCH  17  30
ATOM     30  C   UNL     1     140.559 114.522 106.333  0.00  0.00    +0.000 C 
ATOM     31  C   UNL     1     139.411 114.544 105.984  0.00  0.00    +0.000 C 
BRANCH  31  32
ATOM     32  C   UNL     1     137.947 114.573 105.537  0.00  0.00    +0.000 C 
ATOM     33  C   UNL     1     136.798 114.597 105.187  0.00  0.00    +0.000 C 
BRANCH  33  34
ATOM     34  C   UNL     1     135.333 114.629 104.742  0.00  0.00    +0.000 C 
ATOM     35  C   UNL     1     133.869 114.661 104.298  0.00  0.00    +0.000 C 
BRANCH  35  36
ATOM     36  C   UNL     1     132.402 114.693 103.854  0.00  0.00    +0.000 C 
ATOM     37  C   UNL     1     130.936 114.726 103.412  0.00  0.00    +0.000 C 
ATOM     38  C   UNL     1     129.470 114.759 102.970  0.00  0.00    +0.000 C 
ENDBRANCH  35  36
ENDBRANCH  33  34
ENDBRANCH  31  32
ENDBRANCH  17  30
BRANCH  16  39
ATOM     39  O   UNL     1     144.661 114.205 110.298  0.00  0.00    +0.000 OA
BRANCH  39  41
ATOM     40  O   UNL     1     146.614 114.987 109.373  0.00  0.00    +0.000 OA
ATOM     41  C   UNL     1     145.984 114.545 110.319  0.00  0.00    +0.000 C 
BRANCH  41  42
ATOM     42  C   UNL     1     146.564 114.261 111.643  0.00  0.00    +0.000 A 
ATOM     43  C   UNL     1     147.419 115.164 112.275  0.00  0.00    +0.000 A 
ATOM     44  C   UNL     1     146.237 113.055 112.262  0.00  0.00    +0.000 A 
ATOM     45  C   UNL     1     147.946 114.860 113.528  0.00  0.00    +0.000 A 
ATOM     46  C   UNL     1     146.766 112.754 113.515  0.00  0.00    +0.000 A 
ATOM     47  C   UNL     1     147.620 113.656 114.146  0.00  0.00    +0.000 A 
ENDBRANCH  41  42
ENDBRANCH  39  41
ENDBRANCH  16  39
BRANCH   9  48
ATOM     48  C   UNL     1     147.049 114.239 103.225  0.00  0.00    +0.000 C 
BRANCH  48  49
ATOM     49  O   UNL     1     147.815 114.798 102.293  0.00  0.00    +0.000 OA
ATOM     50  H   UNL     1     148.126 115.672 102.587  0.00  0.00    +0.000 HD
ENDBRANCH  48  49
ENDBRANCH   9  48
TORSDOF 12
ENDMDL
MODEL 4
REMARK VINA RESULT:      -5.6     31.666     36.028
REMARK  Name = 5358691_Yuanhuacine.pdbqt.pdb
REMARK  12 active torsions:
REMARK  status: ('A' for Active; 'I' for Inactive)
REMARK    1  A    between atoms: C_9  and  C_48
REMARK    2  A    between atoms: C_13  and  C_23
REMARK    3  A    between atoms: C_14  and  O_26
REMARK    4  A    between atoms: C_15  and  O_28
REMARK    5  A    between atoms: C_16  and  O_39
REMARK    6  A    between atoms: C_17  and  C_30
REMARK    7  A    between atoms: C_31  and  C_32
REMARK    8  A    between atoms: C_33  and  C_34
REMARK    9  A    between atoms: C_35  and  C_36
REMARK   10  A    between atoms: O_39  and  C_41
REMARK   11  A    between atoms: C_41  and  C_42
REMARK   12  A    between atoms: C_48  and  O_49
REMARK                            x       y       z     vdW  Elec       q    Type
REMARK                         _______ _______ _______ _____ _____    ______ ____
ROOT
ATOM      1  O   UNL     1     135.425 136.209 135.314  0.00  0.00    +0.000 OA
ATOM      2  O   UNL     1     136.866 135.029 138.279  0.00  0.00    +0.000 OA
ATOM      3  O   UNL     1     135.529 136.966 138.589  0.00  0.00    +0.000 OA
ATOM      4  O   UNL     1     137.259 136.568 140.042  0.00  0.00    +0.000 OA
ATOM      5  O   UNL     1     139.407 133.643 133.149  0.00  0.00    +0.000 OA
ATOM      6  C   UNL     1     137.006 136.996 136.858  0.00  0.00    +0.000 C 
ATOM      7  C   UNL     1     137.694 135.687 137.271  0.00  0.00    +0.000 C 
ATOM      8  C   UNL     1     136.282 137.229 135.640  0.00  0.00    +0.000 C 
ATOM      9  C   UNL     1     136.310 136.673 134.286  0.00  0.00    +0.000 C 
ATOM     10  C   UNL     1     136.630 137.671 138.106  0.00  0.00    +0.000 C 
ATOM     11  C   UNL     1     137.833 134.735 136.124  0.00  0.00    +0.000 C 
ATOM     12  C   UNL     1     139.072 136.032 137.912  0.00  0.00    +0.000 C 
ATOM     13  C   UNL     1     137.697 137.693 139.229  0.00  0.00    +0.000 C 
ATOM     14  C   UNL     1     138.420 135.178 134.802  0.00  0.00    +0.000 C 
ATOM     15  C   UNL     1     137.467 135.842 133.852  0.00  0.00    +0.000 C 
ATOM     16  C   UNL     1     139.054 137.242 138.718  0.00  0.00    +0.000 C 
ATOM     17  C   UNL     1     136.265 135.926 139.245  0.00  0.00    +0.000 C 
ATOM     18  C   UNL     1     137.904 133.320 136.195  0.00  0.00    +0.000 C 
ATOM     19  C   UNL     1     140.301 135.123 137.954  0.00  0.00    +0.000 C 
ATOM     20  C   UNL     1     138.858 133.786 134.239  0.00  0.00    +0.000 C 
ATOM     21  C   UNL     1     138.482 132.711 135.215  0.00  0.00    +0.000 C 
ATOM     22  C   UNL     1     138.282 131.265 134.900  0.00  0.00    +0.000 C 
ENDROOT
BRANCH  13  23
ATOM     23  C   UNL     1     137.641 139.042 139.982  0.00  0.00    +0.000 C 
ATOM     24  C   UNL     1     138.184 139.260 141.393  0.00  0.00    +0.000 C 
ATOM     25  C   UNL     1     136.866 140.078 139.598  0.00  0.00    +0.000 C 
ENDBRANCH  13  23
BRANCH  14  26
ATOM     26  O   UNL     1     139.516 136.046 134.996  0.00  0.00    +0.000 OA
ATOM     27  H   UNL     1     139.531 136.288 135.943  0.00  0.00    +0.000 HD
ENDBRANCH  14  26
BRANCH  15  28
ATOM     28  O   UNL     1     137.808 135.819 132.497  0.00  0.00    +0.000 OA
ATOM     29  H   UNL     1     137.452 136.564 131.967  0.00  0.00    +0.000 HD
ENDBRANCH  15  28
BRANCH  17  30
ATOM     30  C   UNL     1     135.373 135.159 140.107  0.00  0.00    +0.000 C 
ATOM     31  C   UNL     1     134.639 134.527 140.816  0.00  0.00    +0.000 C 
BRANCH  31  32
ATOM     32  C   UNL     1     133.703 133.719 141.719  0.00  0.00    +0.000 C 
ATOM     33  C   UNL     1     132.969 133.086 142.428  0.00  0.00    +0.000 C 
BRANCH  33  34
ATOM     34  C   UNL     1     132.035 132.278 143.334  0.00  0.00    +0.000 C 
ATOM     35  C   UNL     1     131.102 131.470 144.239  0.00  0.00    +0.000 C 
BRANCH  35  36
ATOM     36  C   UNL     1     130.169 130.661 145.146  0.00  0.00    +0.000 C 
ATOM     37  C   UNL     1     129.236 129.853 146.053  0.00  0.00    +0.000 C 
ATOM     38  C   UNL     1     128.302 129.046 146.961  0.00  0.00    +0.000 C 
ENDBRANCH  35  36
ENDBRANCH  33  34
ENDBRANCH  31  32
ENDBRANCH  17  30
BRANCH  16  39
ATOM     39  O   UNL     1     140.280 137.868 138.999  0.00  0.00    +0.000 OA
BRANCH  39  41
ATOM     40  O   UNL     1     141.830 138.043 137.311  0.00  0.00    +0.000 OA
ATOM     41  C   UNL     1     140.864 138.470 137.921  0.00  0.00    +0.000 C 
BRANCH  41  42
ATOM     42  C   UNL     1     140.187 139.744 137.618  0.00  0.00    +0.000 A 
ATOM     43  C   UNL     1     139.359 139.883 136.504  0.00  0.00    +0.000 A 
ATOM     44  C   UNL     1     140.392 140.821 138.478  0.00  0.00    +0.000 A 
ATOM     45  C   UNL     1     138.736 141.103 136.252  0.00  0.00    +0.000 A 
ATOM     46  C   UNL     1     139.768 142.039 138.224  0.00  0.00    +0.000 A 
ATOM     47  C   UNL     1     138.940 142.179 137.112  0.00  0.00    +0.000 A 
ENDBRANCH  41  42
ENDBRANCH  39  41
ENDBRANCH  16  39
BRANCH   9  48
ATOM     48  C   UNL     1     135.545 137.355 133.251  0.00  0.00    +0.000 C 
BRANCH  48  49
ATOM     49  O   UNL     1     134.851 137.979 132.303  0.00  0.00    +0.000 OA
ATOM     50  H   UNL     1     135.380 138.057 131.490  0.00  0.00    +0.000 HD
ENDBRANCH  48  49
ENDBRANCH   9  48
TORSDOF 12
ENDMDL
MODEL 5
REMARK VINA RESULT:      -5.4      5.353     12.174
REMARK  Name = 5358691_Yuanhuacine.pdbqt.pdb
REMARK  12 active torsions:
REMARK  status: ('A' for Active; 'I' for Inactive)
REMARK    1  A    between atoms: C_9  and  C_48
REMARK    2  A    between atoms: C_13  and  C_23
REMARK    3  A    between atoms: C_14  and  O_26
REMARK    4  A    between atoms: C_15  and  O_28
REMARK    5  A    between atoms: C_16  and  O_39
REMARK    6  A    between atoms: C_17  and  C_30
REMARK    7  A    between atoms: C_31  and  C_32
REMARK    8  A    between atoms: C_33  and  C_34
REMARK    9  A    between atoms: C_35  and  C_36
REMARK   10  A    between atoms: O_39  and  C_41
REMARK   11  A    between atoms: C_41  and  C_42
REMARK   12  A    between atoms: C_48  and  O_49
REMARK                            x       y       z     vdW  Elec       q    Type
REMARK                         _______ _______ _______ _____ _____    ______ ____
ROOT
ATOM      1  O   UNL     1     139.891 117.116 111.978  0.00  0.00    +0.000 OA
ATOM      2  O   UNL     1     136.710 115.691 112.309  0.00  0.00    +0.000 OA
ATOM      3  O   UNL     1     137.420 116.865 114.246  0.00  0.00    +0.000 OA
ATOM      4  O   UNL     1     135.936 115.132 114.481  0.00  0.00    +0.000 OA
ATOM      5  O   UNL     1     140.440 113.406 108.366  0.00  0.00    +0.000 OA
ATOM      6  C   UNL     1     138.917 115.438 113.296  0.00  0.00    +0.000 C 
ATOM      7  C   UNL     1     137.899 114.842 112.313  0.00  0.00    +0.000 C 
ATOM      8  C   UNL     1     140.101 116.174 112.953  0.00  0.00    +0.000 C 
ATOM      9  C   UNL     1     141.001 116.226 111.799  0.00  0.00    +0.000 C 
ATOM     10  C   UNL     1     138.172 115.726 114.528  0.00  0.00    +0.000 C 
ATOM     11  C   UNL     1     138.422 114.808 110.909  0.00  0.00    +0.000 C 
ATOM     12  C   UNL     1     137.493 113.424 112.817  0.00  0.00    +0.000 C 
ATOM     13  C   UNL     1     137.193 114.631 115.016  0.00  0.00    +0.000 C 
ATOM     14  C   UNL     1     139.781 114.226 110.592  0.00  0.00    +0.000 C 
ATOM     15  C   UNL     1     140.949 115.150 110.773  0.00  0.00    +0.000 C 
ATOM     16  C   UNL     1     137.392 113.327 114.264  0.00  0.00    +0.000 C 
ATOM     17  C   UNL     1     136.325 116.194 113.612  0.00  0.00    +0.000 C 
ATOM     18  C   UNL     1     137.657 114.845 109.715  0.00  0.00    +0.000 C 
ATOM     19  C   UNL     1     136.988 112.269 111.952  0.00  0.00    +0.000 C 
ATOM     20  C   UNL     1     139.573 113.912 109.072  0.00  0.00    +0.000 C 
ATOM     21  C   UNL     1     138.199 114.343 108.656  0.00  0.00    +0.000 C 
ATOM     22  C   UNL     1     137.758 114.663 107.266  0.00  0.00    +0.000 C 
ENDROOT
BRANCH  13  23
ATOM     23  C   UNL     1     137.208 114.562 116.561  0.00  0.00    +0.000 C 
ATOM     24  C   UNL     1     136.068 113.994 117.406  0.00  0.00    +0.000 C 
ATOM     25  C   UNL     1     138.085 115.242 117.329  0.00  0.00    +0.000 C 
ENDBRANCH  13  23
BRANCH  14  26
ATOM     26  O   UNL     1     140.026 113.060 111.350  0.00  0.00    +0.000 OA
ATOM     27  H   UNL     1     139.908 112.295 110.752  0.00  0.00    +0.000 HD
ENDBRANCH  14  26
BRANCH  15  28
ATOM     28  O   UNL     1     142.108 114.849 110.054  0.00  0.00    +0.000 OA
ATOM     29  H   UNL     1     142.944 115.144 110.474  0.00  0.00    +0.000 HD
ENDBRANCH  15  28
BRANCH  17  30
ATOM     30  C   UNL     1     135.209 117.119 113.447  0.00  0.00    +0.000 C 
ATOM     31  C   UNL     1     134.291 117.881 113.310  0.00  0.00    +0.000 C 
BRANCH  31  32
ATOM     32  C   UNL     1     133.120 118.851 113.133  0.00  0.00    +0.000 C 
ATOM     33  C   UNL     1     132.202 119.612 112.994  0.00  0.00    +0.000 C 
BRANCH  33  34
ATOM     34  C   UNL     1     131.032 120.584 112.815  0.00  0.00    +0.000 C 
ATOM     35  C   UNL     1     129.863 121.556 112.635  0.00  0.00    +0.000 C 
BRANCH  35  36
ATOM     36  C   UNL     1     128.693 122.528 112.453  0.00  0.00    +0.000 C 
ATOM     37  C   UNL     1     127.524 123.501 112.271  0.00  0.00    +0.000 C 
ATOM     38  C   UNL     1     126.355 124.475 112.088  0.00  0.00    +0.000 C 
ENDBRANCH  35  36
ENDBRANCH  33  34
ENDBRANCH  31  32
ENDBRANCH  17  30
BRANCH  16  39
ATOM     39  O   UNL     1     137.441 112.049 114.845  0.00  0.00    +0.000 OA
BRANCH  39  41
ATOM     40  O   UNL     1     139.112 110.669 114.082  0.00  0.00    +0.000 OA
ATOM     41  C   UNL     1     138.687 111.491 114.875  0.00  0.00    +0.000 C 
BRANCH  41  42
ATOM     42  C   UNL     1     139.444 111.992 116.037  0.00  0.00    +0.000 A 
ATOM     43  C   UNL     1     140.505 112.885 115.887  0.00  0.00    +0.000 A 
ATOM     44  C   UNL     1     139.073 111.552 117.306  0.00  0.00    +0.000 A 
ATOM     45  C   UNL     1     141.195 113.337 117.009  0.00  0.00    +0.000 A 
ATOM     46  C   UNL     1     139.764 112.005 118.427  0.00  0.00    +0.000 A 
ATOM     47  C   UNL     1     140.824 112.897 118.278  0.00  0.00    +0.000 A 
ENDBRANCH  41  42
ENDBRANCH  39  41
ENDBRANCH  16  39
BRANCH   9  48
ATOM     48  C   UNL     1     142.249 116.964 111.939  0.00  0.00    +0.000 C 
BRANCH  48  49
ATOM     49  O   UNL     1     143.386 117.641 112.072  0.00  0.00    +0.000 OA
ATOM     50  H   UNL     1     143.520 118.234 111.312  0.00  0.00    +0.000 HD
ENDBRANCH  48  49
ENDBRANCH   9  48
TORSDOF 12
ENDMDL
MODEL 6
REMARK VINA RESULT:      -5.4     25.900     30.841
REMARK  Name = 5358691_Yuanhuacine.pdbqt.pdb
REMARK  12 active torsions:
REMARK  status: ('A' for Active; 'I' for Inactive)
REMARK    1  A    between atoms: C_9  and  C_48
REMARK    2  A    between atoms: C_13  and  C_23
REMARK    3  A    between atoms: C_14  and  O_26
REMARK    4  A    between atoms: C_15  and  O_28
REMARK    5  A    between atoms: C_16  and  O_39
REMARK    6  A    between atoms: C_17  and  C_30
REMARK    7  A    between atoms: C_31  and  C_32
REMARK    8  A    between atoms: C_33  and  C_34
REMARK    9  A    between atoms: C_35  and  C_36
REMARK   10  A    between atoms: O_39  and  C_41
REMARK   11  A    between atoms: C_41  and  C_42
REMARK   12  A    between atoms: C_48  and  O_49
REMARK                            x       y       z     vdW  Elec       q    Type
REMARK                         _______ _______ _______ _____ _____    ______ ____
ROOT
ATOM      1  O   UNL     1     135.297 119.267 137.365  0.00  0.00    +0.000 OA
ATOM      2  O   UNL     1     133.643 122.035 138.729  0.00  0.00    +0.000 OA
ATOM      3  O   UNL     1     133.594 120.124 140.136  0.00  0.00    +0.000 OA
ATOM      4  O   UNL     1     131.897 121.658 140.292  0.00  0.00    +0.000 OA
ATOM      5  O   UNL     1     134.307 121.732 132.885  0.00  0.00    +0.000 OA
ATOM      6  C   UNL     1     133.087 119.804 137.941  0.00  0.00    +0.000 C 
ATOM      7  C   UNL     1     133.051 121.303 137.612  0.00  0.00    +0.000 C 
ATOM      8  C   UNL     1     133.996 118.835 137.394  0.00  0.00    +0.000 C 
ATOM      9  C   UNL     1     134.766 118.707 136.156  0.00  0.00    +0.000 C 
ATOM     10  C   UNL     1     132.567 119.674 139.307  0.00  0.00    +0.000 C 
ATOM     11  C   UNL     1     133.855 121.634 136.392  0.00  0.00    +0.000 C 
ATOM     12  C   UNL     1     131.563 121.743 137.465  0.00  0.00    +0.000 C 
ATOM     13  C   UNL     1     131.301 120.497 139.647  0.00  0.00    +0.000 C 
ATOM     14  C   UNL     1     133.679 120.865 135.102  0.00  0.00    +0.000 C 
ATOM     15  C   UNL     1     134.447 119.581 134.995  0.00  0.00    +0.000 C 
ATOM     16  C   UNL     1     130.665 121.084 138.399  0.00  0.00    +0.000 C 
ATOM     17  C   UNL     1     133.294 121.521 140.038  0.00  0.00    +0.000 C 
ATOM     18  C   UNL     1     134.482 122.872 136.096  0.00  0.00    +0.000 C 
ATOM     19  C   UNL     1     131.047 122.917 136.632  0.00  0.00    +0.000 C 
ATOM     20  C   UNL     1     134.249 121.920 134.097  0.00  0.00    +0.000 C 
ATOM     21  C   UNL     1     134.709 123.131 134.852  0.00  0.00    +0.000 C 
ATOM     22  C   UNL     1     135.709 124.136 134.382  0.00  0.00    +0.000 C 
ENDROOT
BRANCH  13  23
ATOM     23  C   UNL     1     130.383 119.686 140.590  0.00  0.00    +0.000 C 
ATOM     24  C   UNL     1     129.269 120.298 141.437  0.00  0.00    +0.000 C 
ATOM     25  C   UNL     1     130.646 118.421 140.979  0.00  0.00    +0.000 C 
ENDBRANCH  13  23
BRANCH  14  26
ATOM     26  O   UNL     1     132.317 120.578 134.862  0.00  0.00    +0.000 OA
ATOM     27  H   UNL     1     132.125 120.836 133.938  0.00  0.00    +0.000 HD
ENDBRANCH  14  26
BRANCH  15  28
ATOM     28  O   UNL     1     134.708 119.108 133.706  0.00  0.00    +0.000 OA
ATOM     29  H   UNL     1     135.457 119.547 133.247  0.00  0.00    +0.000 HD
ENDBRANCH  15  28
BRANCH  17  30
ATOM     30  C   UNL     1     134.045 122.259 141.048  0.00  0.00    +0.000 C 
ATOM     31  C   UNL     1     134.663 122.867 141.878  0.00  0.00    +0.000 C 
BRANCH  31  32
ATOM     32  C   UNL     1     135.452 123.643 142.936  0.00  0.00    +0.000 C 
ATOM     33  C   UNL     1     136.070 124.253 143.764  0.00  0.00    +0.000 C 
BRANCH  33  34
ATOM     34  C   UNL     1     136.860 125.033 144.820  0.00  0.00    +0.000 C 
ATOM     35  C   UNL     1     137.650 125.813 145.874  0.00  0.00    +0.000 C 
BRANCH  35  36
ATOM     36  C   UNL     1     138.439 126.595 146.930  0.00  0.00    +0.000 C 
ATOM     37  C   UNL     1     139.228 127.376 147.984  0.00  0.00    +0.000 C 
ATOM     38  C   UNL     1     140.017 128.160 149.038  0.00  0.00    +0.000 C 
ENDBRANCH  35  36
ENDBRANCH  33  34
ENDBRANCH  31  32
ENDBRANCH  17  30
BRANCH  16  39
ATOM     39  O   UNL     1     129.291 121.080 138.105  0.00  0.00    +0.000 OA
BRANCH  39  41
ATOM     40  O   UNL     1     128.685 120.553 135.952  0.00  0.00    +0.000 OA
ATOM     41  C   UNL     1     128.934 120.227 137.100  0.00  0.00    +0.000 C 
BRANCH  41  42
ATOM     42  C   UNL     1     128.847 118.846 137.608  0.00  0.00    +0.000 A 
ATOM     43  C   UNL     1     129.818 117.893 137.302  0.00  0.00    +0.000 A 
ATOM     44  C   UNL     1     127.761 118.506 138.414  0.00  0.00    +0.000 A 
ATOM     45  C   UNL     1     129.701 116.598 137.802  0.00  0.00    +0.000 A 
ATOM     46  C   UNL     1     127.647 117.212 138.914  0.00  0.00    +0.000 A 
ATOM     47  C   UNL     1     128.617 116.259 138.608  0.00  0.00    +0.000 A 
ENDBRANCH  41  42
ENDBRANCH  39  41
ENDBRANCH  16  39
BRANCH   9  48
ATOM     48  C   UNL     1     135.412 117.431 135.882  0.00  0.00    +0.000 C 
BRANCH  48  49
ATOM     49  O   UNL     1     136.006 116.268 135.628  0.00  0.00    +0.000 OA
ATOM     50  H   UNL     1     135.662 115.884 134.802  0.00  0.00    +0.000 HD
ENDBRANCH  48  49
ENDBRANCH   9  48
TORSDOF 12
ENDMDL
MODEL 7
REMARK VINA RESULT:      -5.3      8.613     14.230
REMARK  Name = 5358691_Yuanhuacine.pdbqt.pdb
REMARK  12 active torsions:
REMARK  status: ('A' for Active; 'I' for Inactive)
REMARK    1  A    between atoms: C_9  and  C_48
REMARK    2  A    between atoms: C_13  and  C_23
REMARK    3  A    between atoms: C_14  and  O_26
REMARK    4  A    between atoms: C_15  and  O_28
REMARK    5  A    between atoms: C_16  and  O_39
REMARK    6  A    between atoms: C_17  and  C_30
REMARK    7  A    between atoms: C_31  and  C_32
REMARK    8  A    between atoms: C_33  and  C_34
REMARK    9  A    between atoms: C_35  and  C_36
REMARK   10  A    between atoms: O_39  and  C_41
REMARK   11  A    between atoms: C_41  and  C_42
REMARK   12  A    between atoms: C_48  and  O_49
REMARK                            x       y       z     vdW  Elec       q    Type
REMARK                         _______ _______ _______ _____ _____    ______ ____
ROOT
ATOM      1  O   UNL     1     130.780 116.993 111.800  0.00  0.00    +0.000 OA
ATOM      2  O   UNL     1     133.443 118.533 113.472  0.00  0.00    +0.000 OA
ATOM      3  O   UNL     1     133.169 116.246 114.047  0.00  0.00    +0.000 OA
ATOM      4  O   UNL     1     134.115 117.668 115.577  0.00  0.00    +0.000 OA
ATOM      5  O   UNL     1     129.068 121.896 111.416  0.00  0.00    +0.000 OA
ATOM      6  C   UNL     1     131.295 117.537 114.023  0.00  0.00    +0.000 C 
ATOM      7  C   UNL     1     132.065 118.852 113.836  0.00  0.00    +0.000 C 
ATOM      8  C   UNL     1     130.353 116.964 113.103  0.00  0.00    +0.000 C 
ATOM      9  C   UNL     1     129.459 117.482 112.066  0.00  0.00    +0.000 C 
ATOM     10  C   UNL     1     132.139 116.689 114.874  0.00  0.00    +0.000 C 
ATOM     11  C   UNL     1     131.498 119.686 112.727  0.00  0.00    +0.000 C 
ATOM     12  C   UNL     1     132.076 119.619 115.193  0.00  0.00    +0.000 C 
ATOM     13  C   UNL     1     132.790 117.372 116.102  0.00  0.00    +0.000 C 
ATOM     14  C   UNL     1     130.019 119.990 112.651  0.00  0.00    +0.000 C 
ATOM     15  C   UNL     1     129.166 118.940 112.004  0.00  0.00    +0.000 C 
ATOM     16  C   UNL     1     132.202 118.750 116.352  0.00  0.00    +0.000 C 
ATOM     17  C   UNL     1     134.006 117.401 114.181  0.00  0.00    +0.000 C 
ATOM     18  C   UNL     1     132.194 120.633 111.933  0.00  0.00    +0.000 C 
ATOM     19  C   UNL     1     132.201 121.132 115.374  0.00  0.00    +0.000 C 
ATOM     20  C   UNL     1     130.070 121.271 111.753  0.00  0.00    +0.000 C 
ATOM     21  C   UNL     1     131.492 121.565 111.382  0.00  0.00    +0.000 C 
ATOM     22  C   UNL     1     131.950 122.366 110.207  0.00  0.00    +0.000 C 
ENDROOT
BRANCH  13  23
ATOM     23  C   UNL     1     132.817 116.391 117.297  0.00  0.00    +0.000 C 
ATOM     24  C   UNL     1     134.085 115.991 118.050  0.00  0.00    +0.000 C 
ATOM     25  C   UNL     1     131.790 115.576 117.616  0.00  0.00    +0.000 C 
ENDBRANCH  13  23
BRANCH  14  26
ATOM     26  O   UNL     1     129.486 120.255 113.932  0.00  0.00    +0.000 OA
ATOM     27  H   UNL     1     129.320 121.218 113.984  0.00  0.00    +0.000 HD
ENDBRANCH  14  26
BRANCH  15  28
ATOM     28  O   UNL     1     127.941 119.358 111.478  0.00  0.00    +0.000 OA
ATOM     29  H   UNL     1     127.692 118.941 110.626  0.00  0.00    +0.000 HD
ENDBRANCH  15  28
BRANCH  17  30
ATOM     30  C   UNL     1     135.329 117.117 113.637  0.00  0.00    +0.000 C 
ATOM     31  C   UNL     1     136.418 116.883 113.187  0.00  0.00    +0.000 C 
BRANCH  31  32
ATOM     32  C   UNL     1     137.806 116.587 112.613  0.00  0.00    +0.000 C 
ATOM     33  C   UNL     1     138.894 116.355 112.162  0.00  0.00    +0.000 C 
BRANCH  33  34
ATOM     34  C   UNL     1     140.281 116.058 111.584  0.00  0.00    +0.000 C 
ATOM     35  C   UNL     1     141.668 115.762 111.008  0.00  0.00    +0.000 C 
BRANCH  35  36
ATOM     36  C   UNL     1     143.057 115.464 110.432  0.00  0.00    +0.000 C 
ATOM     37  C   UNL     1     144.444 115.165 109.856  0.00  0.00    +0.000 C 
ATOM     38  C   UNL     1     145.831 114.866 109.279  0.00  0.00    +0.000 C 
ENDBRANCH  35  36
ENDBRANCH  33  34
ENDBRANCH  31  32
ENDBRANCH  17  30
BRANCH  16  39
ATOM     39  O   UNL     1     131.820 119.259 117.604  0.00  0.00    +0.000 OA
BRANCH  39  41
ATOM     40  O   UNL     1     129.576 119.403 117.131  0.00  0.00    +0.000 OA
ATOM     41  C   UNL     1     130.491 119.120 117.886  0.00  0.00    +0.000 C 
BRANCH  41  42
ATOM     42  C   UNL     1     130.308 118.616 119.259  0.00  0.00    +0.000 A 
ATOM     43  C   UNL     1     131.394 118.241 120.049  0.00  0.00    +0.000 A 
ATOM     44  C   UNL     1     129.010 118.521 119.760  0.00  0.00    +0.000 A 
ATOM     45  C   UNL     1     131.180 117.771 121.343  0.00  0.00    +0.000 A 
ATOM     46  C   UNL     1     128.800 118.052 121.053  0.00  0.00    +0.000 A 
ATOM     47  C   UNL     1     129.884 117.677 121.844  0.00  0.00    +0.000 A 
ENDBRANCH  41  42
ENDBRANCH  39  41
ENDBRANCH  16  39
BRANCH   9  48
ATOM     48  C   UNL     1     128.475 116.572 111.495  0.00  0.00    +0.000 C 
BRANCH  48  49
ATOM     49  O   UNL     1     127.582 115.738 110.971  0.00  0.00    +0.000 OA
ATOM     50  H   UNL     1     127.996 115.180 110.289  0.00  0.00    +0.000 HD
ENDBRANCH  48  49
ENDBRANCH   9  48
TORSDOF 12
ENDMDL
MODEL 8
REMARK VINA RESULT:      -5.2     25.029     28.365
REMARK  Name = 5358691_Yuanhuacine.pdbqt.pdb
REMARK  12 active torsions:
REMARK  status: ('A' for Active; 'I' for Inactive)
REMARK    1  A    between atoms: C_9  and  C_48
REMARK    2  A    between atoms: C_13  and  C_23
REMARK    3  A    between atoms: C_14  and  O_26
REMARK    4  A    between atoms: C_15  and  O_28
REMARK    5  A    between atoms: C_16  and  O_39
REMARK    6  A    between atoms: C_17  and  C_30
REMARK    7  A    between atoms: C_31  and  C_32
REMARK    8  A    between atoms: C_33  and  C_34
REMARK    9  A    between atoms: C_35  and  C_36
REMARK   10  A    between atoms: O_39  and  C_41
REMARK   11  A    between atoms: C_41  and  C_42
REMARK   12  A    between atoms: C_48  and  O_49
REMARK                            x       y       z     vdW  Elec       q    Type
REMARK                         _______ _______ _______ _____ _____    ______ ____
ROOT
ATOM      1  O   UNL     1     154.028 137.129 127.305  0.00  0.00    +0.000 OA
ATOM      2  O   UNL     1     151.072 135.916 128.736  0.00  0.00    +0.000 OA
ATOM      3  O   UNL     1     152.519 134.197 127.970  0.00  0.00    +0.000 OA
ATOM      4  O   UNL     1     150.263 133.794 128.047  0.00  0.00    +0.000 OA
ATOM      5  O   UNL     1     151.131 141.394 126.576  0.00  0.00    +0.000 OA
ATOM      6  C   UNL     1     152.148 135.942 126.557  0.00  0.00    +0.000 C 
ATOM      7  C   UNL     1     151.043 136.559 127.425  0.00  0.00    +0.000 C 
ATOM      8  C   UNL     1     153.409 136.545 126.229  0.00  0.00    +0.000 C 
ATOM      9  C   UNL     1     153.913 137.915 126.111  0.00  0.00    +0.000 C 
ATOM     10  C   UNL     1     152.016 134.487 126.703  0.00  0.00    +0.000 C 
ATOM     11  C   UNL     1     151.252 138.026 127.650  0.00  0.00    +0.000 C 
ATOM     12  C   UNL     1     149.665 136.264 126.760  0.00  0.00    +0.000 C 
ATOM     13  C   UNL     1     150.580 133.912 126.631  0.00  0.00    +0.000 C 
ATOM     14  C   UNL     1     151.525 138.965 126.496  0.00  0.00    +0.000 C 
ATOM     15  C   UNL     1     152.954 139.051 126.045  0.00  0.00    +0.000 C 
ATOM     16  C   UNL     1     149.587 134.951 126.140  0.00  0.00    +0.000 C 
ATOM     17  C   UNL     1     151.323 134.489 128.701  0.00  0.00    +0.000 C 
ATOM     18  C   UNL     1     150.803 138.791 128.756  0.00  0.00    +0.000 C 
ATOM     19  C   UNL     1     148.392 137.097 126.911  0.00  0.00    +0.000 C 
ATOM     20  C   UNL     1     151.088 140.314 127.158  0.00  0.00    +0.000 C 
ATOM     21  C   UNL     1     150.651 140.059 128.570  0.00  0.00    +0.000 C 
ATOM     22  C   UNL     1     150.610 141.063 129.675  0.00  0.00    +0.000 C 
ENDROOT
BRANCH  13  23
ATOM     23  C   UNL     1     150.595 132.551 125.898  0.00  0.00    +0.000 C 
ATOM     24  C   UNL     1     149.617 131.412 126.184  0.00  0.00    +0.000 C 
ATOM     25  C   UNL     1     151.629 132.121 125.146  0.00  0.00    +0.000 C 
ENDBRANCH  13  23
BRANCH  14  26
ATOM     26  O   UNL     1     150.733 138.638 125.374  0.00  0.00    +0.000 OA
ATOM     27  H   UNL     1     150.098 139.370 125.244  0.00  0.00    +0.000 HD
ENDBRANCH  14  26
BRANCH  15  28
ATOM     28  O   UNL     1     153.330 140.210 125.361  0.00  0.00    +0.000 OA
ATOM     29  H   UNL     1     154.188 140.595 125.640  0.00  0.00    +0.000 HD
ENDBRANCH  15  28
BRANCH  17  30
ATOM     30  C   UNL     1     151.450 134.000 130.070  0.00  0.00    +0.000 C 
ATOM     31  C   UNL     1     151.553 133.599 131.197  0.00  0.00    +0.000 C 
BRANCH  31  32
ATOM     32  C   UNL     1     151.682 133.087 132.634  0.00  0.00    +0.000 C 
ATOM     33  C   UNL     1     151.783 132.684 133.760  0.00  0.00    +0.000 C 
BRANCH  33  34
ATOM     34  C   UNL     1     151.911 132.169 135.197  0.00  0.00    +0.000 C 
ATOM     35  C   UNL     1     152.038 131.655 136.633  0.00  0.00    +0.000 C 
BRANCH  35  36
ATOM     36  C   UNL     1     152.163 131.140 138.071  0.00  0.00    +0.000 C 
ATOM     37  C   UNL     1     152.290 130.625 139.508  0.00  0.00    +0.000 C 
ATOM     38  C   UNL     1     152.417 130.111 140.946  0.00  0.00    +0.000 C 
ENDBRANCH  35  36
ENDBRANCH  33  34
ENDBRANCH  31  32
ENDBRANCH  17  30
BRANCH  16  39
ATOM     39  O   UNL     1     148.583 134.731 125.182  0.00  0.00    +0.000 OA
BRANCH  39  41
ATOM     40  O   UNL     1     148.898 133.291 123.419  0.00  0.00    +0.000 OA
ATOM     41  C   UNL     1     149.052 134.378 123.948  0.00  0.00    +0.000 C 
BRANCH  41  42
ATOM     42  C   UNL     1     149.817 135.489 123.355  0.00  0.00    +0.000 A 
ATOM     43  C   UNL     1     151.207 135.441 123.243  0.00  0.00    +0.000 A 
ATOM     44  C   UNL     1     149.116 136.604 122.898  0.00  0.00    +0.000 A 
ATOM     45  C   UNL     1     151.894 136.511 122.675  0.00  0.00    +0.000 A 
ATOM     46  C   UNL     1     149.805 137.671 122.329  0.00  0.00    +0.000 A 
ATOM     47  C   UNL     1     151.193 137.624 122.218  0.00  0.00    +0.000 A 
ENDBRANCH  41  42
ENDBRANCH  39  41
ENDBRANCH  16  39
BRANCH   9  48
ATOM     48  C   UNL     1     155.231 138.110 125.524  0.00  0.00    +0.000 C 
BRANCH  48  49
ATOM     49  O   UNL     1     156.435 138.295 124.989  0.00  0.00    +0.000 OA
ATOM     50  H   UNL     1     156.993 137.511 125.130  0.00  0.00    +0.000 HD
ENDBRANCH  48  49
ENDBRANCH   9  48
TORSDOF 12
ENDMDL
MODEL 9
REMARK VINA RESULT:      -5.2     28.929     33.570
REMARK  Name = 5358691_Yuanhuacine.pdbqt.pdb
REMARK  12 active torsions:
REMARK  status: ('A' for Active; 'I' for Inactive)
REMARK    1  A    between atoms: C_9  and  C_48
REMARK    2  A    between atoms: C_13  and  C_23
REMARK    3  A    between atoms: C_14  and  O_26
REMARK    4  A    between atoms: C_15  and  O_28
REMARK    5  A    between atoms: C_16  and  O_39
REMARK    6  A    between atoms: C_17  and  C_30
REMARK    7  A    between atoms: C_31  and  C_32
REMARK    8  A    between atoms: C_33  and  C_34
REMARK    9  A    between atoms: C_35  and  C_36
REMARK   10  A    between atoms: O_39  and  C_41
REMARK   11  A    between atoms: C_41  and  C_42
REMARK   12  A    between atoms: C_48  and  O_49
REMARK                            x       y       z     vdW  Elec       q    Type
REMARK                         _______ _______ _______ _____ _____    ______ ____
ROOT
ATOM      1  O   UNL     1     148.973 141.250 126.835  0.00  0.00    +0.000 OA
ATOM      2  O   UNL     1     147.150 139.434 129.209  0.00  0.00    +0.000 OA
ATOM      3  O   UNL     1     147.133 141.775 129.601  0.00  0.00    +0.000 OA
ATOM      4  O   UNL     1     146.884 140.351 131.382  0.00  0.00    +0.000 OA
ATOM      5  O   UNL     1     151.408 136.691 126.204  0.00  0.00    +0.000 OA
ATOM      6  C   UNL     1     149.146 140.821 129.135  0.00  0.00    +0.000 C 
ATOM      7  C   UNL     1     148.610 139.383 129.209  0.00  0.00    +0.000 C 
ATOM      8  C   UNL     1     149.702 141.462 127.977  0.00  0.00    +0.000 C 
ATOM      9  C   UNL     1     150.385 141.015 126.762  0.00  0.00    +0.000 C 
ATOM     10  C   UNL     1     148.403 141.584 130.145  0.00  0.00    +0.000 C 
ATOM     11  C   UNL     1     149.022 138.565 128.023  0.00  0.00    +0.000 C 
ATOM     12  C   UNL     1     149.084 138.745 130.549  0.00  0.00    +0.000 C 
ATOM     13  C   UNL     1     148.220 140.909 131.526  0.00  0.00    +0.000 C 
ATOM     14  C   UNL     1     150.465 138.508 127.572  0.00  0.00    +0.000 C 
ATOM     15  C   UNL     1     150.917 139.628 126.682  0.00  0.00    +0.000 C 
ATOM     16  C   UNL     1     149.096 139.676 131.666  0.00  0.00    +0.000 C 
ATOM     17  C   UNL     1     146.586 140.511 129.996  0.00  0.00    +0.000 C 
ATOM     18  C   UNL     1     148.336 137.449 127.479  0.00  0.00    +0.000 C 
ATOM     19  C   UNL     1     149.290 137.254 130.816  0.00  0.00    +0.000 C 
ATOM     20  C   UNL     1     150.427 137.165 126.770  0.00  0.00    +0.000 C 
ATOM     21  C   UNL     1     149.036 136.604 126.798  0.00  0.00    +0.000 C 
ATOM     22  C   UNL     1     148.453 135.640 125.818  0.00  0.00    +0.000 C 
ENDROOT
BRANCH  13  23
ATOM     23  C   UNL     1     148.315 141.971 132.647  0.00  0.00    +0.000 C 
ATOM     24  C   UNL     1     147.127 142.443 133.483  0.00  0.00    +0.000 C 
ATOM     25  C   UNL     1     149.376 142.788 132.811  0.00  0.00    +0.000 C 
ENDBRANCH  13  23
BRANCH  14  26
ATOM     26  O   UNL     1     151.343 138.447 128.676  0.00  0.00    +0.000 OA
ATOM     27  H   UNL     1     151.230 139.276 129.182  0.00  0.00    +0.000 HD
ENDBRANCH  14  26
BRANCH  15  28
ATOM     28  O   UNL     1     152.026 139.378 125.868  0.00  0.00    +0.000 OA
ATOM     29  H   UNL     1     152.793 139.971 126.020  0.00  0.00    +0.000 HD
ENDBRANCH  15  28
BRANCH  17  30
ATOM     30  C   UNL     1     145.139 140.521 129.810  0.00  0.00    +0.000 C 
ATOM     31  C   UNL     1     143.948 140.527 129.656  0.00  0.00    +0.000 C 
BRANCH  31  32
ATOM     32  C   UNL     1     142.430 140.534 129.462  0.00  0.00    +0.000 C 
ATOM     33  C   UNL     1     141.239 140.538 129.309  0.00  0.00    +0.000 C 
BRANCH  33  34
ATOM     34  C   UNL     1     139.719 140.541 129.116  0.00  0.00    +0.000 C 
ATOM     35  C   UNL     1     138.201 140.544 128.921  0.00  0.00    +0.000 C 
BRANCH  35  36
ATOM     36  C   UNL     1     136.681 140.545 128.727  0.00  0.00    +0.000 C 
ATOM     37  C   UNL     1     135.162 140.545 128.535  0.00  0.00    +0.000 C 
ATOM     38  C   UNL     1     133.641 140.546 128.343  0.00  0.00    +0.000 C 
ENDBRANCH  35  36
ENDBRANCH  33  34
ENDBRANCH  31  32
ENDBRANCH  17  30
BRANCH  16  39
ATOM     39  O   UNL     1     149.869 139.349 132.792  0.00  0.00    +0.000 OA
BRANCH  39  41
ATOM     40  O   UNL     1     151.755 140.149 131.750  0.00  0.00    +0.000 OA
ATOM     41  C   UNL     1     151.146 139.833 132.758  0.00  0.00    +0.000 C 
BRANCH  41  42
ATOM     42  C   UNL     1     151.711 139.883 134.118  0.00  0.00    +0.000 A 
ATOM     43  C   UNL     1     152.430 140.989 134.570  0.00  0.00    +0.000 A 
ATOM     44  C   UNL     1     151.510 138.788 134.957  0.00  0.00    +0.000 A 
ATOM     45  C   UNL     1     152.948 140.999 135.863  0.00  0.00    +0.000 A 
ATOM     46  C   UNL     1     152.028 138.800 136.249  0.00  0.00    +0.000 A 
ATOM     47  C   UNL     1     152.746 139.905 136.701  0.00  0.00    +0.000 A 
ENDBRANCH  41  42
ENDBRANCH  39  41
ENDBRANCH  16  39
BRANCH   9  48
ATOM     48  C   UNL     1     151.007 142.025 125.917  0.00  0.00    +0.000 C 
BRANCH  48  49
ATOM     49  O   UNL     1     151.581 142.945 125.146  0.00  0.00    +0.000 OA
ATOM     50  H   UNL     1     150.966 143.239 124.452  0.00  0.00    +0.000 HD
ENDBRANCH  48  49
ENDBRANCH   9  48
TORSDOF 12
ENDMDL
