MODEL 1
REMARK VINA RESULT:      -6.0      0.000      0.000
REMARK  Name = 5386_Tegafur.pdbqt.pdb
REMARK  1 active torsions:
REMARK  status: ('A' for Active; 'I' for Inactive)
REMARK    1  A    between atoms: N_4  and  C_12
REMARK                            x       y       z     vdW  Elec       q    Type
REMARK                         _______ _______ _______ _____ _____    ______ ____
ROOT
ATOM      1  F   UNL     1     136.295 124.277 133.960  0.00  0.00    +0.000 F 
ATOM      2  O   UNL     1     141.245 124.554 131.740  0.00  0.00    +0.000 OA
ATOM      3  O   UNL     1     137.209 122.389 132.062  0.00  0.00    +0.000 OA
ATOM      4  N   UNL     1     139.536 125.577 133.017  0.00  0.00    +0.000 N 
ATOM      5  N   UNL     1     139.183 123.558 131.868  0.00  0.00    +0.000 N 
ATOM      6  C   UNL     1     140.101 124.588 132.179  0.00  0.00    +0.000 C 
ATOM      7  C   UNL     1     138.252 125.406 133.393  0.00  0.00    +0.000 C 
ATOM      8  C   UNL     1     137.349 124.515 133.162  0.00  0.00    +0.000 C 
ATOM      9  C   UNL     1     137.868 123.388 132.322  0.00  0.00    +0.000 C 
ATOM     10  H   UNL     1     139.553 122.808 131.302  0.00  0.00    +0.000 HD
ENDROOT
BRANCH   4  12
ATOM     11  O   UNL     1     140.983 126.667 134.633  0.00  0.00    +0.000 OA
ATOM     12  C   UNL     1     140.215 126.674 133.463  0.00  0.00    +0.000 C 
ATOM     13  C   UNL     1     140.286 127.973 132.892  0.00  0.00    +0.000 C 
ATOM     14  C   UNL     1     141.097 129.102 133.532  0.00  0.00    +0.000 C 
ATOM     15  C   UNL     1     141.342 127.951 134.507  0.00  0.00    +0.000 C 
ENDBRANCH   4  12
TORSDOF 1
ENDMDL
MODEL 2
REMARK VINA RESULT:      -5.9     29.707     30.788
REMARK  Name = 5386_Tegafur.pdbqt.pdb
REMARK  1 active torsions:
REMARK  status: ('A' for Active; 'I' for Inactive)
REMARK    1  A    between atoms: N_4  and  C_12
REMARK                            x       y       z     vdW  Elec       q    Type
REMARK                         _______ _______ _______ _____ _____    ______ ____
ROOT
ATOM      1  F   UNL     1     146.909 128.147 101.661  0.00  0.00    +0.000 F 
ATOM      2  O   UNL     1     143.636 125.447 105.052  0.00  0.00    +0.000 OA
ATOM      3  O   UNL     1     147.802 127.156 104.155  0.00  0.00    +0.000 OA
ATOM      4  N   UNL     1     143.891 126.795 103.124  0.00  0.00    +0.000 N 
ATOM      5  N   UNL     1     145.675 126.394 104.600  0.00  0.00    +0.000 N 
ATOM      6  C   UNL     1     144.311 126.153 104.311  0.00  0.00    +0.000 C 
ATOM      7  C   UNL     1     144.812 127.517 102.454  0.00  0.00    +0.000 C 
ATOM      8  C   UNL     1     146.058 127.794 102.638  0.00  0.00    +0.000 C 
ATOM      9  C   UNL     1     146.617 127.111 103.849  0.00  0.00    +0.000 C 
ATOM     10  H   UNL     1     146.032 125.924 105.419  0.00  0.00    +0.000 HD
ENDROOT
BRANCH   4  12
ATOM     11  O   UNL     1     141.532 127.359 103.226  0.00  0.00    +0.000 OA
ATOM     12  C   UNL     1     142.622 126.717 102.627  0.00  0.00    +0.000 C 
ATOM     13  C   UNL     1     142.151 126.016 101.484  0.00  0.00    +0.000 C 
ATOM     14  C   UNL     1     140.679 126.030 101.068  0.00  0.00    +0.000 C 
ATOM     15  C   UNL     1     140.657 126.906 102.319  0.00  0.00    +0.000 C 
ENDBRANCH   4  12
TORSDOF 1
ENDMDL
MODEL 3
REMARK VINA RESULT:      -5.7      2.365      2.566
REMARK  Name = 5386_Tegafur.pdbqt.pdb
REMARK  1 active torsions:
REMARK  status: ('A' for Active; 'I' for Inactive)
REMARK    1  A    between atoms: N_4  and  C_12
REMARK                            x       y       z     vdW  Elec       q    Type
REMARK                         _______ _______ _______ _____ _____    ______ ____
ROOT
ATOM      1  F   UNL     1     136.903 122.454 134.655  0.00  0.00    +0.000 F 
ATOM      2  O   UNL     1     141.390 124.297 132.211  0.00  0.00    +0.000 OA
ATOM      3  O   UNL     1     137.138 122.606 131.840  0.00  0.00    +0.000 OA
ATOM      4  N   UNL     1     140.127 124.028 134.193  0.00  0.00    +0.000 N 
ATOM      5  N   UNL     1     139.231 123.534 132.077  0.00  0.00    +0.000 N 
ATOM      6  C   UNL     1     140.359 123.992 132.798  0.00  0.00    +0.000 C 
ATOM      7  C   UNL     1     138.912 123.633 134.626  0.00  0.00    +0.000 C 
ATOM      8  C   UNL     1     137.837 123.209 134.053  0.00  0.00    +0.000 C 
ATOM      9  C   UNL     1     138.000 123.081 132.569  0.00  0.00    +0.000 C 
ATOM     10  H   UNL     1     139.363 123.454 131.079  0.00  0.00    +0.000 HD
ENDROOT
BRANCH   4  12
ATOM     11  O   UNL     1     142.247 123.731 135.337  0.00  0.00    +0.000 OA
ATOM     12  C   UNL     1     141.056 124.431 135.107  0.00  0.00    +0.000 C 
ATOM     13  C   UNL     1     141.029 125.557 135.973  0.00  0.00    +0.000 C 
ATOM     14  C   UNL     1     142.164 125.861 136.953  0.00  0.00    +0.000 C 
ATOM     15  C   UNL     1     142.666 124.584 136.281  0.00  0.00    +0.000 C 
ENDBRANCH   4  12
TORSDOF 1
ENDMDL
MODEL 4
REMARK VINA RESULT:      -5.5     31.015     31.887
REMARK  Name = 5386_Tegafur.pdbqt.pdb
REMARK  1 active torsions:
REMARK  status: ('A' for Active; 'I' for Inactive)
REMARK    1  A    between atoms: N_4  and  C_12
REMARK                            x       y       z     vdW  Elec       q    Type
REMARK                         _______ _______ _______ _____ _____    ______ ____
ROOT
ATOM      1  F   UNL     1     139.700 125.743 100.986  0.00  0.00    +0.000 F 
ATOM      2  O   UNL     1     144.605 123.425 100.713  0.00  0.00    +0.000 OA
ATOM      3  O   UNL     1     140.239 123.538  99.298  0.00  0.00    +0.000 OA
ATOM      4  N   UNL     1     143.253 125.229 101.431  0.00  0.00    +0.000 N 
ATOM      5  N   UNL     1     142.440 123.577  99.971  0.00  0.00    +0.000 N 
ATOM      6  C   UNL     1     143.546 124.042 100.721  0.00  0.00    +0.000 C 
ATOM      7  C   UNL     1     142.008 125.732 101.303  0.00  0.00    +0.000 C 
ATOM      8  C   UNL     1     140.951 125.386 100.651  0.00  0.00    +0.000 C 
ATOM      9  C   UNL     1     141.142 124.100  99.905  0.00  0.00    +0.000 C 
ATOM     10  H   UNL     1     142.590 122.709  99.477  0.00  0.00    +0.000 HD
ENDROOT
BRANCH   4  12
ATOM     11  O   UNL     1     145.241 126.591 101.721  0.00  0.00    +0.000 OA
ATOM     12  C   UNL     1     144.149 125.878 102.230  0.00  0.00    +0.000 C 
ATOM     13  C   UNL     1     144.184 125.964 103.648  0.00  0.00    +0.000 C 
ATOM     14  C   UNL     1     145.276 126.735 104.391  0.00  0.00    +0.000 C 
ATOM     15  C   UNL     1     145.684 126.945 102.934  0.00  0.00    +0.000 C 
ENDBRANCH   4  12
TORSDOF 1
ENDMDL
MODEL 5
REMARK VINA RESULT:      -5.4     31.623     32.554
REMARK  Name = 5386_Tegafur.pdbqt.pdb
REMARK  1 active torsions:
REMARK  status: ('A' for Active; 'I' for Inactive)
REMARK    1  A    between atoms: N_4  and  C_12
REMARK                            x       y       z     vdW  Elec       q    Type
REMARK                         _______ _______ _______ _____ _____    ______ ____
ROOT
ATOM      1  F   UNL     1     143.101 128.349 103.121  0.00  0.00    +0.000 F 
ATOM      2  O   UNL     1     146.693 124.659 101.393  0.00  0.00    +0.000 OA
ATOM      3  O   UNL     1     143.256 125.752 104.234  0.00  0.00    +0.000 OA
ATOM      4  N   UNL     1     145.605 126.734 101.070  0.00  0.00    +0.000 N 
ATOM      5  N   UNL     1     144.916 125.221 102.730  0.00  0.00    +0.000 N 
ATOM      6  C   UNL     1     145.828 125.478 101.680  0.00  0.00    +0.000 C 
ATOM      7  C   UNL     1     144.597 127.486 101.558  0.00  0.00    +0.000 C 
ATOM      8  C   UNL     1     143.724 127.337 102.495  0.00  0.00    +0.000 C 
ATOM      9  C   UNL     1     143.912 126.052 103.244  0.00  0.00    +0.000 C 
ATOM     10  H   UNL     1     145.062 124.350 103.222  0.00  0.00    +0.000 HD
ENDROOT
BRANCH   4  12
ATOM     11  O   UNL     1     146.324 126.656  98.753  0.00  0.00    +0.000 OA
ATOM     12  C   UNL     1     146.350 127.219 100.034  0.00  0.00    +0.000 C 
ATOM     13  C   UNL     1     147.257 128.313 100.021  0.00  0.00    +0.000 C 
ATOM     14  C   UNL     1     148.023 128.722  98.761  0.00  0.00    +0.000 C 
ATOM     15  C   UNL     1     147.212 127.529  98.259  0.00  0.00    +0.000 C 
ENDBRANCH   4  12
TORSDOF 1
ENDMDL
MODEL 6
REMARK VINA RESULT:      -5.3     31.385     32.488
REMARK  Name = 5386_Tegafur.pdbqt.pdb
REMARK  1 active torsions:
REMARK  status: ('A' for Active; 'I' for Inactive)
REMARK    1  A    between atoms: N_4  and  C_12
REMARK                            x       y       z     vdW  Elec       q    Type
REMARK                         _______ _______ _______ _____ _____    ______ ____
ROOT
ATOM      1  F   UNL     1     142.567 127.876 103.050  0.00  0.00    +0.000 F 
ATOM      2  O   UNL     1     144.479 123.284 100.869  0.00  0.00    +0.000 OA
ATOM      3  O   UNL     1     144.712 126.435 104.201  0.00  0.00    +0.000 OA
ATOM      4  N   UNL     1     142.795 124.943 100.946  0.00  0.00    +0.000 N 
ATOM      5  N   UNL     1     144.499 124.833 102.560  0.00  0.00    +0.000 N 
ATOM      6  C   UNL     1     143.950 124.260 101.389  0.00  0.00    +0.000 C 
ATOM      7  C   UNL     1     142.393 126.009 101.669  0.00  0.00    +0.000 C 
ATOM      8  C   UNL     1     142.820 126.596 102.735  0.00  0.00    +0.000 C 
ATOM      9  C   UNL     1     144.082 125.976 103.256  0.00  0.00    +0.000 C 
ATOM     10  H   UNL     1     145.350 124.402 102.893  0.00  0.00    +0.000 HD
ENDROOT
BRANCH   4  12
ATOM     11  O   UNL     1     141.016 123.680  99.881  0.00  0.00    +0.000 OA
ATOM     12  C   UNL     1     142.080 124.589  99.839  0.00  0.00    +0.000 C 
ATOM     13  C   UNL     1     142.243 125.019  98.494  0.00  0.00    +0.000 C 
ATOM     14  C   UNL     1     141.350 124.511  97.361  0.00  0.00    +0.000 C 
ATOM     15  C   UNL     1     140.778 123.766  98.566  0.00  0.00    +0.000 C 
ENDBRANCH   4  12
TORSDOF 1
ENDMDL
MODEL 7
REMARK VINA RESULT:      -5.2     30.483     31.642
REMARK  Name = 5386_Tegafur.pdbqt.pdb
REMARK  1 active torsions:
REMARK  status: ('A' for Active; 'I' for Inactive)
REMARK    1  A    between atoms: N_4  and  C_12
REMARK                            x       y       z     vdW  Elec       q    Type
REMARK                         _______ _______ _______ _____ _____    ______ ____
ROOT
ATOM      1  F   UNL     1     148.053 125.742 101.839  0.00  0.00    +0.000 F 
ATOM      2  O   UNL     1     143.181 125.943 104.232  0.00  0.00    +0.000 OA
ATOM      3  O   UNL     1     147.714 126.625 104.505  0.00  0.00    +0.000 OA
ATOM      4  N   UNL     1     144.461 125.696 102.257  0.00  0.00    +0.000 N 
ATOM      5  N   UNL     1     145.437 126.352 104.292  0.00  0.00    +0.000 N 
ATOM      6  C   UNL     1     144.245 125.987 103.624  0.00  0.00    +0.000 C 
ATOM      7  C   UNL     1     145.725 125.798 101.798  0.00  0.00    +0.000 C 
ATOM      8  C   UNL     1     146.858 126.121 102.322  0.00  0.00    +0.000 C 
ATOM      9  C   UNL     1     146.745 126.396 103.790  0.00  0.00    +0.000 C 
ATOM     10  H   UNL     1     145.339 126.531 105.281  0.00  0.00    +0.000 HD
ENDROOT
BRANCH   4  12
ATOM     11  O   UNL     1     142.340 126.104 101.149  0.00  0.00    +0.000 OA
ATOM     12  C   UNL     1     143.473 125.319 101.395  0.00  0.00    +0.000 C 
ATOM     13  C   UNL     1     143.369 124.133 100.619  0.00  0.00    +0.000 C 
ATOM     14  C   UNL     1     142.177 123.862  99.699  0.00  0.00    +0.000 C 
ATOM     15  C   UNL     1     141.813 125.225 100.286  0.00  0.00    +0.000 C 
ENDBRANCH   4  12
TORSDOF 1
ENDMDL
MODEL 8
REMARK VINA RESULT:      -5.2      2.761      5.714
REMARK  Name = 5386_Tegafur.pdbqt.pdb
REMARK  1 active torsions:
REMARK  status: ('A' for Active; 'I' for Inactive)
REMARK    1  A    between atoms: N_4  and  C_12
REMARK                            x       y       z     vdW  Elec       q    Type
REMARK                         _______ _______ _______ _____ _____    ______ ____
ROOT
ATOM      1  F   UNL     1     138.752 126.001 131.892  0.00  0.00    +0.000 F 
ATOM      2  O   UNL     1     138.178 122.083 135.610  0.00  0.00    +0.000 OA
ATOM      3  O   UNL     1     140.561 125.681 134.043  0.00  0.00    +0.000 OA
ATOM      4  N   UNL     1     137.267 123.318 133.809  0.00  0.00    +0.000 N 
ATOM      5  N   UNL     1     139.285 123.938 134.841  0.00  0.00    +0.000 N 
ATOM      6  C   UNL     1     138.211 123.017 134.818  0.00  0.00    +0.000 C 
ATOM      7  C   UNL     1     137.511 124.396 133.037  0.00  0.00    +0.000 C 
ATOM      8  C   UNL     1     138.446 125.283 132.985  0.00  0.00    +0.000 C 
ATOM      9  C   UNL     1     139.532 125.019 133.984  0.00  0.00    +0.000 C 
ATOM     10  H   UNL     1     140.006 123.741 135.520  0.00  0.00    +0.000 HD
ENDROOT
BRANCH   4  12
ATOM     11  O   UNL     1     135.117 122.445 134.524  0.00  0.00    +0.000 OA
ATOM     12  C   UNL     1     136.141 122.581 133.579  0.00  0.00    +0.000 C 
ATOM     13  C   UNL     1     135.782 121.835 132.424  0.00  0.00    +0.000 C 
ATOM     14  C   UNL     1     134.471 121.052 132.334  0.00  0.00    +0.000 C 
ATOM     15  C   UNL     1     134.377 121.656 133.734  0.00  0.00    +0.000 C 
ENDBRANCH   4  12
TORSDOF 1
ENDMDL
MODEL 9
REMARK VINA RESULT:      -5.1     32.274     33.162
REMARK  Name = 5386_Tegafur.pdbqt.pdb
REMARK  1 active torsions:
REMARK  status: ('A' for Active; 'I' for Inactive)
REMARK    1  A    between atoms: N_4  and  C_12
REMARK                            x       y       z     vdW  Elec       q    Type
REMARK                         _______ _______ _______ _____ _____    ______ ____
ROOT
ATOM      1  F   UNL     1     140.893 123.992  97.307  0.00  0.00    +0.000 F 
ATOM      2  O   UNL     1     144.260 123.583 101.550  0.00  0.00    +0.000 OA
ATOM      3  O   UNL     1     142.764 121.884  97.555  0.00  0.00    +0.000 OA
ATOM      4  N   UNL     1     142.712 124.870 100.307  0.00  0.00    +0.000 N 
ATOM      5  N   UNL     1     143.542 122.822  99.509  0.00  0.00    +0.000 N 
ATOM      6  C   UNL     1     143.563 123.769 100.559  0.00  0.00    +0.000 C 
ATOM      7  C   UNL     1     142.022 124.864  99.148  0.00  0.00    +0.000 C 
ATOM      8  C   UNL     1     141.941 124.059  98.144  0.00  0.00    +0.000 C 
ATOM      9  C   UNL     1     142.769 122.825  98.340  0.00  0.00    +0.000 C 
ATOM     10  H   UNL     1     144.105 121.997  99.662  0.00  0.00    +0.000 HD
ENDROOT
BRANCH   4  12
ATOM     11  O   UNL     1     141.364 126.150 101.868  0.00  0.00    +0.000 OA
ATOM     12  C   UNL     1     142.553 125.919 101.166  0.00  0.00    +0.000 C 
ATOM     13  C   UNL     1     143.478 126.941 101.511  0.00  0.00    +0.000 C 
ATOM     14  C   UNL     1     143.130 128.058 102.496  0.00  0.00    +0.000 C 
ATOM     15  C   UNL     1     141.834 127.248 102.473  0.00  0.00    +0.000 C 
ENDBRANCH   4  12
TORSDOF 1
ENDMDL
