MODEL 1
REMARK VINA RESULT:      -6.4      0.000      0.000
REMARK  Name = 5470187_Zerumbone.pdbqt.pdb
REMARK  0 active torsions:
REMARK  status: ('A' for Active; 'I' for Inactive)
REMARK                            x       y       z     vdW  Elec       q    Type
REMARK                         _______ _______ _______ _____ _____    ______ ____
ROOT
ATOM      1  O   UNL     1     142.921 124.983 105.545  0.00  0.00    +0.000 OA
ATOM      2  C   UNL     1     142.812 126.380 100.864  0.00  0.00    +0.000 C 
ATOM      3  C   UNL     1     144.020 127.089 100.379  0.00  0.00    +0.000 C 
ATOM      4  C   UNL     1     142.598 125.081 100.050  0.00  0.00    +0.000 C 
ATOM      5  C   UNL     1     141.581 127.313 100.746  0.00  0.00    +0.000 C 
ATOM      6  C   UNL     1     143.063 126.048 102.303  0.00  0.00    +0.000 C 
ATOM      7  C   UNL     1     145.403 127.759 100.281  0.00  0.00    +0.000 C 
ATOM      8  C   UNL     1     146.581 128.194 100.617  0.00  0.00    +0.000 C 
ATOM      9  C   UNL     1     146.852 127.934 101.984  0.00  0.00    +0.000 C 
ATOM     10  C   UNL     1     146.593 127.397 103.394  0.00  0.00    +0.000 C 
ATOM     11  C   UNL     1     143.346 125.826 103.455  0.00  0.00    +0.000 C 
ATOM     12  C   UNL     1     147.691 128.213  99.619  0.00  0.00    +0.000 C 
ATOM     13  C   UNL     1     145.865 126.700 104.546  0.00  0.00    +0.000 C 
ATOM     14  C   UNL     1     145.065 126.069 105.356  0.00  0.00    +0.000 C 
ATOM     15  C   UNL     1     143.731 125.584 104.847  0.00  0.00    +0.000 C 
ATOM     16  C   UNL     1     145.537 125.877 106.777  0.00  0.00    +0.000 C 
ENDROOT
TORSDOF 0
ENDMDL
MODEL 2
REMARK VINA RESULT:      -5.9      4.643      6.434
REMARK  Name = 5470187_Zerumbone.pdbqt.pdb
REMARK  0 active torsions:
REMARK  status: ('A' for Active; 'I' for Inactive)
REMARK                            x       y       z     vdW  Elec       q    Type
REMARK                         _______ _______ _______ _____ _____    ______ ____
ROOT
ATOM      1  O   UNL     1     142.152 128.371 101.574  0.00  0.00    +0.000 OA
ATOM      2  C   UNL     1     141.986 124.340  98.819  0.00  0.00    +0.000 C 
ATOM      3  C   UNL     1     141.764 124.563  97.371  0.00  0.00    +0.000 C 
ATOM      4  C   UNL     1     143.342 123.629  99.045  0.00  0.00    +0.000 C 
ATOM      5  C   UNL     1     140.820 123.499  99.398  0.00  0.00    +0.000 C 
ATOM      6  C   UNL     1     142.003 125.694  99.460  0.00  0.00    +0.000 C 
ATOM      7  C   UNL     1     141.529 125.206  95.992  0.00  0.00    +0.000 C 
ATOM      8  C   UNL     1     141.351 126.111  95.076  0.00  0.00    +0.000 C 
ATOM      9  C   UNL     1     141.325 127.412  95.639  0.00  0.00    +0.000 C 
ATOM     10  C   UNL     1     141.406 128.471  96.740  0.00  0.00    +0.000 C 
ATOM     11  C   UNL     1     141.998 126.820  99.893  0.00  0.00    +0.000 C 
ATOM     12  C   UNL     1     141.874 125.899  93.694  0.00  0.00    +0.000 C 
ATOM     13  C   UNL     1     141.577 129.068  98.140  0.00  0.00    +0.000 C 
ATOM     14  C   UNL     1     141.752 129.335  99.402  0.00  0.00    +0.000 C 
ATOM     15  C   UNL     1     141.979 128.203 100.373  0.00  0.00    +0.000 C 
ATOM     16  C   UNL     1     141.702 130.788  99.809  0.00  0.00    +0.000 C 
ENDROOT
TORSDOF 0
ENDMDL
MODEL 3
REMARK VINA RESULT:      -5.7      4.258      7.282
REMARK  Name = 5470187_Zerumbone.pdbqt.pdb
REMARK  0 active torsions:
REMARK  status: ('A' for Active; 'I' for Inactive)
REMARK                            x       y       z     vdW  Elec       q    Type
REMARK                         _______ _______ _______ _____ _____    ______ ____
ROOT
ATOM      1  O   UNL     1     143.229 128.703  98.961  0.00  0.00    +0.000 OA
ATOM      2  C   UNL     1     144.562 124.052  99.643  0.00  0.00    +0.000 C 
ATOM      3  C   UNL     1     144.008 123.079  98.671  0.00  0.00    +0.000 C 
ATOM      4  C   UNL     1     146.108 124.050  99.572  0.00  0.00    +0.000 C 
ATOM      5  C   UNL     1     144.076 123.694 101.070  0.00  0.00    +0.000 C 
ATOM      6  C   UNL     1     144.031 125.396  99.247  0.00  0.00    +0.000 C 
ATOM      7  C   UNL     1     143.251 122.423  97.503  0.00  0.00    +0.000 C 
ATOM      8  C   UNL     1     142.497 122.288  96.453  0.00  0.00    +0.000 C 
ATOM      9  C   UNL     1     141.941 123.531  96.058  0.00  0.00    +0.000 C 
ATOM     10  C   UNL     1     141.690 125.040  96.106  0.00  0.00    +0.000 C 
ATOM     11  C   UNL     1     143.555 126.436  98.861  0.00  0.00    +0.000 C 
ATOM     12  C   UNL     1     142.804 121.243  95.432  0.00  0.00    +0.000 C 
ATOM     13  C   UNL     1     141.793 126.492  96.583  0.00  0.00    +0.000 C 
ATOM     14  C   UNL     1     142.035 127.631  97.163  0.00  0.00    +0.000 C 
ATOM     15  C   UNL     1     142.951 127.672  98.360  0.00  0.00    +0.000 C 
ATOM     16  C   UNL     1     141.357 128.852  96.588  0.00  0.00    +0.000 C 
ENDROOT
TORSDOF 0
ENDMDL
MODEL 4
REMARK VINA RESULT:      -5.6      2.818      5.301
REMARK  Name = 5470187_Zerumbone.pdbqt.pdb
REMARK  0 active torsions:
REMARK  status: ('A' for Active; 'I' for Inactive)
REMARK                            x       y       z     vdW  Elec       q    Type
REMARK                         _______ _______ _______ _____ _____    ______ ____
ROOT
ATOM      1  O   UNL     1     143.212 125.106  97.152  0.00  0.00    +0.000 OA
ATOM      2  C   UNL     1     146.824 128.044  98.633  0.00  0.00    +0.000 C 
ATOM      3  C   UNL     1     147.004 128.147 100.101  0.00  0.00    +0.000 C 
ATOM      4  C   UNL     1     148.109 127.480  97.981  0.00  0.00    +0.000 C 
ATOM      5  C   UNL     1     146.478 129.438  98.054  0.00  0.00    +0.000 C 
ATOM      6  C   UNL     1     145.680 127.103  98.411  0.00  0.00    +0.000 C 
ATOM      7  C   UNL     1     146.859 127.981 101.625  0.00  0.00    +0.000 C 
ATOM      8  C   UNL     1     146.416 127.573 102.777  0.00  0.00    +0.000 C 
ATOM      9  C   UNL     1     145.306 126.703 102.620  0.00  0.00    +0.000 C 
ATOM     10  C   UNL     1     144.257 125.881 101.869  0.00  0.00    +0.000 C 
ATOM     11  C   UNL     1     144.748 126.340  98.324  0.00  0.00    +0.000 C 
ATOM     12  C   UNL     1     147.352 127.399 103.927  0.00  0.00    +0.000 C 
ATOM     13  C   UNL     1     143.490 125.279 100.688  0.00  0.00    +0.000 C 
ATOM     14  C   UNL     1     143.000 124.899  99.544  0.00  0.00    +0.000 C 
ATOM     15  C   UNL     1     143.614 125.416  98.268  0.00  0.00    +0.000 C 
ATOM     16  C   UNL     1     141.821 123.956  99.582  0.00  0.00    +0.000 C 
ENDROOT
TORSDOF 0
ENDMDL
MODEL 5
REMARK VINA RESULT:      -5.3      5.364      8.287
REMARK  Name = 5470187_Zerumbone.pdbqt.pdb
REMARK  0 active torsions:
REMARK  status: ('A' for Active; 'I' for Inactive)
REMARK                            x       y       z     vdW  Elec       q    Type
REMARK                         _______ _______ _______ _____ _____    ______ ____
ROOT
ATOM      1  O   UNL     1     141.119 126.352  92.990  0.00  0.00    +0.000 OA
ATOM      2  C   UNL     1     141.587 124.107  97.305  0.00  0.00    +0.000 C 
ATOM      3  C   UNL     1     141.779 125.000  98.473  0.00  0.00    +0.000 C 
ATOM      4  C   UNL     1     140.293 123.276  97.481  0.00  0.00    +0.000 C 
ATOM      5  C   UNL     1     142.819 123.182  97.151  0.00  0.00    +0.000 C 
ATOM      6  C   UNL     1     141.466 124.998  96.106  0.00  0.00    +0.000 C 
ATOM      7  C   UNL     1     141.953 126.229  99.383  0.00  0.00    +0.000 C 
ATOM      8  C   UNL     1     142.052 127.468  99.763  0.00  0.00    +0.000 C 
ATOM      9  C   UNL     1     141.979 128.352  98.656  0.00  0.00    +0.000 C 
ATOM     10  C   UNL     1     141.821 128.762  97.190  0.00  0.00    +0.000 C 
ATOM     11  C   UNL     1     141.385 125.787  95.197  0.00  0.00    +0.000 C 
ATOM     12  C   UNL     1     141.538 127.891 101.099  0.00  0.00    +0.000 C 
ATOM     13  C   UNL     1     141.613 128.617  95.680  0.00  0.00    +0.000 C 
ATOM     14  C   UNL     1     141.426 128.249  94.446  0.00  0.00    +0.000 C 
ATOM     15  C   UNL     1     141.297 126.781  94.125  0.00  0.00    +0.000 C 
ATOM     16  C   UNL     1     141.363 129.340  93.405  0.00  0.00    +0.000 C 
ENDROOT
TORSDOF 0
ENDMDL
MODEL 6
REMARK VINA RESULT:      -5.2     15.110     17.070
REMARK  Name = 5470187_Zerumbone.pdbqt.pdb
REMARK  0 active torsions:
REMARK  status: ('A' for Active; 'I' for Inactive)
REMARK                            x       y       z     vdW  Elec       q    Type
REMARK                         _______ _______ _______ _____ _____    ______ ____
ROOT
ATOM      1  O   UNL     1     156.129 126.662 111.378  0.00  0.00    +0.000 OA
ATOM      2  C   UNL     1     154.413 126.340 115.941  0.00  0.00    +0.000 C 
ATOM      3  C   UNL     1     154.418 124.981 116.532  0.00  0.00    +0.000 C 
ATOM      4  C   UNL     1     155.300 127.288 116.784  0.00  0.00    +0.000 C 
ATOM      5  C   UNL     1     152.959 126.868 115.867  0.00  0.00    +0.000 C 
ATOM      6  C   UNL     1     154.976 126.204 114.559  0.00  0.00    +0.000 C 
ATOM      7  C   UNL     1     154.589 123.469 116.763  0.00  0.00    +0.000 C 
ATOM      8  C   UNL     1     154.893 122.223 116.550  0.00  0.00    +0.000 C 
ATOM      9  C   UNL     1     155.399 122.036 115.238  0.00  0.00    +0.000 C 
ATOM     10  C   UNL     1     155.856 122.440 113.835  0.00  0.00    +0.000 C 
ATOM     11  C   UNL     1     155.433 126.003 113.461  0.00  0.00    +0.000 C 
ATOM     12  C   UNL     1     155.369 121.359 117.670  0.00  0.00    +0.000 C 
ATOM     13  C   UNL     1     156.169 123.343 112.638  0.00  0.00    +0.000 C 
ATOM     14  C   UNL     1     156.351 124.294 111.769  0.00  0.00    +0.000 C 
ATOM     15  C   UNL     1     155.988 125.711 112.138  0.00  0.00    +0.000 C 
ATOM     16  C   UNL     1     156.914 123.899 110.425  0.00  0.00    +0.000 C 
ENDROOT
TORSDOF 0
ENDMDL
MODEL 7
REMARK VINA RESULT:      -5.1      5.693      8.424
REMARK  Name = 5470187_Zerumbone.pdbqt.pdb
REMARK  0 active torsions:
REMARK  status: ('A' for Active; 'I' for Inactive)
REMARK                            x       y       z     vdW  Elec       q    Type
REMARK                         _______ _______ _______ _____ _____    ______ ____
ROOT
ATOM      1  O   UNL     1     138.670 129.267  95.631  0.00  0.00    +0.000 OA
ATOM      2  C   UNL     1     142.533 128.810  98.587  0.00  0.00    +0.000 C 
ATOM      3  C   UNL     1     143.792 128.383  97.933  0.00  0.00    +0.000 C 
ATOM      4  C   UNL     1     142.720 130.200  99.240  0.00  0.00    +0.000 C 
ATOM      5  C   UNL     1     142.114 127.757  99.644  0.00  0.00    +0.000 C 
ATOM      6  C   UNL     1     141.498 128.885  97.507  0.00  0.00    +0.000 C 
ATOM      7  C   UNL     1     144.849 127.941  96.905  0.00  0.00    +0.000 C 
ATOM      8  C   UNL     1     145.396 127.615  95.771  0.00  0.00    +0.000 C 
ATOM      9  C   UNL     1     144.445 127.638  94.719  0.00  0.00    +0.000 C 
ATOM     10  C   UNL     1     143.081 127.849  94.059  0.00  0.00    +0.000 C 
ATOM     11  C   UNL     1     140.728 128.914  96.578  0.00  0.00    +0.000 C 
ATOM     12  C   UNL     1     146.826 127.945  95.500  0.00  0.00    +0.000 C 
ATOM     13  C   UNL     1     141.596 128.200  93.926  0.00  0.00    +0.000 C 
ATOM     14  C   UNL     1     140.348 128.544  94.059  0.00  0.00    +0.000 C 
ATOM     15  C   UNL     1     139.830 128.931  95.421  0.00  0.00    +0.000 C 
ATOM     16  C   UNL     1     139.492 128.518  92.816  0.00  0.00    +0.000 C 
ENDROOT
TORSDOF 0
ENDMDL
MODEL 8
REMARK VINA RESULT:      -5.1      4.033      6.167
REMARK  Name = 5470187_Zerumbone.pdbqt.pdb
REMARK  0 active torsions:
REMARK  status: ('A' for Active; 'I' for Inactive)
REMARK                            x       y       z     vdW  Elec       q    Type
REMARK                         _______ _______ _______ _____ _____    ______ ____
ROOT
ATOM      1  O   UNL     1     141.128 127.187  96.188  0.00  0.00    +0.000 OA
ATOM      2  C   UNL     1     144.503 123.773  97.097  0.00  0.00    +0.000 C 
ATOM      3  C   UNL     1     145.458 124.092  98.185  0.00  0.00    +0.000 C 
ATOM      4  C   UNL     1     143.710 122.491  97.445  0.00  0.00    +0.000 C 
ATOM      5  C   UNL     1     145.274 123.599  95.765  0.00  0.00    +0.000 C 
ATOM      6  C   UNL     1     143.571 124.942  96.995  0.00  0.00    +0.000 C 
ATOM      7  C   UNL     1     146.216 124.782  99.333  0.00  0.00    +0.000 C 
ATOM      8  C   UNL     1     146.550 125.669 100.223  0.00  0.00    +0.000 C 
ATOM      9  C   UNL     1     145.715 126.813 100.144  0.00  0.00    +0.000 C 
ATOM     10  C   UNL     1     144.570 127.688  99.628  0.00  0.00    +0.000 C 
ATOM     11  C   UNL     1     142.870 125.924  96.979  0.00  0.00    +0.000 C 
ATOM     12  C   UNL     1     147.121 125.244 101.535  0.00  0.00    +0.000 C 
ATOM     13  C   UNL     1     143.361 128.111  98.789  0.00  0.00    +0.000 C 
ATOM     14  C   UNL     1     142.362 128.247  97.967  0.00  0.00    +0.000 C 
ATOM     15  C   UNL     1     142.050 127.137  96.994  0.00  0.00    +0.000 C 
ATOM     16  C   UNL     1     141.581 129.536  98.042  0.00  0.00    +0.000 C 
ENDROOT
TORSDOF 0
ENDMDL
MODEL 9
REMARK VINA RESULT:      -5.1     23.066     24.162
REMARK  Name = 5470187_Zerumbone.pdbqt.pdb
REMARK  0 active torsions:
REMARK  status: ('A' for Active; 'I' for Inactive)
REMARK                            x       y       z     vdW  Elec       q    Type
REMARK                         _______ _______ _______ _____ _____    ______ ____
ROOT
ATOM      1  O   UNL     1     149.888 132.126 125.567  0.00  0.00    +0.000 OA
ATOM      2  C   UNL     1     154.412 131.258 123.937  0.00  0.00    +0.000 C 
ATOM      3  C   UNL     1     155.091 132.407 123.291  0.00  0.00    +0.000 C 
ATOM      4  C   UNL     1     155.216 130.797 125.176  0.00  0.00    +0.000 C 
ATOM      5  C   UNL     1     154.262 130.103 122.916  0.00  0.00    +0.000 C 
ATOM      6  C   UNL     1     153.058 131.746 124.356  0.00  0.00    +0.000 C 
ATOM      7  C   UNL     1     155.424 133.794 122.714  0.00  0.00    +0.000 C 
ATOM      8  C   UNL     1     155.301 135.044 122.379  0.00  0.00    +0.000 C 
ATOM      9  C   UNL     1     154.020 135.544 122.724  0.00  0.00    +0.000 C 
ATOM     10  C   UNL     1     152.607 135.510 123.310  0.00  0.00    +0.000 C 
ATOM     11  C   UNL     1     151.989 132.219 124.653  0.00  0.00    +0.000 C 
ATOM     12  C   UNL     1     156.489 135.948 122.388  0.00  0.00    +0.000 C 
ATOM     13  C   UNL     1     151.363 134.956 124.011  0.00  0.00    +0.000 C 
ATOM     14  C   UNL     1     150.439 134.274 124.624  0.00  0.00    +0.000 C 
ATOM     15  C   UNL     1     150.704 132.835 124.990  0.00  0.00    +0.000 C 
ATOM     16  C   UNL     1     149.141 134.986 124.918  0.00  0.00    +0.000 C 
ENDROOT
TORSDOF 0
ENDMDL
