MODEL 1
REMARK VINA RESULT:      -5.9      0.000      0.000
REMARK  Name = 5azacytidine.pdbqt.pdb
REMARK  5 active torsions:
REMARK  status: ('A' for Active; 'I' for Inactive)
REMARK    1  A    between atoms: C2*_2  and  O2*_16
REMARK    2  A    between atoms: C3*_3  and  O3*_21
REMARK    3  A    between atoms: C4*_4  and  C5*_18
REMARK    4  A    between atoms: C1*_5  and  N_6
REMARK    5  A    between atoms: C5*_18  and  O5*_19
REMARK                            x       y       z     vdW  Elec       q    Type
REMARK                         _______ _______ _______ _____ _____    ______ ____
ROOT
ATOM      1  O4* UNL     1     138.238 123.530 135.141  0.00  0.00    +0.000 OA
ATOM      2  C2* UNL     1     139.160 123.733 133.037  0.00  0.00    +0.000 A 
ATOM      3  C3* UNL     1     137.787 123.353 132.894  0.00  0.00    +0.000 A 
ATOM      4  C4* UNL     1     137.226 123.242 134.210  0.00  0.00    +0.000 A 
ATOM      5  C1* UNL     1     139.435 123.818 134.451  0.00  0.00    +0.000 A 
ENDROOT
BRANCH   5   6
ATOM      6  N   UNL     1     140.594 124.071 135.121  0.00  0.00    +0.000 N 
ATOM      7  C   UNL     1     141.765 123.323 135.092  0.00  0.00    +0.000 A 
ATOM      8  O   UNL     1     141.890 122.280 134.454  0.00  0.00    +0.000 OA
ATOM      9  N   UNL     1     142.807 123.831 135.863  0.00  0.00    +0.000 NA
ATOM     10  C   UNL     1     142.649 124.933 136.552  0.00  0.00    +0.000 A 
ATOM     11  N   UNL     1     141.470 125.657 136.601  0.00  0.00    +0.000 NA
ATOM     12  C   UNL     1     140.687 125.140 135.909  0.00  0.00    +0.000 A 
ATOM     13  N   UNL     1     143.694 125.392 137.286  0.00  0.00    +0.000 N 
ATOM     14  H   UNL     1     143.430 125.963 138.078  0.00  0.00    +0.000 HD
ATOM     15  H   UNL     1     144.392 124.685 137.483  0.00  0.00    +0.000 HD
ENDBRANCH   5   6
BRANCH   2  16
ATOM     16  O2* UNL     1     140.067 123.368 132.081  0.00  0.00    +0.000 OA
ATOM     17  H2* UNL     1     140.262 122.406 132.107  0.00  0.00    +0.000 HD
ENDBRANCH   2  16
BRANCH   3  18
ATOM     18  O3* UNL     1     137.378 122.563 131.855  0.00  0.00    +0.000 OA
ATOM     19  H3* UNL     1     137.264 121.645 132.163  0.00  0.00    +0.000 HD
ENDBRANCH   3  18
BRANCH   4  20
ATOM     20  C5* UNL     1     136.009 122.638 134.578  0.00  0.00    +0.000 C 
BRANCH  20  21
ATOM     21  O5* UNL     1     134.862 122.059 134.921  0.00  0.00    +0.000 OA
ATOM     22  H5* UNL     1     134.507 122.475 135.726  0.00  0.00    +0.000 HD
ENDBRANCH  20  21
ENDBRANCH   4  20
TORSDOF 5
ENDMDL
MODEL 2
REMARK VINA RESULT:      -5.8      1.912      2.901
REMARK  Name = 5azacytidine.pdbqt.pdb
REMARK  5 active torsions:
REMARK  status: ('A' for Active; 'I' for Inactive)
REMARK    1  A    between atoms: C2*_2  and  O2*_16
REMARK    2  A    between atoms: C3*_3  and  O3*_21
REMARK    3  A    between atoms: C4*_4  and  C5*_18
REMARK    4  A    between atoms: C1*_5  and  N_6
REMARK    5  A    between atoms: C5*_18  and  O5*_19
REMARK                            x       y       z     vdW  Elec       q    Type
REMARK                         _______ _______ _______ _____ _____    ______ ____
ROOT
ATOM      1  O4* UNL     1     140.674 125.445 132.976  0.00  0.00    +0.000 OA
ATOM      2  C2* UNL     1     139.788 123.360 133.408  0.00  0.00    +0.000 A 
ATOM      3  C3* UNL     1     139.101 123.918 132.283  0.00  0.00    +0.000 A 
ATOM      4  C4* UNL     1     139.671 125.208 132.020  0.00  0.00    +0.000 A 
ATOM      5  C1* UNL     1     140.755 124.337 133.846  0.00  0.00    +0.000 A 
ENDROOT
BRANCH   5   6
ATOM      6  N   UNL     1     141.608 124.335 134.909  0.00  0.00    +0.000 N 
ATOM      7  C   UNL     1     142.577 123.385 135.210  0.00  0.00    +0.000 A 
ATOM      8  O   UNL     1     142.767 122.372 134.541  0.00  0.00    +0.000 OA
ATOM      9  N   UNL     1     143.325 123.650 136.355  0.00  0.00    +0.000 NA
ATOM     10  C   UNL     1     143.094 124.725 137.066  0.00  0.00    +0.000 A 
ATOM     11  N   UNL     1     142.107 125.651 136.778  0.00  0.00    +0.000 NA
ATOM     12  C   UNL     1     141.566 125.325 135.798  0.00  0.00    +0.000 A 
ATOM     13  N   UNL     1     143.851 124.943 138.172  0.00  0.00    +0.000 N 
ATOM     14  H   UNL     1     143.404 125.510 138.880  0.00  0.00    +0.000 HD
ATOM     15  H   UNL     1     144.309 124.109 138.520  0.00  0.00    +0.000 HD
ENDBRANCH   5   6
BRANCH   2  16
ATOM     16  O2* UNL     1     139.142 122.473 134.224  0.00  0.00    +0.000 OA
ATOM     17  H2* UNL     1     138.799 122.905 135.037  0.00  0.00    +0.000 HD
ENDBRANCH   2  16
BRANCH   3  18
ATOM     18  O3* UNL     1     137.783 123.640 132.051  0.00  0.00    +0.000 OA
ATOM     19  H3* UNL     1     137.609 123.635 131.091  0.00  0.00    +0.000 HD
ENDBRANCH   3  18
BRANCH   4  20
ATOM     20  C5* UNL     1     139.151 126.229 131.202  0.00  0.00    +0.000 C 
BRANCH  20  21
ATOM     21  O5* UNL     1     138.664 127.200 130.435  0.00  0.00    +0.000 OA
ATOM     22  H5* UNL     1     139.288 127.946 130.408  0.00  0.00    +0.000 HD
ENDBRANCH  20  21
ENDBRANCH   4  20
TORSDOF 5
ENDMDL
MODEL 3
REMARK VINA RESULT:      -5.8     33.230     34.658
REMARK  Name = 5azacytidine.pdbqt.pdb
REMARK  5 active torsions:
REMARK  status: ('A' for Active; 'I' for Inactive)
REMARK    1  A    between atoms: C2*_2  and  O2*_16
REMARK    2  A    between atoms: C3*_3  and  O3*_21
REMARK    3  A    between atoms: C4*_4  and  C5*_18
REMARK    4  A    between atoms: C1*_5  and  N_6
REMARK    5  A    between atoms: C5*_18  and  O5*_19
REMARK                            x       y       z     vdW  Elec       q    Type
REMARK                         _______ _______ _______ _____ _____    ______ ____
ROOT
ATOM      1  O4* UNL     1     143.032 125.467  99.135  0.00  0.00    +0.000 OA
ATOM      2  C2* UNL     1     144.152 123.552  99.768  0.00  0.00    +0.000 A 
ATOM      3  C3* UNL     1     143.336 123.244  98.633  0.00  0.00    +0.000 A 
ATOM      4  C4* UNL     1     142.655 124.446  98.246  0.00  0.00    +0.000 A 
ATOM      5  C1* UNL     1     143.935 124.943 100.085  0.00  0.00    +0.000 A 
ENDROOT
BRANCH   5   6
ATOM      6  N   UNL     1     144.410 125.711 101.106  0.00  0.00    +0.000 N 
ATOM      7  C   UNL     1     145.648 125.613 101.729  0.00  0.00    +0.000 A 
ATOM      8  O   UNL     1     146.488 124.762 101.443  0.00  0.00    +0.000 OA
ATOM      9  N   UNL     1     145.876 126.548 102.735  0.00  0.00    +0.000 NA
ATOM     10  C   UNL     1     144.961 127.434 103.040  0.00  0.00    +0.000 A 
ATOM     11  N   UNL     1     143.718 127.507 102.436  0.00  0.00    +0.000 NA
ATOM     12  C   UNL     1     143.658 126.686 101.610  0.00  0.00    +0.000 A 
ATOM     13  N   UNL     1     145.231 128.328 104.025  0.00  0.00    +0.000 N 
ATOM     14  H   UNL     1     144.412 128.695 104.492  0.00  0.00    +0.000 HD
ATOM     15  H   UNL     1     145.979 128.037 104.643  0.00  0.00    +0.000 HD
ENDBRANCH   5   6
BRANCH   2  16
ATOM     16  O2* UNL     1     144.444 122.575 100.679  0.00  0.00    +0.000 OA
ATOM     17  H2* UNL     1     144.904 122.935 101.469  0.00  0.00    +0.000 HD
ENDBRANCH   2  16
BRANCH   3  18
ATOM     18  O3* UNL     1     142.776 122.005  98.483  0.00  0.00    +0.000 OA
ATOM     19  H3* UNL     1     143.350 121.447  97.926  0.00  0.00    +0.000 HD
ENDBRANCH   3  18
BRANCH   4  20
ATOM     20  C5* UNL     1     141.556 124.570  97.374  0.00  0.00    +0.000 C 
BRANCH  20  21
ATOM     21  O5* UNL     1     140.521 124.679  96.547  0.00  0.00    +0.000 OA
ATOM     22  H5* UNL     1     139.726 124.297  96.956  0.00  0.00    +0.000 HD
ENDBRANCH  20  21
ENDBRANCH   4  20
TORSDOF 5
ENDMDL
MODEL 4
REMARK VINA RESULT:      -5.7     33.392     34.820
REMARK  Name = 5azacytidine.pdbqt.pdb
REMARK  5 active torsions:
REMARK  status: ('A' for Active; 'I' for Inactive)
REMARK    1  A    between atoms: C2*_2  and  O2*_16
REMARK    2  A    between atoms: C3*_3  and  O3*_21
REMARK    3  A    between atoms: C4*_4  and  C5*_18
REMARK    4  A    between atoms: C1*_5  and  N_6
REMARK    5  A    between atoms: C5*_18  and  O5*_19
REMARK                            x       y       z     vdW  Elec       q    Type
REMARK                         _______ _______ _______ _____ _____    ______ ____
ROOT
ATOM      1  O4* UNL     1     143.831 127.156 101.025  0.00  0.00    +0.000 OA
ATOM      2  C2* UNL     1     145.301 125.473 101.596  0.00  0.00    +0.000 A 
ATOM      3  C3* UNL     1     144.091 125.287 102.338  0.00  0.00    +0.000 A 
ATOM      4  C4* UNL     1     143.185 126.334 101.964  0.00  0.00    +0.000 A 
ATOM      5  C1* UNL     1     145.132 126.661 100.795  0.00  0.00    +0.000 A 
ENDROOT
BRANCH   5   6
ATOM      6  N   UNL     1     146.000 127.312  99.970  0.00  0.00    +0.000 N 
ATOM      7  C   UNL     1     146.948 128.264 100.325  0.00  0.00    +0.000 A 
ATOM      8  O   UNL     1     147.100 128.675 101.473  0.00  0.00    +0.000 OA
ATOM      9  N   UNL     1     147.719 128.749  99.272  0.00  0.00    +0.000 NA
ATOM     10  C   UNL     1     147.527 128.314  98.052  0.00  0.00    +0.000 A 
ATOM     11  N   UNL     1     146.562 127.387  97.700  0.00  0.00    +0.000 NA
ATOM     12  C   UNL     1     145.998 127.052  98.664  0.00  0.00    +0.000 A 
ATOM     13  N   UNL     1     148.306 128.813  97.059  0.00  0.00    +0.000 N 
ATOM     14  H   UNL     1     147.885 128.778  96.140  0.00  0.00    +0.000 HD
ATOM     15  H   UNL     1     148.746 129.695  97.293  0.00  0.00    +0.000 HD
ENDBRANCH   5   6
BRANCH   2  16
ATOM     16  O2* UNL     1     146.489 125.038 102.117  0.00  0.00    +0.000 OA
ATOM     17  H2* UNL     1     146.987 125.765 102.551  0.00  0.00    +0.000 HD
ENDBRANCH   2  16
BRANCH   3  18
ATOM     18  O3* UNL     1     144.110 124.751 103.596  0.00  0.00    +0.000 OA
ATOM     19  H3* UNL     1     144.991 124.873 103.995  0.00  0.00    +0.000 HD
ENDBRANCH   3  18
BRANCH   4  20
ATOM     20  C5* UNL     1     141.998 126.720 102.616  0.00  0.00    +0.000 C 
BRANCH  20  21
ATOM     21  O5* UNL     1     140.874 127.086 103.224  0.00  0.00    +0.000 OA
ATOM     22  H5* UNL     1     140.266 126.328 103.283  0.00  0.00    +0.000 HD
ENDBRANCH  20  21
ENDBRANCH   4  20
TORSDOF 5
ENDMDL
MODEL 5
REMARK VINA RESULT:      -5.6      2.753      3.634
REMARK  Name = 5azacytidine.pdbqt.pdb
REMARK  5 active torsions:
REMARK  status: ('A' for Active; 'I' for Inactive)
REMARK    1  A    between atoms: C2*_2  and  O2*_16
REMARK    2  A    between atoms: C3*_3  and  O3*_21
REMARK    3  A    between atoms: C4*_4  and  C5*_18
REMARK    4  A    between atoms: C1*_5  and  N_6
REMARK    5  A    between atoms: C5*_18  and  O5*_19
REMARK                            x       y       z     vdW  Elec       q    Type
REMARK                         _______ _______ _______ _____ _____    ______ ____
ROOT
ATOM      1  O4* UNL     1     138.500 123.551 135.286  0.00  0.00    +0.000 OA
ATOM      2  C2* UNL     1     136.813 123.697 133.720  0.00  0.00    +0.000 A 
ATOM      3  C3* UNL     1     136.294 123.043 134.883  0.00  0.00    +0.000 A 
ATOM      4  C4* UNL     1     137.352 122.970 135.850  0.00  0.00    +0.000 A 
ATOM      5  C1* UNL     1     138.202 123.989 133.977  0.00  0.00    +0.000 A 
ENDROOT
BRANCH   5   6
ATOM      6  N   UNL     1     139.163 124.535 133.179  0.00  0.00    +0.000 N 
ATOM      7  C   UNL     1     140.403 123.994 132.862  0.00  0.00    +0.000 A 
ATOM      8  O   UNL     1     140.813 122.926 133.310  0.00  0.00    +0.000 OA
ATOM      9  N   UNL     1     141.178 124.765 132.000  0.00  0.00    +0.000 NA
ATOM     10  C   UNL     1     140.732 125.911 131.548  0.00  0.00    +0.000 A 
ATOM     11  N   UNL     1     139.507 126.457 131.892  0.00  0.00    +0.000 NA
ATOM     12  C   UNL     1     138.955 125.716 132.601  0.00  0.00    +0.000 A 
ATOM     13  N   UNL     1     141.521 126.625 130.707  0.00  0.00    +0.000 N 
ATOM     14  H   UNL     1     141.345 127.621 130.713  0.00  0.00    +0.000 HD
ATOM     15  H   UNL     1     142.499 126.365 130.750  0.00  0.00    +0.000 HD
ENDBRANCH   5   6
BRANCH   2  16
ATOM     16  O2* UNL     1     136.284 123.413 132.491  0.00  0.00    +0.000 OA
ATOM     17  H2* UNL     1     135.724 124.146 132.154  0.00  0.00    +0.000 HD
ENDBRANCH   2  16
BRANCH   3  18
ATOM     18  O3* UNL     1     135.330 122.079 134.780  0.00  0.00    +0.000 OA
ATOM     19  H3* UNL     1     135.387 121.645 133.908  0.00  0.00    +0.000 HD
ENDBRANCH   3  18
BRANCH   4  20
ATOM     20  C5* UNL     1     137.398 122.185 137.018  0.00  0.00    +0.000 C 
BRANCH  20  21
ATOM     21  O5* UNL     1     137.438 121.451 138.126  0.00  0.00    +0.000 OA
ATOM     22  H5* UNL     1     137.672 120.533 137.908  0.00  0.00    +0.000 HD
ENDBRANCH  20  21
ENDBRANCH   4  20
TORSDOF 5
ENDMDL
MODEL 6
REMARK VINA RESULT:      -5.5     33.909     35.362
REMARK  Name = 5azacytidine.pdbqt.pdb
REMARK  5 active torsions:
REMARK  status: ('A' for Active; 'I' for Inactive)
REMARK    1  A    between atoms: C2*_2  and  O2*_16
REMARK    2  A    between atoms: C3*_3  and  O3*_21
REMARK    3  A    between atoms: C4*_4  and  C5*_18
REMARK    4  A    between atoms: C1*_5  and  N_6
REMARK    5  A    between atoms: C5*_18  and  O5*_19
REMARK                            x       y       z     vdW  Elec       q    Type
REMARK                         _______ _______ _______ _____ _____    ______ ____
ROOT
ATOM      1  O4* UNL     1     145.397 127.633 101.746  0.00  0.00    +0.000 OA
ATOM      2  C2* UNL     1     145.154 125.862 100.288  0.00  0.00    +0.000 A 
ATOM      3  C3* UNL     1     144.603 125.484 101.554  0.00  0.00    +0.000 A 
ATOM      4  C4* UNL     1     144.752 126.598 102.445  0.00  0.00    +0.000 A 
ATOM      5  C1* UNL     1     145.668 127.203 100.429  0.00  0.00    +0.000 A 
ENDROOT
BRANCH   5   6
ATOM      6  N   UNL     1     146.349 127.995  99.554  0.00  0.00    +0.000 N 
ATOM      7  C   UNL     1     145.815 128.915  98.659  0.00  0.00    +0.000 A 
ATOM      8  O   UNL     1     144.609 129.109  98.522  0.00  0.00    +0.000 OA
ATOM      9  N   UNL     1     146.753 129.606  97.896  0.00  0.00    +0.000 NA
ATOM     10  C   UNL     1     148.033 129.370  98.042  0.00  0.00    +0.000 A 
ATOM     11  N   UNL     1     148.556 128.431  98.914  0.00  0.00    +0.000 NA
ATOM     12  C   UNL     1     147.677 127.936  99.498  0.00  0.00    +0.000 A 
ATOM     13  N   UNL     1     148.909 130.071  97.279  0.00  0.00    +0.000 N 
ATOM     14  H   UNL     1     149.792 129.604  97.120  0.00  0.00    +0.000 HD
ATOM     15  H   UNL     1     148.490 130.482  96.454  0.00  0.00    +0.000 HD
ENDBRANCH   5   6
BRANCH   2  16
ATOM     16  O2* UNL     1     145.673 124.904  99.461  0.00  0.00    +0.000 OA
ATOM     17  H2* UNL     1     145.373 125.019  98.533  0.00  0.00    +0.000 HD
ENDBRANCH   2  16
BRANCH   3  18
ATOM     18  O3* UNL     1     144.656 124.188 101.988  0.00  0.00    +0.000 OA
ATOM     19  H3* UNL     1     145.518 124.016 102.411  0.00  0.00    +0.000 HD
ENDBRANCH   3  18
BRANCH   4  20
ATOM     20  C5* UNL     1     144.613 126.605 103.846  0.00  0.00    +0.000 C 
BRANCH  20  21
ATOM     21  O5* UNL     1     144.473 126.605 105.168  0.00  0.00    +0.000 OA
ATOM     22  H5* UNL     1     145.260 126.216 105.586  0.00  0.00    +0.000 HD
ENDBRANCH  20  21
ENDBRANCH   4  20
TORSDOF 5
ENDMDL
MODEL 7
REMARK VINA RESULT:      -5.5      3.778      6.616
REMARK  Name = 5azacytidine.pdbqt.pdb
REMARK  5 active torsions:
REMARK  status: ('A' for Active; 'I' for Inactive)
REMARK    1  A    between atoms: C2*_2  and  O2*_16
REMARK    2  A    between atoms: C3*_3  and  O3*_21
REMARK    3  A    between atoms: C4*_4  and  C5*_18
REMARK    4  A    between atoms: C1*_5  and  N_6
REMARK    5  A    between atoms: C5*_18  and  O5*_19
REMARK                            x       y       z     vdW  Elec       q    Type
REMARK                         _______ _______ _______ _____ _____    ______ ____
ROOT
ATOM      1  O4* UNL     1     137.768 123.397 133.496  0.00  0.00    +0.000 OA
ATOM      2  C2* UNL     1     138.356 122.642 135.595  0.00  0.00    +0.000 A 
ATOM      3  C3* UNL     1     139.504 123.254 134.997  0.00  0.00    +0.000 A 
ATOM      4  C4* UNL     1     139.119 123.727 133.698  0.00  0.00    +0.000 A 
ATOM      5  C1* UNL     1     137.282 122.718 134.634  0.00  0.00    +0.000 A 
ENDROOT
BRANCH   5   6
ATOM      6  N   UNL     1     136.011 122.227 134.675  0.00  0.00    +0.000 N 
ATOM      7  C   UNL     1     134.862 122.894 135.083  0.00  0.00    +0.000 A 
ATOM      8  O   UNL     1     134.860 124.048 135.505  0.00  0.00    +0.000 OA
ATOM      9  N   UNL     1     133.689 122.149 134.999  0.00  0.00    +0.000 NA
ATOM     10  C   UNL     1     133.714 120.914 134.565  0.00  0.00    +0.000 A 
ATOM     11  N   UNL     1     134.866 120.246 134.189  0.00  0.00    +0.000 NA
ATOM     12  C   UNL     1     135.770 120.975 134.291  0.00  0.00    +0.000 A 
ATOM     13  N   UNL     1     132.544 120.229 134.498  0.00  0.00    +0.000 N 
ATOM     14  H   UNL     1     132.644 119.224 134.559  0.00  0.00    +0.000 HD
ATOM     15  H   UNL     1     131.811 120.621 135.076  0.00  0.00    +0.000 HD
ENDBRANCH   5   6
BRANCH   2  16
ATOM     16  O2* UNL     1     138.522 121.639 136.509  0.00  0.00    +0.000 OA
ATOM     17  H2* UNL     1     138.144 120.789 136.195  0.00  0.00    +0.000 HD
ENDBRANCH   2  16
BRANCH   3  18
ATOM     18  O3* UNL     1     140.766 122.801 135.265  0.00  0.00    +0.000 OA
ATOM     19  H3* UNL     1     141.096 122.276 134.513  0.00  0.00    +0.000 HD
ENDBRANCH   3  18
BRANCH   4  20
ATOM     20  C5* UNL     1     139.960 124.142 132.648  0.00  0.00    +0.000 C 
BRANCH  20  21
ATOM     21  O5* UNL     1     140.747 124.536 131.652  0.00  0.00    +0.000 OA
ATOM     22  H5* UNL     1     140.996 123.773 131.103  0.00  0.00    +0.000 HD
ENDBRANCH  20  21
ENDBRANCH   4  20
TORSDOF 5
ENDMDL
MODEL 8
REMARK VINA RESULT:      -5.5     33.628     34.704
REMARK  Name = 5azacytidine.pdbqt.pdb
REMARK  5 active torsions:
REMARK  status: ('A' for Active; 'I' for Inactive)
REMARK    1  A    between atoms: C2*_2  and  O2*_16
REMARK    2  A    between atoms: C3*_3  and  O3*_21
REMARK    3  A    between atoms: C4*_4  and  C5*_18
REMARK    4  A    between atoms: C1*_5  and  N_6
REMARK    5  A    between atoms: C5*_18  and  O5*_19
REMARK                            x       y       z     vdW  Elec       q    Type
REMARK                         _______ _______ _______ _____ _____    ______ ____
ROOT
ATOM      1  O4* UNL     1     143.593 126.513 100.483  0.00  0.00    +0.000 OA
ATOM      2  C2* UNL     1     144.152 124.464 101.382  0.00  0.00    +0.000 A 
ATOM      3  C3* UNL     1     145.347 125.242 101.253  0.00  0.00    +0.000 A 
ATOM      4  C4* UNL     1     144.981 126.516 100.703  0.00  0.00    +0.000 A 
ATOM      5  C1* UNL     1     143.064 125.264 100.875  0.00  0.00    +0.000 A 
ENDROOT
BRANCH   5   6
ATOM      6  N   UNL     1     141.744 124.972 100.706  0.00  0.00    +0.000 N 
ATOM      7  C   UNL     1     141.194 124.003  99.876  0.00  0.00    +0.000 A 
ATOM      8  O   UNL     1     141.862 123.283  99.137  0.00  0.00    +0.000 OA
ATOM      9  N   UNL     1     139.805 123.908  99.921  0.00  0.00    +0.000 NA
ATOM     10  C   UNL     1     139.110 124.698 100.699  0.00  0.00    +0.000 A 
ATOM     11  N   UNL     1     139.661 125.681 101.502  0.00  0.00    +0.000 NA
ATOM     12  C   UNL     1     140.821 125.649 101.385  0.00  0.00    +0.000 A 
ATOM     13  N   UNL     1     137.759 124.566 100.712  0.00  0.00    +0.000 N 
ATOM     14  H   UNL     1     137.259 125.404 100.978  0.00  0.00    +0.000 HD
ATOM     15  H   UNL     1     137.390 124.091  99.897  0.00  0.00    +0.000 HD
ENDBRANCH   5   6
BRANCH   2  16
ATOM     16  O2* UNL     1     144.221 123.100 101.316  0.00  0.00    +0.000 OA
ATOM     17  H2* UNL     1     145.149 122.778 101.337  0.00  0.00    +0.000 HD
ENDBRANCH   2  16
BRANCH   3  18
ATOM     18  O3* UNL     1     146.550 124.649 100.986  0.00  0.00    +0.000 OA
ATOM     19  H3* UNL     1     146.956 124.337 101.816  0.00  0.00    +0.000 HD
ENDBRANCH   3  18
BRANCH   4  20
ATOM     20  C5* UNL     1     145.832 127.492 100.151  0.00  0.00    +0.000 C 
BRANCH  20  21
ATOM     21  O5* UNL     1     146.643 128.409  99.634  0.00  0.00    +0.000 OA
ATOM     22  H5* UNL     1     147.502 128.008  99.416  0.00  0.00    +0.000 HD
ENDBRANCH  20  21
ENDBRANCH   4  20
TORSDOF 5
ENDMDL
MODEL 9
REMARK VINA RESULT:      -5.4      4.014      6.250
REMARK  Name = 5azacytidine.pdbqt.pdb
REMARK  5 active torsions:
REMARK  status: ('A' for Active; 'I' for Inactive)
REMARK    1  A    between atoms: C2*_2  and  O2*_16
REMARK    2  A    between atoms: C3*_3  and  O3*_21
REMARK    3  A    between atoms: C4*_4  and  C5*_18
REMARK    4  A    between atoms: C1*_5  and  N_6
REMARK    5  A    between atoms: C5*_18  and  O5*_19
REMARK                            x       y       z     vdW  Elec       q    Type
REMARK                         _______ _______ _______ _____ _____    ______ ____
ROOT
ATOM      1  O4* UNL     1     137.006 124.570 133.370  0.00  0.00    +0.000 OA
ATOM      2  C2* UNL     1     138.211 122.800 134.229  0.00  0.00    +0.000 A 
ATOM      3  C3* UNL     1     139.115 123.667 133.534  0.00  0.00    +0.000 A 
ATOM      4  C4* UNL     1     138.352 124.766 133.016  0.00  0.00    +0.000 A 
ATOM      5  C1* UNL     1     136.891 123.366 134.098  0.00  0.00    +0.000 A 
ENDROOT
BRANCH   5   6
ATOM      6  N   UNL     1     135.676 122.903 134.510  0.00  0.00    +0.000 N 
ATOM      7  C   UNL     1     135.046 121.728 134.121  0.00  0.00    +0.000 A 
ATOM      8  O   UNL     1     135.515 120.945 133.297  0.00  0.00    +0.000 OA
ATOM      9  N   UNL     1     133.812 121.495 134.722  0.00  0.00    +0.000 NA
ATOM     10  C   UNL     1     133.319 122.350 135.582  0.00  0.00    +0.000 A 
ATOM     11  N   UNL     1     133.938 123.534 135.943  0.00  0.00    +0.000 NA
ATOM     12  C   UNL     1     134.960 123.604 135.385  0.00  0.00    +0.000 A 
ATOM     13  N   UNL     1     132.115 122.079 136.145  0.00  0.00    +0.000 N 
ATOM     14  H   UNL     1     131.604 122.895 136.456  0.00  0.00    +0.000 HD
ATOM     15  H   UNL     1     131.566 121.405 135.624  0.00  0.00    +0.000 HD
ENDBRANCH   5   6
BRANCH   2  16
ATOM     16  O2* UNL     1     138.489 121.464 134.318  0.00  0.00    +0.000 OA
ATOM     17  H2* UNL     1     137.774 120.971 134.778  0.00  0.00    +0.000 HD
ENDBRANCH   2  16
BRANCH   3  18
ATOM     18  O3* UNL     1     140.214 123.171 132.890  0.00  0.00    +0.000 OA
ATOM     19  H3* UNL     1     140.705 123.899 132.465  0.00  0.00    +0.000 HD
ENDBRANCH   3  18
BRANCH   4  20
ATOM     20  C5* UNL     1     138.749 125.709 132.049  0.00  0.00    +0.000 C 
BRANCH  20  21
ATOM     21  O5* UNL     1     139.117 126.596 131.129  0.00  0.00    +0.000 OA
ATOM     22  H5* UNL     1     139.139 127.488 131.518  0.00  0.00    +0.000 HD
ENDBRANCH  20  21
ENDBRANCH   4  20
TORSDOF 5
ENDMDL
