MODEL 1
REMARK VINA RESULT:      -8.1      0.000      0.000
REMARK  Name = 60953_Capecitabine.pdbqt.pdb
REMARK  6 active torsions:
REMARK  status: ('A' for Active; 'I' for Inactive)
REMARK    1  A    between atoms: N_4  and  C_16
REMARK    2  A    between atoms: C_11  and  O_23
REMARK    3  A    between atoms: C_14  and  O_19
REMARK    4  A    between atoms: C_15  and  O_21
REMARK    5  A    between atoms: O_23  and  C_24
REMARK    6  A    between atoms: C_25  and  C_26
REMARK                            x       y       z     vdW  Elec       q    Type
REMARK                         _______ _______ _______ _____ _____    ______ ____
ROOT
ATOM      1  F   UNL     1     142.018 123.336 133.092  0.00  0.00    +0.000 F 
ATOM      2  O   UNL     1     136.750 124.128 132.528  0.00  0.00    +0.000 OA
ATOM      3  O   UNL     1     139.802 126.180 129.643  0.00  0.00    +0.000 OA
ATOM      4  N   UNL     1     138.492 123.273 133.805  0.00  0.00    +0.000 N 
ATOM      5  N   UNL     1     138.882 124.651 131.879  0.00  0.00    +0.000 NA
ATOM      6  N   UNL     1     141.105 125.108 131.246  0.00  0.00    +0.000 N 
ATOM      7  C   UNL     1     139.835 123.248 133.918  0.00  0.00    +0.000 C 
ATOM      8  C   UNL     1     137.958 124.029 132.729  0.00  0.00    +0.000 C 
ATOM      9  C   UNL     1     140.770 123.814 133.239  0.00  0.00    +0.000 C 
ATOM     10  C   UNL     1     140.162 124.549 132.084  0.00  0.00    +0.000 C 
ATOM     11  C   UNL     1     140.883 125.845 130.103  0.00  0.00    +0.000 C 
ATOM     12  H   UNL     1     142.082 124.956 131.452  0.00  0.00    +0.000 HD
ENDROOT
BRANCH   4  16
ATOM     13  O   UNL     1     137.759 122.995 136.095  0.00  0.00    +0.000 OA
ATOM     14  C   UNL     1     136.923 121.419 134.633  0.00  0.00    +0.000 A 
ATOM     15  C   UNL     1     136.465 121.099 135.951  0.00  0.00    +0.000 A 
ATOM     16  C   UNL     1     137.757 122.594 134.740  0.00  0.00    +0.000 A 
ATOM     17  C   UNL     1     136.983 122.098 136.845  0.00  0.00    +0.000 A 
ATOM     18  C   UNL     1     137.038 122.140 138.333  0.00  0.00    +0.000 C 
BRANCH  14  19
ATOM     19  O   UNL     1     137.086 120.418 133.717  0.00  0.00    +0.000 OA
ATOM     20  H   UNL     1     137.626 119.676 134.071  0.00  0.00    +0.000 HD
ENDBRANCH  14  19
BRANCH  15  21
ATOM     21  O   UNL     1     136.222 119.802 136.319  0.00  0.00    +0.000 OA
ATOM     22  H   UNL     1     136.643 119.608 137.179  0.00  0.00    +0.000 HD
ENDBRANCH  15  21
ENDBRANCH   4  16
BRANCH  11  23
ATOM     23  O   UNL     1     142.094 126.166 129.556  0.00  0.00    +0.000 OA
BRANCH  23  24
ATOM     24  C   UNL     1     142.138 126.195 128.225  0.00  0.00    +0.000 C 
ATOM     25  C   UNL     1     142.189 126.230 126.694  0.00  0.00    +0.000 C 
BRANCH  25  26
ATOM     26  C   UNL     1     142.240 126.268 125.164  0.00  0.00    +0.000 C 
ATOM     27  C   UNL     1     142.284 126.306 123.634  0.00  0.00    +0.000 C 
ATOM     28  C   UNL     1     142.316 126.349 122.103  0.00  0.00    +0.000 C 
ENDBRANCH  25  26
ENDBRANCH  23  24
ENDBRANCH  11  23
TORSDOF 6
ENDMDL
MODEL 2
REMARK VINA RESULT:      -7.0      4.167     10.329
REMARK  Name = 60953_Capecitabine.pdbqt.pdb
REMARK  6 active torsions:
REMARK  status: ('A' for Active; 'I' for Inactive)
REMARK    1  A    between atoms: N_4  and  C_16
REMARK    2  A    between atoms: C_11  and  O_23
REMARK    3  A    between atoms: C_14  and  O_19
REMARK    4  A    between atoms: C_15  and  O_21
REMARK    5  A    between atoms: O_23  and  C_24
REMARK    6  A    between atoms: C_25  and  C_26
REMARK                            x       y       z     vdW  Elec       q    Type
REMARK                         _______ _______ _______ _____ _____    ______ ____
ROOT
ATOM      1  F   UNL     1     137.629 122.855 137.891  0.00  0.00    +0.000 F 
ATOM      2  O   UNL     1     135.902 123.834 132.915  0.00  0.00    +0.000 OA
ATOM      3  O   UNL     1     133.050 121.972 136.118  0.00  0.00    +0.000 OA
ATOM      4  N   UNL     1     137.686 123.715 134.398  0.00  0.00    +0.000 N 
ATOM      5  N   UNL     1     135.491 122.941 134.983  0.00  0.00    +0.000 NA
ATOM      6  N   UNL     1     135.135 122.077 137.146  0.00  0.00    +0.000 N 
ATOM      7  C   UNL     1     138.034 123.314 135.637  0.00  0.00    +0.000 C 
ATOM      8  C   UNL     1     136.334 123.513 134.020  0.00  0.00    +0.000 C 
ATOM      9  C   UNL     1     137.371 122.738 136.577  0.00  0.00    +0.000 C 
ATOM     10  C   UNL     1     135.940 122.601 136.155  0.00  0.00    +0.000 C 
ATOM     11  C   UNL     1     133.783 121.823 137.084  0.00  0.00    +0.000 C 
ATOM     12  H   UNL     1     135.550 121.870 138.043  0.00  0.00    +0.000 HD
ENDROOT
BRANCH   4  16
ATOM     13  O   UNL     1     139.304 125.462 133.963  0.00  0.00    +0.000 OA
ATOM     14  C   UNL     1     139.200 123.837 132.329  0.00  0.00    +0.000 A 
ATOM     15  C   UNL     1     140.143 124.832 131.916  0.00  0.00    +0.000 A 
ATOM     16  C   UNL     1     138.661 124.257 133.602  0.00  0.00    +0.000 A 
ATOM     17  C   UNL     1     140.204 125.828 132.950  0.00  0.00    +0.000 A 
ATOM     18  C   UNL     1     140.811 127.188 132.959  0.00  0.00    +0.000 C 
BRANCH  14  19
ATOM     19  O   UNL     1     138.524 123.119 131.385  0.00  0.00    +0.000 OA
ATOM     20  H   UNL     1     138.783 123.371 130.470  0.00  0.00    +0.000 HD
ENDBRANCH  14  19
BRANCH  15  21
ATOM     21  O   UNL     1     140.349 125.101 130.589  0.00  0.00    +0.000 OA
ATOM     22  H   UNL     1     141.283 125.338 130.430  0.00  0.00    +0.000 HD
ENDBRANCH  15  21
ENDBRANCH   4  16
BRANCH  11  23
ATOM     23  O   UNL     1     133.377 121.349 138.300  0.00  0.00    +0.000 OA
BRANCH  23  24
ATOM     24  C   UNL     1     133.868 121.983 139.362  0.00  0.00    +0.000 C 
ATOM     25  C   UNL     1     134.432 122.713 140.586  0.00  0.00    +0.000 C 
BRANCH  25  26
ATOM     26  C   UNL     1     134.994 123.442 141.810  0.00  0.00    +0.000 C 
ATOM     27  C   UNL     1     135.559 124.165 143.036  0.00  0.00    +0.000 C 
ATOM     28  C   UNL     1     136.133 124.880 144.264  0.00  0.00    +0.000 C 
ENDBRANCH  25  26
ENDBRANCH  23  24
ENDBRANCH  11  23
TORSDOF 6
ENDMDL
MODEL 3
REMARK VINA RESULT:      -6.9      4.661     10.596
REMARK  Name = 60953_Capecitabine.pdbqt.pdb
REMARK  6 active torsions:
REMARK  status: ('A' for Active; 'I' for Inactive)
REMARK    1  A    between atoms: N_4  and  C_16
REMARK    2  A    between atoms: C_11  and  O_23
REMARK    3  A    between atoms: C_14  and  O_19
REMARK    4  A    between atoms: C_15  and  O_21
REMARK    5  A    between atoms: O_23  and  C_24
REMARK    6  A    between atoms: C_25  and  C_26
REMARK                            x       y       z     vdW  Elec       q    Type
REMARK                         _______ _______ _______ _____ _____    ______ ____
ROOT
ATOM      1  F   UNL     1     135.422 123.212 137.311  0.00  0.00    +0.000 F 
ATOM      2  O   UNL     1     135.513 122.555 131.995  0.00  0.00    +0.000 OA
ATOM      3  O   UNL     1     132.244 120.473 134.609  0.00  0.00    +0.000 OA
ATOM      4  N   UNL     1     136.572 123.349 133.905  0.00  0.00    +0.000 N 
ATOM      5  N   UNL     1     134.596 121.990 134.016  0.00  0.00    +0.000 NA
ATOM      6  N   UNL     1     133.683 121.490 136.129  0.00  0.00    +0.000 N 
ATOM      7  C   UNL     1     136.516 123.340 135.252  0.00  0.00    +0.000 C 
ATOM      8  C   UNL     1     135.563 122.623 133.221  0.00  0.00    +0.000 C 
ATOM      9  C   UNL     1     135.718 122.762 136.080  0.00  0.00    +0.000 C 
ATOM     10  C   UNL     1     134.640 122.059 135.313  0.00  0.00    +0.000 C 
ATOM     11  C   UNL     1     132.569 120.776 135.747  0.00  0.00    +0.000 C 
ATOM     12  H   UNL     1     133.767 121.616 137.128  0.00  0.00    +0.000 HD
ENDROOT
BRANCH   4  16
ATOM     13  O   UNL     1     137.869 125.376 133.649  0.00  0.00    +0.000 OA
ATOM     14  C   UNL     1     138.540 123.642 132.284  0.00  0.00    +0.000 A 
ATOM     15  C   UNL     1     139.344 124.787 131.985  0.00  0.00    +0.000 A 
ATOM     16  C   UNL     1     137.600 124.031 133.310  0.00  0.00    +0.000 A 
ATOM     17  C   UNL     1     138.922 125.853 132.853  0.00  0.00    +0.000 A 
ATOM     18  C   UNL     1     139.223 127.312 132.824  0.00  0.00    +0.000 C 
BRANCH  14  19
ATOM     19  O   UNL     1     138.304 122.714 131.310  0.00  0.00    +0.000 OA
ATOM     20  H   UNL     1     137.908 121.889 131.671  0.00  0.00    +0.000 HD
ENDBRANCH  14  19
BRANCH  15  21
ATOM     21  O   UNL     1     139.849 124.987 130.728  0.00  0.00    +0.000 OA
ATOM     22  H   UNL     1     140.824 125.042 130.756  0.00  0.00    +0.000 HD
ENDBRANCH  15  21
ENDBRANCH   4  16
BRANCH  11  23
ATOM     23  O   UNL     1     131.870 120.434 136.871  0.00  0.00    +0.000 OA
BRANCH  23  24
ATOM     24  C   UNL     1     131.080 121.381 137.372  0.00  0.00    +0.000 C 
ATOM     25  C   UNL     1     130.168 122.470 137.948  0.00  0.00    +0.000 C 
BRANCH  25  26
ATOM     26  C   UNL     1     129.256 123.557 138.523  0.00  0.00    +0.000 C 
ATOM     27  C   UNL     1     128.344 124.647 139.092  0.00  0.00    +0.000 C 
ATOM     28  C   UNL     1     127.428 125.742 139.649  0.00  0.00    +0.000 C 
ENDBRANCH  25  26
ENDBRANCH  23  24
ENDBRANCH  11  23
TORSDOF 6
ENDMDL
MODEL 4
REMARK VINA RESULT:      -6.8     30.849     35.585
REMARK  Name = 60953_Capecitabine.pdbqt.pdb
REMARK  6 active torsions:
REMARK  status: ('A' for Active; 'I' for Inactive)
REMARK    1  A    between atoms: N_4  and  C_16
REMARK    2  A    between atoms: C_11  and  O_23
REMARK    3  A    between atoms: C_14  and  O_19
REMARK    4  A    between atoms: C_15  and  O_21
REMARK    5  A    between atoms: O_23  and  C_24
REMARK    6  A    between atoms: C_25  and  C_26
REMARK                            x       y       z     vdW  Elec       q    Type
REMARK                         _______ _______ _______ _____ _____    ______ ____
ROOT
ATOM      1  F   UNL     1     148.212 129.306  99.088  0.00  0.00    +0.000 F 
ATOM      2  O   UNL     1     145.042 125.440  97.162  0.00  0.00    +0.000 OA
ATOM      3  O   UNL     1     147.789 127.927  94.312  0.00  0.00    +0.000 OA
ATOM      4  N   UNL     1     145.660 126.773  98.962  0.00  0.00    +0.000 N 
ATOM      5  N   UNL     1     146.500 127.157  96.747  0.00  0.00    +0.000 NA
ATOM      6  N   UNL     1     148.033 128.912  96.405  0.00  0.00    +0.000 N 
ATOM      7  C   UNL     1     146.406 127.843  99.307  0.00  0.00    +0.000 C 
ATOM      8  C   UNL     1     145.684 126.395  97.595  0.00  0.00    +0.000 C 
ATOM      9  C   UNL     1     147.144 128.640  98.617  0.00  0.00    +0.000 C 
ATOM     10  C   UNL     1     147.184 128.166  97.197  0.00  0.00    +0.000 C 
ATOM     11  C   UNL     1     148.297 128.745  95.064  0.00  0.00    +0.000 C 
ATOM     12  H   UNL     1     148.558 129.661  96.836  0.00  0.00    +0.000 HD
ENDROOT
BRANCH   4  16
ATOM     13  O   UNL     1     143.648 126.635 100.300  0.00  0.00    +0.000 OA
ATOM     14  C   UNL     1     145.232 125.034 100.800  0.00  0.00    +0.000 A 
ATOM     15  C   UNL     1     144.131 124.876 101.701  0.00  0.00    +0.000 A 
ATOM     16  C   UNL     1     144.929 126.158  99.943  0.00  0.00    +0.000 A 
ATOM     17  C   UNL     1     143.150 125.871 101.367  0.00  0.00    +0.000 A 
ATOM     18  C   UNL     1     141.940 126.334 102.103  0.00  0.00    +0.000 C 
BRANCH  14  19
ATOM     19  O   UNL     1     146.484 124.661 101.197  0.00  0.00    +0.000 OA
ATOM     20  H   UNL     1     147.164 124.860 100.515  0.00  0.00    +0.000 HD
ENDBRANCH  14  19
BRANCH  15  21
ATOM     21  O   UNL     1     144.320 124.391 102.969  0.00  0.00    +0.000 OA
ATOM     22  H   UNL     1     144.222 125.107 103.626  0.00  0.00    +0.000 HD
ENDBRANCH  15  21
ENDBRANCH   4  16
BRANCH  11  23
ATOM     23  O   UNL     1     149.229 129.671  94.689  0.00  0.00    +0.000 OA
BRANCH  23  24
ATOM     24  C   UNL     1     150.085 129.281  93.746  0.00  0.00    +0.000 C 
ATOM     25  C   UNL     1     151.071 128.831  92.662  0.00  0.00    +0.000 C 
BRANCH  25  26
ATOM     26  C   UNL     1     152.057 128.380  91.581  0.00  0.00    +0.000 C 
ATOM     27  C   UNL     1     153.037 127.928  90.495  0.00  0.00    +0.000 C 
ATOM     28  C   UNL     1     154.009 127.477  89.399  0.00  0.00    +0.000 C 
ENDBRANCH  25  26
ENDBRANCH  23  24
ENDBRANCH  11  23
TORSDOF 6
ENDMDL
MODEL 5
REMARK VINA RESULT:      -6.6     28.950     33.066
REMARK  Name = 60953_Capecitabine.pdbqt.pdb
REMARK  6 active torsions:
REMARK  status: ('A' for Active; 'I' for Inactive)
REMARK    1  A    between atoms: N_4  and  C_16
REMARK    2  A    between atoms: C_11  and  O_23
REMARK    3  A    between atoms: C_14  and  O_19
REMARK    4  A    between atoms: C_15  and  O_21
REMARK    5  A    between atoms: O_23  and  C_24
REMARK    6  A    between atoms: C_25  and  C_26
REMARK                            x       y       z     vdW  Elec       q    Type
REMARK                         _______ _______ _______ _____ _____    ______ ____
ROOT
ATOM      1  F   UNL     1     143.907 127.124  97.803  0.00  0.00    +0.000 F 
ATOM      2  O   UNL     1     144.138 123.367 101.615  0.00  0.00    +0.000 OA
ATOM      3  O   UNL     1     142.645 122.322  97.310  0.00  0.00    +0.000 OA
ATOM      4  N   UNL     1     144.279 125.616 101.048  0.00  0.00    +0.000 N 
ATOM      5  N   UNL     1     143.524 123.955  99.489  0.00  0.00    +0.000 NA
ATOM      6  N   UNL     1     142.956 124.628  97.304  0.00  0.00    +0.000 N 
ATOM      7  C   UNL     1     144.064 126.491 100.045  0.00  0.00    +0.000 C 
ATOM      8  C   UNL     1     143.985 124.254 100.778  0.00  0.00    +0.000 C 
ATOM      9  C   UNL     1     143.602 126.343  98.854  0.00  0.00    +0.000 C 
ATOM     10  C   UNL     1     143.363 124.887  98.597  0.00  0.00    +0.000 C 
ATOM     11  C   UNL     1     142.653 123.406  96.747  0.00  0.00    +0.000 C 
ATOM     12  H   UNL     1     142.887 125.402  96.658  0.00  0.00    +0.000 HD
ENDROOT
BRANCH   4  16
ATOM     13  O   UNL     1     146.121 126.279 102.472  0.00  0.00    +0.000 OA
ATOM     14  C   UNL     1     144.042 126.495 103.447  0.00  0.00    +0.000 A 
ATOM     15  C   UNL     1     145.033 126.859 104.414  0.00  0.00    +0.000 A 
ATOM     16  C   UNL     1     144.737 126.108 102.242  0.00  0.00    +0.000 A 
ATOM     17  C   UNL     1     146.319 126.730 103.786  0.00  0.00    +0.000 A 
ATOM     18  C   UNL     1     147.692 126.735 104.365  0.00  0.00    +0.000 C 
BRANCH  14  19
ATOM     19  O   UNL     1     142.848 125.981 103.869  0.00  0.00    +0.000 OA
ATOM     20  H   UNL     1     142.169 126.679 103.999  0.00  0.00    +0.000 HD
ENDBRANCH  14  19
BRANCH  15  21
ATOM     21  O   UNL     1     144.818 126.663 105.753  0.00  0.00    +0.000 OA
ATOM     22  H   UNL     1     145.647 126.790 106.253  0.00  0.00    +0.000 HD
ENDBRANCH  15  21
ENDBRANCH   4  16
BRANCH  11  23
ATOM     23  O   UNL     1     142.338 123.599  95.430  0.00  0.00    +0.000 OA
BRANCH  23  24
ATOM     24  C   UNL     1     142.043 124.849  95.083  0.00  0.00    +0.000 C 
ATOM     25  C   UNL     1     141.706 126.289  94.681  0.00  0.00    +0.000 C 
BRANCH  25  26
ATOM     26  C   UNL     1     141.370 127.728  94.279  0.00  0.00    +0.000 C 
ATOM     27  C   UNL     1     141.038 129.166  93.870  0.00  0.00    +0.000 C 
ATOM     28  C   UNL     1     140.707 130.602  93.449  0.00  0.00    +0.000 C 
ENDBRANCH  25  26
ENDBRANCH  23  24
ENDBRANCH  11  23
TORSDOF 6
ENDMDL
MODEL 6
REMARK VINA RESULT:      -6.4      4.750      8.438
REMARK  Name = 60953_Capecitabine.pdbqt.pdb
REMARK  6 active torsions:
REMARK  status: ('A' for Active; 'I' for Inactive)
REMARK    1  A    between atoms: N_4  and  C_16
REMARK    2  A    between atoms: C_11  and  O_23
REMARK    3  A    between atoms: C_14  and  O_19
REMARK    4  A    between atoms: C_15  and  O_21
REMARK    5  A    between atoms: O_23  and  C_24
REMARK    6  A    between atoms: C_25  and  C_26
REMARK                            x       y       z     vdW  Elec       q    Type
REMARK                         _______ _______ _______ _____ _____    ______ ____
ROOT
ATOM      1  F   UNL     1     135.178 121.322 131.390  0.00  0.00    +0.000 F 
ATOM      2  O   UNL     1     136.397 122.451 136.483  0.00  0.00    +0.000 OA
ATOM      3  O   UNL     1     132.609 119.920 135.431  0.00  0.00    +0.000 OA
ATOM      4  N   UNL     1     136.811 122.815 134.227  0.00  0.00    +0.000 N 
ATOM      5  N   UNL     1     134.923 121.543 134.984  0.00  0.00    +0.000 NA
ATOM      6  N   UNL     1     133.477 120.600 133.382  0.00  0.00    +0.000 N 
ATOM      7  C   UNL     1     136.337 122.569 132.989  0.00  0.00    +0.000 C 
ATOM      8  C   UNL     1     136.064 122.288 135.311  0.00  0.00    +0.000 C 
ATOM      9  C   UNL     1     135.288 121.950 132.573  0.00  0.00    +0.000 C 
ATOM     10  C   UNL     1     134.566 121.363 133.747  0.00  0.00    +0.000 C 
ATOM     11  C   UNL     1     132.605 119.927 134.209  0.00  0.00    +0.000 C 
ATOM     12  H   UNL     1     133.283 120.478 132.397  0.00  0.00    +0.000 HD
ENDROOT
BRANCH   4  16
ATOM     13  O   UNL     1     138.165 124.689 133.508  0.00  0.00    +0.000 OA
ATOM     14  C   UNL     1     139.113 123.422 135.186  0.00  0.00    +0.000 A 
ATOM     15  C   UNL     1     140.040 124.448 134.818  0.00  0.00    +0.000 A 
ATOM     16  C   UNL     1     137.952 123.567 134.339  0.00  0.00    +0.000 A 
ATOM     17  C   UNL     1     139.428 125.235 133.782  0.00  0.00    +0.000 A 
ATOM     18  C   UNL     1     140.005 126.258 132.865  0.00  0.00    +0.000 C 
BRANCH  14  19
ATOM     19  O   UNL     1     139.582 122.240 135.686  0.00  0.00    +0.000 OA
ATOM     20  H   UNL     1     140.525 122.087 135.452  0.00  0.00    +0.000 HD
ENDBRANCH  14  19
BRANCH  15  21
ATOM     21  O   UNL     1     141.392 124.250 134.923  0.00  0.00    +0.000 OA
ATOM     22  H   UNL     1     141.580 123.357 135.270  0.00  0.00    +0.000 HD
ENDBRANCH  15  21
ENDBRANCH   4  16
BRANCH  11  23
ATOM     23  O   UNL     1     131.699 119.262 133.432  0.00  0.00    +0.000 OA
BRANCH  23  24
ATOM     24  C   UNL     1     132.164 118.786 132.279  0.00  0.00    +0.000 C 
ATOM     25  C   UNL     1     132.702 118.238 130.953  0.00  0.00    +0.000 C 
BRANCH  25  26
ATOM     26  C   UNL     1     133.241 117.692 129.628  0.00  0.00    +0.000 C 
ATOM     27  C   UNL     1     133.776 117.151 128.299  0.00  0.00    +0.000 C 
ATOM     28  C   UNL     1     134.308 116.620 126.964  0.00  0.00    +0.000 C 
ENDBRANCH  25  26
ENDBRANCH  23  24
ENDBRANCH  11  23
TORSDOF 6
ENDMDL
MODEL 7
REMARK VINA RESULT:      -6.3      4.197      5.323
REMARK  Name = 60953_Capecitabine.pdbqt.pdb
REMARK  6 active torsions:
REMARK  status: ('A' for Active; 'I' for Inactive)
REMARK    1  A    between atoms: N_4  and  C_16
REMARK    2  A    between atoms: C_11  and  O_23
REMARK    3  A    between atoms: C_14  and  O_19
REMARK    4  A    between atoms: C_15  and  O_21
REMARK    5  A    between atoms: O_23  and  C_24
REMARK    6  A    between atoms: C_25  and  C_26
REMARK                            x       y       z     vdW  Elec       q    Type
REMARK                         _______ _______ _______ _____ _____    ______ ____
ROOT
ATOM      1  F   UNL     1     139.816 122.670 135.726  0.00  0.00    +0.000 F 
ATOM      2  O   UNL     1     135.491 121.655 132.733  0.00  0.00    +0.000 OA
ATOM      3  O   UNL     1     138.528 124.989 131.500  0.00  0.00    +0.000 OA
ATOM      4  N   UNL     1     136.646 121.300 134.716  0.00  0.00    +0.000 N 
ATOM      5  N   UNL     1     137.329 122.963 133.126  0.00  0.00    +0.000 NA
ATOM      6  N   UNL     1     139.258 124.237 133.578  0.00  0.00    +0.000 N 
ATOM      7  C   UNL     1     137.698 121.727 135.443  0.00  0.00    +0.000 C 
ATOM      8  C   UNL     1     136.420 121.955 133.478  0.00  0.00    +0.000 C 
ATOM      9  C   UNL     1     138.559 122.664 135.250  0.00  0.00    +0.000 C 
ATOM     10  C   UNL     1     138.316 123.284 133.908  0.00  0.00    +0.000 C 
ATOM     11  C   UNL     1     139.323 124.992 132.428  0.00  0.00    +0.000 C 
ATOM     12  H   UNL     1     140.016 124.407 134.223  0.00  0.00    +0.000 HD
ENDROOT
BRANCH   4  16
ATOM     13  O   UNL     1     134.865 120.572 136.185  0.00  0.00    +0.000 OA
ATOM     14  C   UNL     1     135.894 118.866 135.023  0.00  0.00    +0.000 A 
ATOM     15  C   UNL     1     134.914 118.291 135.893  0.00  0.00    +0.000 A 
ATOM     16  C   UNL     1     135.874 120.294 135.235  0.00  0.00    +0.000 A 
ATOM     17  C   UNL     1     134.274 119.367 136.598  0.00  0.00    +0.000 A 
ATOM     18  C   UNL     1     133.371 119.357 137.783  0.00  0.00    +0.000 C 
BRANCH  14  19
ATOM     19  O   UNL     1     136.997 118.136 134.678  0.00  0.00    +0.000 OA
ATOM     20  H   UNL     1     137.141 118.120 133.706  0.00  0.00    +0.000 HD
ENDBRANCH  14  19
BRANCH  15  21
ATOM     21  O   UNL     1     135.081 117.035 136.414  0.00  0.00    +0.000 OA
ATOM     22  H   UNL     1     135.467 116.437 135.746  0.00  0.00    +0.000 HD
ENDBRANCH  15  21
ENDBRANCH   4  16
BRANCH  11  23
ATOM     23  O   UNL     1     140.438 125.779 132.491  0.00  0.00    +0.000 OA
BRANCH  23  24
ATOM     24  C   UNL     1     140.230 127.054 132.814  0.00  0.00    +0.000 C 
ATOM     25  C   UNL     1     139.987 128.521 133.185  0.00  0.00    +0.000 C 
BRANCH  25  26
ATOM     26  C   UNL     1     139.743 129.987 133.554  0.00  0.00    +0.000 C 
ATOM     27  C   UNL     1     139.491 131.451 133.923  0.00  0.00    +0.000 C 
ATOM     28  C   UNL     1     139.227 132.915 134.294  0.00  0.00    +0.000 C 
ENDBRANCH  25  26
ENDBRANCH  23  24
ENDBRANCH  11  23
TORSDOF 6
ENDMDL
MODEL 8
REMARK VINA RESULT:      -6.2     29.066     33.385
REMARK  Name = 60953_Capecitabine.pdbqt.pdb
REMARK  6 active torsions:
REMARK  status: ('A' for Active; 'I' for Inactive)
REMARK    1  A    between atoms: N_4  and  C_16
REMARK    2  A    between atoms: C_11  and  O_23
REMARK    3  A    between atoms: C_14  and  O_19
REMARK    4  A    between atoms: C_15  and  O_21
REMARK    5  A    between atoms: O_23  and  C_24
REMARK    6  A    between atoms: C_25  and  C_26
REMARK                            x       y       z     vdW  Elec       q    Type
REMARK                         _______ _______ _______ _____ _____    ______ ____
ROOT
ATOM      1  F   UNL     1     145.507 126.273  97.629  0.00  0.00    +0.000 F 
ATOM      2  O   UNL     1     143.994 123.439 101.916  0.00  0.00    +0.000 OA
ATOM      3  O   UNL     1     143.080 121.914  97.593  0.00  0.00    +0.000 OA
ATOM      4  N   UNL     1     144.852 125.423 101.062  0.00  0.00    +0.000 N 
ATOM      5  N   UNL     1     143.965 123.704  99.642  0.00  0.00    +0.000 NA
ATOM      6  N   UNL     1     144.011 124.027  97.309  0.00  0.00    +0.000 N 
ATOM      7  C   UNL     1     145.072 126.098  99.916  0.00  0.00    +0.000 C 
ATOM      8  C   UNL     1     144.248 124.145 100.942  0.00  0.00    +0.000 C 
ATOM      9  C   UNL     1     144.813 125.821  98.687  0.00  0.00    +0.000 C 
ATOM     10  C   UNL     1     144.232 124.443  98.606  0.00  0.00    +0.000 C 
ATOM     11  C   UNL     1     143.489 122.824  96.888  0.00  0.00    +0.000 C 
ATOM     12  H   UNL     1     144.277 124.645  96.555  0.00  0.00    +0.000 HD
ENDROOT
BRANCH   4  16
ATOM     13  O   UNL     1     146.558 126.277 102.551  0.00  0.00    +0.000 OA
ATOM     14  C   UNL     1     144.407 126.477 103.360  0.00  0.00    +0.000 A 
ATOM     15  C   UNL     1     145.311 126.959 104.360  0.00  0.00    +0.000 A 
ATOM     16  C   UNL     1     145.203 126.027 102.241  0.00  0.00    +0.000 A 
ATOM     17  C   UNL     1     146.643 126.839 103.835  0.00  0.00    +0.000 A 
ATOM     18  C   UNL     1     147.969 126.951 104.504  0.00  0.00    +0.000 C 
BRANCH  14  19
ATOM     19  O   UNL     1     143.208 125.944 103.739  0.00  0.00    +0.000 OA
ATOM     20  H   UNL     1     143.307 125.277 104.454  0.00  0.00    +0.000 HD
ENDBRANCH  14  19
BRANCH  15  21
ATOM     21  O   UNL     1     145.008 126.859 105.692  0.00  0.00    +0.000 OA
ATOM     22  H   UNL     1     145.614 126.234 106.134  0.00  0.00    +0.000 HD
ENDBRANCH  15  21
ENDBRANCH   4  16
BRANCH  11  23
ATOM     23  O   UNL     1     143.485 122.810  95.521  0.00  0.00    +0.000 OA
BRANCH  23  24
ATOM     24  C   UNL     1     143.530 121.607  94.955  0.00  0.00    +0.000 C 
ATOM     25  C   UNL     1     143.579 120.220  94.304  0.00  0.00    +0.000 C 
BRANCH  25  26
ATOM     26  C   UNL     1     143.627 118.834  93.654  0.00  0.00    +0.000 C 
ATOM     27  C   UNL     1     143.668 117.449  93.004  0.00  0.00    +0.000 C 
ATOM     28  C   UNL     1     143.698 116.065  92.345  0.00  0.00    +0.000 C 
ENDBRANCH  25  26
ENDBRANCH  23  24
ENDBRANCH  11  23
TORSDOF 6
ENDMDL
MODEL 9
REMARK VINA RESULT:      -6.2      4.930      6.739
REMARK  Name = 60953_Capecitabine.pdbqt.pdb
REMARK  6 active torsions:
REMARK  status: ('A' for Active; 'I' for Inactive)
REMARK    1  A    between atoms: N_4  and  C_16
REMARK    2  A    between atoms: C_11  and  O_23
REMARK    3  A    between atoms: C_14  and  O_19
REMARK    4  A    between atoms: C_15  and  O_21
REMARK    5  A    between atoms: O_23  and  C_24
REMARK    6  A    between atoms: C_25  and  C_26
REMARK                            x       y       z     vdW  Elec       q    Type
REMARK                         _______ _______ _______ _____ _____    ______ ____
ROOT
ATOM      1  F   UNL     1     137.932 122.650 136.978  0.00  0.00    +0.000 F 
ATOM      2  O   UNL     1     135.392 121.400 132.430  0.00  0.00    +0.000 OA
ATOM      3  O   UNL     1     139.547 123.541 132.342  0.00  0.00    +0.000 OA
ATOM      4  N   UNL     1     135.327 121.567 134.747  0.00  0.00    +0.000 N 
ATOM      5  N   UNL     1     137.156 122.436 133.459  0.00  0.00    +0.000 NA
ATOM      6  N   UNL     1     138.958 123.445 134.591  0.00  0.00    +0.000 N 
ATOM      7  C   UNL     1     136.003 122.037 135.814  0.00  0.00    +0.000 C 
ATOM      8  C   UNL     1     135.917 121.780 133.474  0.00  0.00    +0.000 C 
ATOM      9  C   UNL     1     137.107 122.690 135.918  0.00  0.00    +0.000 C 
ATOM     10  C   UNL     1     137.720 122.838 134.559  0.00  0.00    +0.000 C 
ATOM     11  C   UNL     1     139.782 123.732 133.525  0.00  0.00    +0.000 C 
ATOM     12  H   UNL     1     139.346 123.699 135.489  0.00  0.00    +0.000 HD
ENDROOT
BRANCH   4  16
ATOM     13  O   UNL     1     133.813 119.722 134.342  0.00  0.00    +0.000 OA
ATOM     14  C   UNL     1     132.982 121.337 135.764  0.00  0.00    +0.000 A 
ATOM     15  C   UNL     1     131.967 120.347 135.565  0.00  0.00    +0.000 A 
ATOM     16  C   UNL     1     134.125 120.948 134.970  0.00  0.00    +0.000 A 
ATOM     17  C   UNL     1     132.506 119.344 134.688  0.00  0.00    +0.000 A 
ATOM     18  C   UNL     1     131.841 118.232 133.952  0.00  0.00    +0.000 C 
BRANCH  14  19
ATOM     19  O   UNL     1     132.619 122.623 136.046  0.00  0.00    +0.000 OA
ATOM     20  H   UNL     1     133.027 122.950 136.878  0.00  0.00    +0.000 HD
ENDBRANCH  14  19
BRANCH  15  21
ATOM     21  O   UNL     1     130.638 120.677 135.615  0.00  0.00    +0.000 OA
ATOM     22  H   UNL     1     130.199 120.213 136.353  0.00  0.00    +0.000 HD
ENDBRANCH  15  21
ENDBRANCH   4  16
BRANCH  11  23
ATOM     23  O   UNL     1     140.931 124.294 134.007  0.00  0.00    +0.000 OA
BRANCH  23  24
ATOM     24  C   UNL     1     141.895 123.440 134.347  0.00  0.00    +0.000 C 
ATOM     25  C   UNL     1     143.002 122.456 134.738  0.00  0.00    +0.000 C 
BRANCH  25  26
ATOM     26  C   UNL     1     144.107 121.471 135.130  0.00  0.00    +0.000 C 
ATOM     27  C   UNL     1     145.212 120.489 135.529  0.00  0.00    +0.000 C 
ATOM     28  C   UNL     1     146.315 119.507 135.940  0.00  0.00    +0.000 C 
ENDBRANCH  25  26
ENDBRANCH  23  24
ENDBRANCH  11  23
TORSDOF 6
ENDMDL
