MODEL 1
REMARK VINA RESULT:      -7.1      0.000      0.000
REMARK  Name = 6223_Gliotoxin.pdbqt.pdb
REMARK  3 active torsions:
REMARK  status: ('A' for Active; 'I' for Inactive)
REMARK    1  A    between atoms: C_10  and  C_21
REMARK    2  A    between atoms: C_14  and  O_19
REMARK    3  A    between atoms: C_21  and  O_22
REMARK                            x       y       z     vdW  Elec       q    Type
REMARK                         _______ _______ _______ _____ _____    ______ ____
ROOT
ATOM      1  S   UNL     1     143.458 127.636 100.240  0.00  0.00    +0.000 S 
ATOM      2  S   UNL     1     145.406 127.567 100.920  0.00  0.00    +0.000 S 
ATOM      3  O   UNL     1     145.648 123.968 100.551  0.00  0.00    +0.000 OA
ATOM      4  O   UNL     1     142.022 126.586 103.316  0.00  0.00    +0.000 OA
ATOM      5  N   UNL     1     143.563 124.932 100.652  0.00  0.00    +0.000 N 
ATOM      6  N   UNL     1     144.301 126.105 102.989  0.00  0.00    +0.000 N 
ATOM      7  C   UNL     1     142.786 126.146 101.052  0.00  0.00    +0.000 C 
ATOM      8  C   UNL     1     142.777 124.042  99.919  0.00  0.00    +0.000 A 
ATOM      9  C   UNL     1     141.450 125.801 100.572  0.00  0.00    +0.000 C 
ATOM     10  C   UNL     1     145.366 126.002 101.938  0.00  0.00    +0.000 C 
ATOM     11  C   UNL     1     141.361 124.552  99.942  0.00  0.00    +0.000 A 
ATOM     12  C   UNL     1     144.908 124.847 100.991  0.00  0.00    +0.000 C 
ATOM     13  C   UNL     1     142.952 126.283 102.566  0.00  0.00    +0.000 C 
ATOM     14  C   UNL     1     143.187 123.034  98.914  0.00  0.00    +0.000 A 
ATOM     15  C   UNL     1     140.674 124.221  98.887  0.00  0.00    +0.000 A 
ATOM     16  C   UNL     1     142.156 122.815  97.936  0.00  0.00    +0.000 A 
ATOM     17  C   UNL     1     144.736 126.192 104.383  0.00  0.00    +0.000 C 
ATOM     18  C   UNL     1     141.047 123.244  97.760  0.00  0.00    +0.000 A 
ENDROOT
BRANCH  14  19
ATOM     19  O   UNL     1     144.493 122.766  98.622  0.00  0.00    +0.000 OA
ATOM     20  H   UNL     1     144.887 122.088  99.207  0.00  0.00    +0.000 HD
ENDBRANCH  14  19
BRANCH  10  21
ATOM     21  C   UNL     1     146.735 125.741 102.459  0.00  0.00    +0.000 C 
BRANCH  21  22
ATOM     22  O   UNL     1     147.956 125.499 102.942  0.00  0.00    +0.000 OA
ATOM     23  H   UNL     1     148.590 126.185 102.661  0.00  0.00    +0.000 HD
ENDBRANCH  21  22
ENDBRANCH  10  21
TORSDOF 3
ENDMDL
MODEL 2
REMARK VINA RESULT:      -6.7      3.298      4.490
REMARK  Name = 6223_Gliotoxin.pdbqt.pdb
REMARK  3 active torsions:
REMARK  status: ('A' for Active; 'I' for Inactive)
REMARK    1  A    between atoms: C_10  and  C_21
REMARK    2  A    between atoms: C_14  and  O_19
REMARK    3  A    between atoms: C_21  and  O_22
REMARK                            x       y       z     vdW  Elec       q    Type
REMARK                         _______ _______ _______ _____ _____    ______ ____
ROOT
ATOM      1  S   UNL     1     144.362 124.870  99.960  0.00  0.00    +0.000 S 
ATOM      2  S   UNL     1     144.195 124.658 102.006  0.00  0.00    +0.000 S 
ATOM      3  O   UNL     1     142.840 127.988 102.471  0.00  0.00    +0.000 OA
ATOM      4  O   UNL     1     147.366 126.764 100.092  0.00  0.00    +0.000 OA
ATOM      5  N   UNL     1     143.983 127.520 100.533  0.00  0.00    +0.000 N 
ATOM      6  N   UNL     1     146.073 126.685 102.055  0.00  0.00    +0.000 N 
ATOM      7  C   UNL     1     144.952 126.595  99.867  0.00  0.00    +0.000 C 
ATOM      8  C   UNL     1     143.406 128.399  99.615  0.00  0.00    +0.000 A 
ATOM      9  C   UNL     1     144.953 127.115  98.502  0.00  0.00    +0.000 C 
ATOM     10  C   UNL     1     144.705 126.361 102.578  0.00  0.00    +0.000 C 
ATOM     11  C   UNL     1     144.104 128.211  98.295  0.00  0.00    +0.000 A 
ATOM     12  C   UNL     1     143.742 127.384 101.894  0.00  0.00    +0.000 C 
ATOM     13  C   UNL     1     146.265 126.717 100.644  0.00  0.00    +0.000 C 
ATOM     14  C   UNL     1     142.095 129.088  99.671  0.00  0.00    +0.000 A 
ATOM     15  C   UNL     1     143.349 128.472  97.268  0.00  0.00    +0.000 A 
ATOM     16  C   UNL     1     141.570 129.328  98.354  0.00  0.00    +0.000 A 
ATOM     17  C   UNL     1     147.162 126.776 103.028  0.00  0.00    +0.000 C 
ATOM     18  C   UNL     1     141.954 129.116  97.234  0.00  0.00    +0.000 A 
ENDROOT
BRANCH  14  19
ATOM     19  O   UNL     1     141.264 129.016 100.751  0.00  0.00    +0.000 OA
ATOM     20  H   UNL     1     141.364 128.185 101.258  0.00  0.00    +0.000 HD
ENDBRANCH  14  19
BRANCH  10  21
ATOM     21  C   UNL     1     144.571 126.423 104.058  0.00  0.00    +0.000 C 
BRANCH  21  22
ATOM     22  O   UNL     1     144.464 126.491 105.388  0.00  0.00    +0.000 OA
ATOM     23  H   UNL     1     143.860 125.805 105.730  0.00  0.00    +0.000 HD
ENDBRANCH  21  22
ENDBRANCH  10  21
TORSDOF 3
ENDMDL
MODEL 3
REMARK VINA RESULT:      -6.5      3.253      5.343
REMARK  Name = 6223_Gliotoxin.pdbqt.pdb
REMARK  3 active torsions:
REMARK  status: ('A' for Active; 'I' for Inactive)
REMARK    1  A    between atoms: C_10  and  C_21
REMARK    2  A    between atoms: C_14  and  O_19
REMARK    3  A    between atoms: C_21  and  O_22
REMARK                            x       y       z     vdW  Elec       q    Type
REMARK                         _______ _______ _______ _____ _____    ______ ____
ROOT
ATOM      1  S   UNL     1     145.423 125.183  99.678  0.00  0.00    +0.000 S 
ATOM      2  S   UNL     1     146.756 126.372  98.645  0.00  0.00    +0.000 S 
ATOM      3  O   UNL     1     147.119 128.732 101.373  0.00  0.00    +0.000 OA
ATOM      4  O   UNL     1     142.616 127.280  99.080  0.00  0.00    +0.000 OA
ATOM      5  N   UNL     1     145.279 127.354 101.340  0.00  0.00    +0.000 N 
ATOM      6  N   UNL     1     144.742 128.255  98.833  0.00  0.00    +0.000 N 
ATOM      7  C   UNL     1     144.418 126.470 100.495  0.00  0.00    +0.000 C 
ATOM      8  C   UNL     1     144.965 127.228 102.694  0.00  0.00    +0.000 A 
ATOM      9  C   UNL     1     143.506 125.919 101.494  0.00  0.00    +0.000 C 
ATOM     10  C   UNL     1     146.192 128.072  99.172  0.00  0.00    +0.000 C 
ATOM     11  C   UNL     1     143.737 126.364 102.803  0.00  0.00    +0.000 A 
ATOM     12  C   UNL     1     146.266 128.120 100.732  0.00  0.00    +0.000 C 
ATOM     13  C   UNL     1     143.795 127.372  99.427  0.00  0.00    +0.000 C 
ATOM     14  C   UNL     1     145.819 127.459 103.882  0.00  0.00    +0.000 A 
ATOM     15  C   UNL     1     143.677 125.688 103.914  0.00  0.00    +0.000 A 
ATOM     16  C   UNL     1     145.424 126.626 104.985  0.00  0.00    +0.000 A 
ATOM     17  C   UNL     1     144.411 129.216  97.782  0.00  0.00    +0.000 C 
ATOM     18  C   UNL     1     144.560 125.809 105.166  0.00  0.00    +0.000 A 
ENDROOT
BRANCH  14  19
ATOM     19  O   UNL     1     147.090 127.949 103.799  0.00  0.00    +0.000 OA
ATOM     20  H   UNL     1     147.712 127.331 103.363  0.00  0.00    +0.000 HD
ENDBRANCH  14  19
BRANCH  10  21
ATOM     21  C   UNL     1     147.105 129.082  98.573  0.00  0.00    +0.000 C 
BRANCH  21  22
ATOM     22  O   UNL     1     147.912 130.000  98.035  0.00  0.00    +0.000 OA
ATOM     23  H   UNL     1     147.683 130.897  98.345  0.00  0.00    +0.000 HD
ENDBRANCH  21  22
ENDBRANCH  10  21
TORSDOF 3
ENDMDL
MODEL 4
REMARK VINA RESULT:      -6.2      2.869      6.045
REMARK  Name = 6223_Gliotoxin.pdbqt.pdb
REMARK  3 active torsions:
REMARK  status: ('A' for Active; 'I' for Inactive)
REMARK    1  A    between atoms: C_10  and  C_21
REMARK    2  A    between atoms: C_14  and  O_19
REMARK    3  A    between atoms: C_21  and  O_22
REMARK                            x       y       z     vdW  Elec       q    Type
REMARK                         _______ _______ _______ _____ _____    ______ ____
ROOT
ATOM      1  S   UNL     1     146.647 128.226  98.725  0.00  0.00    +0.000 S 
ATOM      2  S   UNL     1     144.909 129.185  98.158  0.00  0.00    +0.000 S 
ATOM      3  O   UNL     1     143.173 128.341 101.227  0.00  0.00    +0.000 OA
ATOM      4  O   UNL     1     145.477 124.969  97.916  0.00  0.00    +0.000 OA
ATOM      5  N   UNL     1     145.027 127.119 100.633  0.00  0.00    +0.000 N 
ATOM      6  N   UNL     1     143.847 126.634  98.234  0.00  0.00    +0.000 N 
ATOM      7  C   UNL     1     145.945 126.738  99.515  0.00  0.00    +0.000 C 
ATOM      8  C   UNL     1     145.522 126.693 101.866  0.00  0.00    +0.000 A 
ATOM      9  C   UNL     1     146.951 125.952 100.226  0.00  0.00    +0.000 C 
ATOM     10  C   UNL     1     143.625 127.999  98.815  0.00  0.00    +0.000 C 
ATOM     11  C   UNL     1     146.735 125.841 101.606  0.00  0.00    +0.000 A 
ATOM     12  C   UNL     1     143.879 127.848 100.349  0.00  0.00    +0.000 C 
ATOM     13  C   UNL     1     145.089 125.986  98.494  0.00  0.00    +0.000 C 
ATOM     14  C   UNL     1     145.282 127.250 103.218  0.00  0.00    +0.000 A 
ATOM     15  C   UNL     1     147.609 125.875 102.571  0.00  0.00    +0.000 A 
ATOM     16  C   UNL     1     146.406 127.029 104.087  0.00  0.00    +0.000 A 
ATOM     17  C   UNL     1     142.846 126.130  97.294  0.00  0.00    +0.000 C 
ATOM     18  C   UNL     1     147.474 126.488 103.973  0.00  0.00    +0.000 A 
ENDROOT
BRANCH  14  19
ATOM     19  O   UNL     1     144.407 128.270 103.456  0.00  0.00    +0.000 OA
ATOM     20  H   UNL     1     143.499 128.080 103.143  0.00  0.00    +0.000 HD
ENDBRANCH  14  19
BRANCH  10  21
ATOM     21  C   UNL     1     142.276 128.574  98.561  0.00  0.00    +0.000 C 
BRANCH  21  22
ATOM     22  O   UNL     1     141.074 129.106  98.325  0.00  0.00    +0.000 OA
ATOM     23  H   UNL     1     140.722 128.814  97.463  0.00  0.00    +0.000 HD
ENDBRANCH  21  22
ENDBRANCH  10  21
TORSDOF 3
ENDMDL
MODEL 5
REMARK VINA RESULT:      -5.9      2.720      3.001
REMARK  Name = 6223_Gliotoxin.pdbqt.pdb
REMARK  3 active torsions:
REMARK  status: ('A' for Active; 'I' for Inactive)
REMARK    1  A    between atoms: C_10  and  C_21
REMARK    2  A    between atoms: C_14  and  O_19
REMARK    3  A    between atoms: C_21  and  O_22
REMARK                            x       y       z     vdW  Elec       q    Type
REMARK                         _______ _______ _______ _____ _____    ______ ____
ROOT
ATOM      1  S   UNL     1     145.743 126.033  96.841  0.00  0.00    +0.000 S 
ATOM      2  S   UNL     1     147.083 125.407  98.281  0.00  0.00    +0.000 S 
ATOM      3  O   UNL     1     144.522 123.828 100.304  0.00  0.00    +0.000 OA
ATOM      4  O   UNL     1     144.585 128.834  98.697  0.00  0.00    +0.000 OA
ATOM      5  N   UNL     1     143.892 125.410  98.759  0.00  0.00    +0.000 N 
ATOM      6  N   UNL     1     145.657 127.127  99.909  0.00  0.00    +0.000 N 
ATOM      7  C   UNL     1     144.352 126.548  97.905  0.00  0.00    +0.000 C 
ATOM      8  C   UNL     1     142.593 125.021  98.433  0.00  0.00    +0.000 A 
ATOM      9  C   UNL     1     143.141 126.841  97.143  0.00  0.00    +0.000 C 
ATOM     10  C   UNL     1     146.086 125.691  99.834  0.00  0.00    +0.000 C 
ATOM     11  C   UNL     1     142.050 126.014  97.441  0.00  0.00    +0.000 A 
ATOM     12  C   UNL     1     144.767 124.867  99.692  0.00  0.00    +0.000 C 
ATOM     13  C   UNL     1     144.833 127.638  98.865  0.00  0.00    +0.000 C 
ATOM     14  C   UNL     1     141.937 123.702  98.599  0.00  0.00    +0.000 A 
ATOM     15  C   UNL     1     141.169 125.505  96.628  0.00  0.00    +0.000 A 
ATOM     16  C   UNL     1     140.928 123.486  97.598  0.00  0.00    +0.000 A 
ATOM     17  C   UNL     1     146.255 127.955 100.955  0.00  0.00    +0.000 C 
ATOM     18  C   UNL     1     140.490 124.128  96.680  0.00  0.00    +0.000 A 
ENDROOT
BRANCH  14  19
ATOM     19  O   UNL     1     142.538 122.647  99.223  0.00  0.00    +0.000 OA
ATOM     20  H   UNL     1     141.928 122.142  99.798  0.00  0.00    +0.000 HD
ENDBRANCH  14  19
BRANCH  10  21
ATOM     21  C   UNL     1     146.880 125.215 100.999  0.00  0.00    +0.000 C 
BRANCH  21  22
ATOM     22  O   UNL     1     147.604 124.802 102.042  0.00  0.00    +0.000 OA
ATOM     23  H   UNL     1     148.415 125.335 102.142  0.00  0.00    +0.000 HD
ENDBRANCH  21  22
ENDBRANCH  10  21
TORSDOF 3
ENDMDL
MODEL 6
REMARK VINA RESULT:      -5.7      2.806      5.831
REMARK  Name = 6223_Gliotoxin.pdbqt.pdb
REMARK  3 active torsions:
REMARK  status: ('A' for Active; 'I' for Inactive)
REMARK    1  A    between atoms: C_10  and  C_21
REMARK    2  A    between atoms: C_14  and  O_19
REMARK    3  A    between atoms: C_21  and  O_22
REMARK                            x       y       z     vdW  Elec       q    Type
REMARK                         _______ _______ _______ _____ _____    ______ ____
ROOT
ATOM      1  S   UNL     1     145.205 125.415  98.248  0.00  0.00    +0.000 S 
ATOM      2  S   UNL     1     144.192 126.288  96.676  0.00  0.00    +0.000 S 
ATOM      3  O   UNL     1     141.704 127.813  98.828  0.00  0.00    +0.000 OA
ATOM      4  O   UNL     1     142.933 122.706  98.609  0.00  0.00    +0.000 OA
ATOM      5  N   UNL     1     142.932 126.045  99.636  0.00  0.00    +0.000 N 
ATOM      6  N   UNL     1     142.147 124.607  97.469  0.00  0.00    +0.000 N 
ATOM      7  C   UNL     1     143.795 124.878  99.275  0.00  0.00    +0.000 C 
ATOM      8  C   UNL     1     142.948 126.285 101.011  0.00  0.00    +0.000 A 
ATOM      9  C   UNL     1     144.209 124.410 100.595  0.00  0.00    +0.000 C 
ATOM     10  C   UNL     1     142.423 126.062  97.230  0.00  0.00    +0.000 C 
ATOM     11  C   UNL     1     143.704 125.161 101.666  0.00  0.00    +0.000 A 
ATOM     12  C   UNL     1     142.286 126.749  98.627  0.00  0.00    +0.000 C 
ATOM     13  C   UNL     1     142.914 123.929  98.460  0.00  0.00    +0.000 C 
ATOM     14  C   UNL     1     142.713 127.550 101.747  0.00  0.00    +0.000 A 
ATOM     15  C   UNL     1     144.303 125.511 102.767  0.00  0.00    +0.000 A 
ATOM     16  C   UNL     1     143.443 127.582 102.985  0.00  0.00    +0.000 A 
ATOM     17  C   UNL     1     141.229 123.935  96.549  0.00  0.00    +0.000 C 
ATOM     18  C   UNL     1     144.176 126.822 103.559  0.00  0.00    +0.000 A 
ENDROOT
BRANCH  14  19
ATOM     19  O   UNL     1     142.332 128.707 101.131  0.00  0.00    +0.000 OA
ATOM     20  H   UNL     1     143.084 129.299 100.925  0.00  0.00    +0.000 HD
ENDBRANCH  14  19
BRANCH  10  21
ATOM     21  C   UNL     1     141.529 126.712  96.235  0.00  0.00    +0.000 C 
BRANCH  21  22
ATOM     22  O   UNL     1     140.711 127.290  95.352  0.00  0.00    +0.000 OA
ATOM     23  H   UNL     1     139.913 127.645  95.788  0.00  0.00    +0.000 HD
ENDBRANCH  21  22
ENDBRANCH  10  21
TORSDOF 3
ENDMDL
MODEL 7
REMARK VINA RESULT:      -5.5      2.649      2.977
REMARK  Name = 6223_Gliotoxin.pdbqt.pdb
REMARK  3 active torsions:
REMARK  status: ('A' for Active; 'I' for Inactive)
REMARK    1  A    between atoms: C_10  and  C_21
REMARK    2  A    between atoms: C_14  and  O_19
REMARK    3  A    between atoms: C_21  and  O_22
REMARK                            x       y       z     vdW  Elec       q    Type
REMARK                         _______ _______ _______ _____ _____    ______ ____
ROOT
ATOM      1  S   UNL     1     145.151 127.602  98.649  0.00  0.00    +0.000 S 
ATOM      2  S   UNL     1     145.655 126.648 100.408  0.00  0.00    +0.000 S 
ATOM      3  O   UNL     1     143.140 124.069  99.997  0.00  0.00    +0.000 OA
ATOM      4  O   UNL     1     142.314 129.261 100.001  0.00  0.00    +0.000 OA
ATOM      5  N   UNL     1     142.917 126.030  98.818  0.00  0.00    +0.000 N 
ATOM      6  N   UNL     1     143.100 127.378 101.170  0.00  0.00    +0.000 N 
ATOM      7  C   UNL     1     143.333 127.463  98.722  0.00  0.00    +0.000 C 
ATOM      8  C   UNL     1     142.209 125.628  97.684  0.00  0.00    +0.000 A 
ATOM      9  C   UNL     1     142.688 127.865  97.474  0.00  0.00    +0.000 C 
ATOM     10  C   UNL     1     143.966 126.160 101.038  0.00  0.00    +0.000 C 
ATOM     11  C   UNL     1     141.965 126.848  96.837  0.00  0.00    +0.000 A 
ATOM     12  C   UNL     1     143.295 125.287  99.929  0.00  0.00    +0.000 C 
ATOM     13  C   UNL     1     142.830 128.142  99.998  0.00  0.00    +0.000 C 
ATOM     14  C   UNL     1     142.063 124.275  97.098  0.00  0.00    +0.000 A 
ATOM     15  C   UNL     1     141.880 126.586  95.564  0.00  0.00    +0.000 A 
ATOM     16  C   UNL     1     141.877 124.335  95.674  0.00  0.00    +0.000 A 
ATOM     17  C   UNL     1     142.732 127.801 102.521  0.00  0.00    +0.000 C 
ATOM     18  C   UNL     1     141.796 125.220  94.864  0.00  0.00    +0.000 A 
ENDROOT
BRANCH  14  19
ATOM     19  O   UNL     1     142.566 123.152  97.688  0.00  0.00    +0.000 OA
ATOM     20  H   UNL     1     142.618 122.387  97.079  0.00  0.00    +0.000 HD
ENDBRANCH  14  19
BRANCH  10  21
ATOM     21  C   UNL     1     144.136 125.376 102.291  0.00  0.00    +0.000 C 
BRANCH  21  22
ATOM     22  O   UNL     1     144.295 124.689 103.424  0.00  0.00    +0.000 OA
ATOM     23  H   UNL     1     144.564 125.273 104.158  0.00  0.00    +0.000 HD
ENDBRANCH  21  22
ENDBRANCH  10  21
TORSDOF 3
ENDMDL
MODEL 8
REMARK VINA RESULT:      -5.3      3.994      5.851
REMARK  Name = 6223_Gliotoxin.pdbqt.pdb
REMARK  3 active torsions:
REMARK  status: ('A' for Active; 'I' for Inactive)
REMARK    1  A    between atoms: C_10  and  C_21
REMARK    2  A    between atoms: C_14  and  O_19
REMARK    3  A    between atoms: C_21  and  O_22
REMARK                            x       y       z     vdW  Elec       q    Type
REMARK                         _______ _______ _______ _____ _____    ______ ____
ROOT
ATOM      1  S   UNL     1     145.940 123.752  98.473  0.00  0.00    +0.000 S 
ATOM      2  S   UNL     1     144.325 123.363  99.698  0.00  0.00    +0.000 S 
ATOM      3  O   UNL     1     142.380 121.851  97.038  0.00  0.00    +0.000 OA
ATOM      4  O   UNL     1     144.515 126.656  97.000  0.00  0.00    +0.000 OA
ATOM      5  N   UNL     1     144.139 123.221  96.480  0.00  0.00    +0.000 N 
ATOM      6  N   UNL     1     143.031 125.153  98.037  0.00  0.00    +0.000 N 
ATOM      7  C   UNL     1     145.069 124.290  96.962  0.00  0.00    +0.000 C 
ATOM      8  C   UNL     1     144.537 122.721  95.240  0.00  0.00    +0.000 A 
ATOM      9  C   UNL     1     145.965 124.427  95.816  0.00  0.00    +0.000 C 
ATOM     10  C   UNL     1     142.909 123.747  98.543  0.00  0.00    +0.000 C 
ATOM     11  C   UNL     1     145.678 123.570  94.745  0.00  0.00    +0.000 A 
ATOM     12  C   UNL     1     143.077 122.833  97.287  0.00  0.00    +0.000 C 
ATOM     13  C   UNL     1     144.195 125.502  97.292  0.00  0.00    +0.000 C 
ATOM     14  C   UNL     1     144.287 121.390  94.639  0.00  0.00    +0.000 A 
ATOM     15  C   UNL     1     146.506 122.927  93.974  0.00  0.00    +0.000 A 
ATOM     16  C   UNL     1     145.346 121.009  93.744  0.00  0.00    +0.000 A 
ATOM     17  C   UNL     1     142.032 126.122  98.487  0.00  0.00    +0.000 C 
ATOM     18  C   UNL     1     146.364 121.523  93.364  0.00  0.00    +0.000 A 
ENDROOT
BRANCH  14  19
ATOM     19  O   UNL     1     143.500 120.445  95.230  0.00  0.00    +0.000 OA
ATOM     20  H   UNL     1     143.629 119.549  94.858  0.00  0.00    +0.000 HD
ENDBRANCH  14  19
BRANCH  10  21
ATOM     21  C   UNL     1     141.632 123.445  99.244  0.00  0.00    +0.000 C 
BRANCH  21  22
ATOM     22  O   UNL     1     140.489 123.188  99.885  0.00  0.00    +0.000 OA
ATOM     23  H   UNL     1     140.311 123.857 100.573  0.00  0.00    +0.000 HD
ENDBRANCH  21  22
ENDBRANCH  10  21
TORSDOF 3
ENDMDL
MODEL 9
REMARK VINA RESULT:      -5.2     25.330     27.732
REMARK  Name = 6223_Gliotoxin.pdbqt.pdb
REMARK  3 active torsions:
REMARK  status: ('A' for Active; 'I' for Inactive)
REMARK    1  A    between atoms: C_10  and  C_21
REMARK    2  A    between atoms: C_14  and  O_19
REMARK    3  A    between atoms: C_21  and  O_22
REMARK                            x       y       z     vdW  Elec       q    Type
REMARK                         _______ _______ _______ _____ _____    ______ ____
ROOT
ATOM      1  S   UNL     1     153.076 132.315 124.692  0.00  0.00    +0.000 S 
ATOM      2  S   UNL     1     153.129 131.374 126.528  0.00  0.00    +0.000 S 
ATOM      3  O   UNL     1     149.838 132.556 127.486  0.00  0.00    +0.000 OA
ATOM      4  O   UNL     1     153.902 135.527 125.970  0.00  0.00    +0.000 OA
ATOM      5  N   UNL     1     150.960 133.650 125.804  0.00  0.00    +0.000 N 
ATOM      6  N   UNL     1     153.057 133.958 127.505  0.00  0.00    +0.000 N 
ATOM      7  C   UNL     1     152.292 133.893 125.167  0.00  0.00    +0.000 C 
ATOM      8  C   UNL     1     149.922 134.166 125.027  0.00  0.00    +0.000 A 
ATOM      9  C   UNL     1     151.913 134.702 124.012  0.00  0.00    +0.000 C 
ATOM     10  C   UNL     1     152.310 132.661 127.606  0.00  0.00    +0.000 C 
ATOM     11  C   UNL     1     150.537 134.946 123.896  0.00  0.00    +0.000 A 
ATOM     12  C   UNL     1     150.899 132.941 126.998  0.00  0.00    +0.000 C 
ATOM     13  C   UNL     1     153.155 134.581 126.227  0.00  0.00    +0.000 C 
ATOM     14  C   UNL     1     148.504 133.744 124.954  0.00  0.00    +0.000 A 
ATOM     15  C   UNL     1     149.802 134.967 122.822  0.00  0.00    +0.000 A 
ATOM     16  C   UNL     1     147.945 134.001 123.654  0.00  0.00    +0.000 A 
ATOM     17  C   UNL     1     153.784 134.412 128.690  0.00  0.00    +0.000 C 
ATOM     18  C   UNL     1     148.354 134.488 122.634  0.00  0.00    +0.000 A 
ENDROOT
BRANCH  14  19
ATOM     19  O   UNL     1     147.972 132.782 125.764  0.00  0.00    +0.000 OA
ATOM     20  H   UNL     1     148.391 132.750 126.648  0.00  0.00    +0.000 HD
ENDBRANCH  14  19
BRANCH  10  21
ATOM     21  C   UNL     1     152.189 132.116 128.984  0.00  0.00    +0.000 C 
BRANCH  21  22
ATOM     22  O   UNL     1     152.070 131.612 130.215  0.00  0.00    +0.000 OA
ATOM     23  H   UNL     1     151.857 132.310 130.864  0.00  0.00    +0.000 HD
ENDBRANCH  21  22
ENDBRANCH  10  21
TORSDOF 3
ENDMDL
