MODEL 1
REMARK VINA RESULT:      -6.6      0.000      0.000
REMARK  Name = 6256_Trifluridine.pdbqt.pdb
REMARK  5 active torsions:
REMARK  status: ('A' for Active; 'I' for Inactive)
REMARK    1  A    between atoms: N_3  and  C1*_11
REMARK    2  A    between atoms: C_7  and  C_23
REMARK    3  A    between atoms: C3*_12  and  O3*_15
REMARK    4  A    between atoms: C4*_14  and  C5*_17
REMARK    5  A    between atoms: C5*_17  and  O5*_18
REMARK                            x       y       z     vdW  Elec       q    Type
REMARK                         _______ _______ _______ _____ _____    ______ ____
ROOT
ATOM      1  O   UNL     1     145.378 123.056 100.272  0.00  0.00    +0.000 OA
ATOM      2  O   UNL     1     142.463 121.732  96.984  0.00  0.00    +0.000 OA
ATOM      3  N   UNL     1     143.265 124.120 100.163  0.00  0.00    +0.000 N 
ATOM      4  N   UNL     1     143.874 122.432  98.654  0.00  0.00    +0.000 N 
ATOM      5  C   UNL     1     142.123 124.112  99.448  0.00  0.00    +0.000 A 
ATOM      6  C   UNL     1     144.272 123.211  99.767  0.00  0.00    +0.000 A 
ATOM      7  C   UNL     1     141.674 123.452  98.430  0.00  0.00    +0.000 A 
ATOM      8  C   UNL     1     142.669 122.465  97.941  0.00  0.00    +0.000 A 
ATOM      9  H   UNL     1     144.561 121.765  98.330  0.00  0.00    +0.000 HD
ENDROOT
BRANCH   3  11
ATOM     10  O4* UNL     1     144.009 124.630 102.407  0.00  0.00    +0.000 OA
ATOM     11  C1* UNL     1     143.390 124.992 101.206  0.00  0.00    +0.000 A 
ATOM     12  C3* UNL     1     143.271 126.820 102.562  0.00  0.00    +0.000 A 
ATOM     13  C2* UNL     1     142.929 126.321 101.293  0.00  0.00    +0.000 A 
ATOM     14  C4* UNL     1     143.942 125.746 103.251  0.00  0.00    +0.000 A 
BRANCH  12  15
ATOM     15  O3* UNL     1     142.535 127.744 103.248  0.00  0.00    +0.000 OA
ATOM     16  H3* UNL     1     142.250 128.467 102.662  0.00  0.00    +0.000 HD
ENDBRANCH  12  15
BRANCH  14  17
ATOM     17  C5* UNL     1     144.286 125.683 104.616  0.00  0.00    +0.000 C 
BRANCH  17  18
ATOM     18  O5* UNL     1     144.614 125.624 105.903  0.00  0.00    +0.000 OA
ATOM     19  H5* UNL     1     143.825 125.449 106.444  0.00  0.00    +0.000 HD
ENDBRANCH  17  18
ENDBRANCH  14  17
ENDBRANCH   3  11
BRANCH   7  23
ATOM     20  F   UNL     1     140.037 122.408  97.105  0.00  0.00    +0.000 F 
ATOM     21  F   UNL     1     139.372 123.863  98.573  0.00  0.00    +0.000 F 
ATOM     22  F   UNL     1     140.399 124.542  96.784  0.00  0.00    +0.000 F 
ATOM     23  C   UNL     1     140.392 123.563  97.722  0.00  0.00    +0.000 C 
ENDBRANCH   7  23
TORSDOF 5
ENDMDL
MODEL 2
REMARK VINA RESULT:      -6.5      4.633      6.307
REMARK  Name = 6256_Trifluridine.pdbqt.pdb
REMARK  5 active torsions:
REMARK  status: ('A' for Active; 'I' for Inactive)
REMARK    1  A    between atoms: N_3  and  C1*_11
REMARK    2  A    between atoms: C_7  and  C_23
REMARK    3  A    between atoms: C3*_12  and  O3*_15
REMARK    4  A    between atoms: C4*_14  and  C5*_17
REMARK    5  A    between atoms: C5*_17  and  O5*_18
REMARK                            x       y       z     vdW  Elec       q    Type
REMARK                         _______ _______ _______ _____ _____    ______ ____
ROOT
ATOM      1  O   UNL     1     146.896 127.726 103.121  0.00  0.00    +0.000 OA
ATOM      2  O   UNL     1     142.374 127.028 103.471  0.00  0.00    +0.000 OA
ATOM      3  N   UNL     1     145.655 127.443 101.124  0.00  0.00    +0.000 N 
ATOM      4  N   UNL     1     144.629 127.381 103.231  0.00  0.00    +0.000 N 
ATOM      5  C   UNL     1     144.397 127.226 100.693  0.00  0.00    +0.000 A 
ATOM      6  C   UNL     1     145.845 127.537 102.521  0.00  0.00    +0.000 A 
ATOM      7  C   UNL     1     143.243 127.069 101.253  0.00  0.00    +0.000 A 
ATOM      8  C   UNL     1     143.341 127.152 102.732  0.00  0.00    +0.000 A 
ATOM      9  H   UNL     1     144.710 127.438 104.236  0.00  0.00    +0.000 HD
ENDROOT
BRANCH   3  11
ATOM     10  O4* UNL     1     147.190 128.792  99.829  0.00  0.00    +0.000 OA
ATOM     11  C1* UNL     1     146.662 127.553 100.208  0.00  0.00    +0.000 A 
ATOM     12  C3* UNL     1     148.265 127.115  98.648  0.00  0.00    +0.000 A 
ATOM     13  C2* UNL     1     147.303 126.526  99.487  0.00  0.00    +0.000 A 
ATOM     14  C4* UNL     1     148.177 128.537  98.868  0.00  0.00    +0.000 A 
BRANCH  12  15
ATOM     15  O3* UNL     1     148.632 126.613  97.431  0.00  0.00    +0.000 OA
ATOM     16  H3* UNL     1     147.978 125.970  97.107  0.00  0.00    +0.000 HD
ENDBRANCH  12  15
BRANCH  14  17
ATOM     17  C5* UNL     1     148.781 129.562  98.114  0.00  0.00    +0.000 C 
BRANCH  17  18
ATOM     18  O5* UNL     1     149.353 130.531  97.406  0.00  0.00    +0.000 OA
ATOM     19  H5* UNL     1     150.155 130.848  97.856  0.00  0.00    +0.000 HD
ENDBRANCH  17  18
ENDBRANCH  14  17
ENDBRANCH   3  11
BRANCH   7  23
ATOM     20  F   UNL     1     141.426 125.598 100.999  0.00  0.00    +0.000 F 
ATOM     21  F   UNL     1     141.003 127.728 101.052  0.00  0.00    +0.000 F 
ATOM     22  F   UNL     1     141.953 126.870  99.299  0.00  0.00    +0.000 F 
ATOM     23  C   UNL     1     141.928 126.811 100.653  0.00  0.00    +0.000 C 
ENDBRANCH   7  23
TORSDOF 5
ENDMDL
MODEL 3
REMARK VINA RESULT:      -6.5      4.460      6.312
REMARK  Name = 6256_Trifluridine.pdbqt.pdb
REMARK  5 active torsions:
REMARK  status: ('A' for Active; 'I' for Inactive)
REMARK    1  A    between atoms: N_3  and  C1*_11
REMARK    2  A    between atoms: C_7  and  C_23
REMARK    3  A    between atoms: C3*_12  and  O3*_15
REMARK    4  A    between atoms: C4*_14  and  C5*_17
REMARK    5  A    between atoms: C5*_17  and  O5*_18
REMARK                            x       y       z     vdW  Elec       q    Type
REMARK                         _______ _______ _______ _____ _____    ______ ____
ROOT
ATOM      1  O   UNL     1     147.617 125.881 102.604  0.00  0.00    +0.000 OA
ATOM      2  O   UNL     1     143.309 125.715 104.179  0.00  0.00    +0.000 OA
ATOM      3  N   UNL     1     145.902 126.805 101.256  0.00  0.00    +0.000 N 
ATOM      4  N   UNL     1     145.442 125.834 103.341  0.00  0.00    +0.000 N 
ATOM      5  C   UNL     1     144.569 127.003 101.245  0.00  0.00    +0.000 A 
ATOM      6  C   UNL     1     146.442 126.160 102.392  0.00  0.00    +0.000 A 
ATOM      7  C   UNL     1     143.589 126.742 102.048  0.00  0.00    +0.000 A 
ATOM      8  C   UNL     1     144.062 126.061 103.280  0.00  0.00    +0.000 A 
ATOM      9  H   UNL     1     145.778 125.369 104.173  0.00  0.00    +0.000 HD
ENDROOT
BRANCH   3  11
ATOM     10  O4* UNL     1     147.015 126.354  99.157  0.00  0.00    +0.000 OA
ATOM     11  C1* UNL     1     146.645 127.222 100.189  0.00  0.00    +0.000 A 
ATOM     12  C3* UNL     1     147.885 128.457  98.730  0.00  0.00    +0.000 A 
ATOM     13  C2* UNL     1     147.178 128.503  99.944  0.00  0.00    +0.000 A 
ATOM     14  C4* UNL     1     147.781 127.101  98.252  0.00  0.00    +0.000 A 
BRANCH  12  15
ATOM     15  O3* UNL     1     148.987 129.216  98.454  0.00  0.00    +0.000 OA
ATOM     16  H3* UNL     1     149.793 128.671  98.446  0.00  0.00    +0.000 HD
ENDBRANCH  12  15
BRANCH  14  17
ATOM     17  C5* UNL     1     148.493 126.506  97.192  0.00  0.00    +0.000 C 
BRANCH  17  18
ATOM     18  O5* UNL     1     149.162 125.945  96.189  0.00  0.00    +0.000 OA
ATOM     19  H5* UNL     1     149.630 125.152  96.500  0.00  0.00    +0.000 HD
ENDBRANCH  17  18
ENDBRANCH  14  17
ENDBRANCH   3  11
BRANCH   7  23
ATOM     20  F   UNL     1     141.618 127.622 102.979  0.00  0.00    +0.000 F 
ATOM     21  F   UNL     1     141.891 127.804 100.832  0.00  0.00    +0.000 F 
ATOM     22  F   UNL     1     141.440 125.862 101.691  0.00  0.00    +0.000 F 
ATOM     23  C   UNL     1     142.151 126.997 101.898  0.00  0.00    +0.000 C 
ENDBRANCH   7  23
TORSDOF 5
ENDMDL
MODEL 4
REMARK VINA RESULT:      -6.3      1.683      2.155
REMARK  Name = 6256_Trifluridine.pdbqt.pdb
REMARK  5 active torsions:
REMARK  status: ('A' for Active; 'I' for Inactive)
REMARK    1  A    between atoms: N_3  and  C1*_11
REMARK    2  A    between atoms: C_7  and  C_23
REMARK    3  A    between atoms: C3*_12  and  O3*_15
REMARK    4  A    between atoms: C4*_14  and  C5*_17
REMARK    5  A    between atoms: C5*_17  and  O5*_18
REMARK                            x       y       z     vdW  Elec       q    Type
REMARK                         _______ _______ _______ _____ _____    ______ ____
ROOT
ATOM      1  O   UNL     1     144.664 122.921 100.796  0.00  0.00    +0.000 OA
ATOM      2  O   UNL     1     142.318 121.988  96.963  0.00  0.00    +0.000 OA
ATOM      3  N   UNL     1     143.385 124.660  99.822  0.00  0.00    +0.000 N 
ATOM      4  N   UNL     1     143.463 122.514  98.882  0.00  0.00    +0.000 N 
ATOM      5  C   UNL     1     142.572 124.904  98.775  0.00  0.00    +0.000 A 
ATOM      6  C   UNL     1     143.910 123.353  99.932  0.00  0.00    +0.000 A 
ATOM      7  C   UNL     1     142.116 124.217  97.780  0.00  0.00    +0.000 A 
ATOM      8  C   UNL     1     142.616 122.819  97.810  0.00  0.00    +0.000 A 
ATOM      9  H   UNL     1     143.812 121.566  98.914  0.00  0.00    +0.000 HD
ENDROOT
BRANCH   3  11
ATOM     10  O4* UNL     1     144.877 126.356 100.686  0.00  0.00    +0.000 OA
ATOM     11  C1* UNL     1     143.659 125.669 100.700  0.00  0.00    +0.000 A 
ATOM     12  C3* UNL     1     143.553 127.194 102.391  0.00  0.00    +0.000 A 
ATOM     13  C2* UNL     1     142.849 126.165 101.741  0.00  0.00    +0.000 A 
ATOM     14  C4* UNL     1     144.826 127.297 101.722  0.00  0.00    +0.000 A 
BRANCH  12  15
ATOM     15  O3* UNL     1     143.431 127.487 103.720  0.00  0.00    +0.000 OA
ATOM     16  H3* UNL     1     143.607 128.430 103.887  0.00  0.00    +0.000 HD
ENDBRANCH  12  15
BRANCH  14  17
ATOM     17  C5* UNL     1     145.956 128.031 102.135  0.00  0.00    +0.000 C 
BRANCH  17  18
ATOM     18  O5* UNL     1     147.020 128.726 102.525  0.00  0.00    +0.000 OA
ATOM     19  H5* UNL     1     146.866 129.678 102.393  0.00  0.00    +0.000 HD
ENDBRANCH  17  18
ENDBRANCH  14  17
ENDBRANCH   3  11
BRANCH   7  23
ATOM     20  F   UNL     1     141.079 125.967  96.601  0.00  0.00    +0.000 F 
ATOM     21  F   UNL     1     141.737 124.235  95.468  0.00  0.00    +0.000 F 
ATOM     22  F   UNL     1     140.002 124.070  96.763  0.00  0.00    +0.000 F 
ATOM     23  C   UNL     1     141.238 124.622  96.675  0.00  0.00    +0.000 C 
ENDBRANCH   7  23
TORSDOF 5
ENDMDL
MODEL 5
REMARK VINA RESULT:      -6.2      2.143      2.787
REMARK  Name = 6256_Trifluridine.pdbqt.pdb
REMARK  5 active torsions:
REMARK  status: ('A' for Active; 'I' for Inactive)
REMARK    1  A    between atoms: N_3  and  C1*_11
REMARK    2  A    between atoms: C_7  and  C_23
REMARK    3  A    between atoms: C3*_12  and  O3*_15
REMARK    4  A    between atoms: C4*_14  and  C5*_17
REMARK    5  A    between atoms: C5*_17  and  O5*_18
REMARK                            x       y       z     vdW  Elec       q    Type
REMARK                         _______ _______ _______ _____ _____    ______ ____
ROOT
ATOM      1  O   UNL     1     140.059 125.666 101.314  0.00  0.00    +0.000 OA
ATOM      2  O   UNL     1     140.665 122.988  97.637  0.00  0.00    +0.000 OA
ATOM      3  N   UNL     1     142.275 125.275 100.575  0.00  0.00    +0.000 N 
ATOM      4  N   UNL     1     140.426 124.341  99.475  0.00  0.00    +0.000 N 
ATOM      5  C   UNL     1     142.961 124.616  99.619  0.00  0.00    +0.000 A 
ATOM      6  C   UNL     1     140.867 125.157 100.545  0.00  0.00    +0.000 A 
ATOM      7  C   UNL     1     142.654 123.856  98.620  0.00  0.00    +0.000 A 
ATOM      8  C   UNL     1     141.185 123.673  98.506  0.00  0.00    +0.000 A 
ATOM      9  H   UNL     1     139.425 124.223  99.411  0.00  0.00    +0.000 HD
ENDROOT
BRANCH   3  11
ATOM     10  O4* UNL     1     143.612 125.396 102.586  0.00  0.00    +0.000 OA
ATOM     11  C1* UNL     1     142.962 126.000 101.505  0.00  0.00    +0.000 A 
ATOM     12  C3* UNL     1     143.891 127.691 102.719  0.00  0.00    +0.000 A 
ATOM     13  C2* UNL     1     143.117 127.398 101.582  0.00  0.00    +0.000 A 
ATOM     14  C4* UNL     1     144.187 126.425 103.342  0.00  0.00    +0.000 A 
BRANCH  12  15
ATOM     15  O3* UNL     1     143.760 128.828 103.464  0.00  0.00    +0.000 OA
ATOM     16  H3* UNL     1     143.533 129.590 102.902  0.00  0.00    +0.000 HD
ENDBRANCH  12  15
BRANCH  14  17
ATOM     17  C5* UNL     1     144.751 126.206 104.615  0.00  0.00    +0.000 C 
BRANCH  17  18
ATOM     18  O5* UNL     1     145.286 126.000 105.814  0.00  0.00    +0.000 OA
ATOM     19  H5* UNL     1     144.636 125.582 106.405  0.00  0.00    +0.000 HD
ENDBRANCH  17  18
ENDBRANCH  14  17
ENDBRANCH   3  11
BRANCH   7  23
ATOM     20  F   UNL     1     144.834 123.244  97.986  0.00  0.00    +0.000 F 
ATOM     21  F   UNL     1     143.228 121.843  97.567  0.00  0.00    +0.000 F 
ATOM     22  F   UNL     1     143.390 123.664  96.396  0.00  0.00    +0.000 F 
ATOM     23  C   UNL     1     143.520 123.170  97.652  0.00  0.00    +0.000 C 
ENDBRANCH   7  23
TORSDOF 5
ENDMDL
MODEL 6
REMARK VINA RESULT:      -6.1      2.468      2.803
REMARK  Name = 6256_Trifluridine.pdbqt.pdb
REMARK  5 active torsions:
REMARK  status: ('A' for Active; 'I' for Inactive)
REMARK    1  A    between atoms: N_3  and  C1*_11
REMARK    2  A    between atoms: C_7  and  C_23
REMARK    3  A    between atoms: C3*_12  and  O3*_15
REMARK    4  A    between atoms: C4*_14  and  C5*_17
REMARK    5  A    between atoms: C5*_17  and  O5*_18
REMARK                            x       y       z     vdW  Elec       q    Type
REMARK                         _______ _______ _______ _____ _____    ______ ____
ROOT
ATOM      1  O   UNL     1     147.495 126.433  99.658  0.00  0.00    +0.000 OA
ATOM      2  O   UNL     1     145.060 123.642  96.949  0.00  0.00    +0.000 OA
ATOM      3  N   UNL     1     145.384 125.692 100.433  0.00  0.00    +0.000 N 
ATOM      4  N   UNL     1     146.233 125.030  98.350  0.00  0.00    +0.000 N 
ATOM      5  C   UNL     1     144.342 124.922 100.063  0.00  0.00    +0.000 A 
ATOM      6  C   UNL     1     146.461 125.790  99.523  0.00  0.00    +0.000 A 
ATOM      7  C   UNL     1     144.045 124.203  99.030  0.00  0.00    +0.000 A 
ATOM      8  C   UNL     1     145.125 124.244  98.011  0.00  0.00    +0.000 A 
ATOM      9  H   UNL     1     146.975 125.068  97.665  0.00  0.00    +0.000 HD
ENDROOT
BRANCH   3  11
ATOM     10  O4* UNL     1     145.118 125.641 102.837  0.00  0.00    +0.000 OA
ATOM     11  C1* UNL     1     145.343 126.329 101.640  0.00  0.00    +0.000 A 
ATOM     12  C3* UNL     1     145.349 127.899 103.292  0.00  0.00    +0.000 A 
ATOM     13  C2* UNL     1     145.475 127.707 101.905  0.00  0.00    +0.000 A 
ATOM     14  C4* UNL     1     145.118 126.595 103.862  0.00  0.00    +0.000 A 
BRANCH  12  15
ATOM     15  O3* UNL     1     144.821 129.021 103.866  0.00  0.00    +0.000 OA
ATOM     16  H3* UNL     1     144.119 129.401 103.309  0.00  0.00    +0.000 HD
ENDBRANCH  12  15
BRANCH  14  17
ATOM     17  C5* UNL     1     144.720 126.292 105.178  0.00  0.00    +0.000 C 
BRANCH  17  18
ATOM     18  O5* UNL     1     144.344 126.009 106.422  0.00  0.00    +0.000 OA
ATOM     19  H5* UNL     1     145.097 126.105 107.031  0.00  0.00    +0.000 HD
ENDBRANCH  17  18
ENDBRANCH  14  17
ENDBRANCH   3  11
BRANCH   7  23
ATOM     20  F   UNL     1     141.943 123.443  99.757  0.00  0.00    +0.000 F 
ATOM     21  F   UNL     1     142.181 123.891  97.646  0.00  0.00    +0.000 F 
ATOM     22  F   UNL     1     143.118 122.117  98.474  0.00  0.00    +0.000 F 
ATOM     23  C   UNL     1     142.840 123.417  98.739  0.00  0.00    +0.000 C 
ENDBRANCH   7  23
TORSDOF 5
ENDMDL
MODEL 7
REMARK VINA RESULT:      -6.1      2.578      6.125
REMARK  Name = 6256_Trifluridine.pdbqt.pdb
REMARK  5 active torsions:
REMARK  status: ('A' for Active; 'I' for Inactive)
REMARK    1  A    between atoms: N_3  and  C1*_11
REMARK    2  A    between atoms: C_7  and  C_23
REMARK    3  A    between atoms: C3*_12  and  O3*_15
REMARK    4  A    between atoms: C4*_14  and  C5*_17
REMARK    5  A    between atoms: C5*_17  and  O5*_18
REMARK                            x       y       z     vdW  Elec       q    Type
REMARK                         _______ _______ _______ _____ _____    ______ ____
ROOT
ATOM      1  O   UNL     1     145.643 123.950 100.705  0.00  0.00    +0.000 OA
ATOM      2  O   UNL     1     143.141 126.524 103.565  0.00  0.00    +0.000 OA
ATOM      3  N   UNL     1     143.444 124.531 100.045  0.00  0.00    +0.000 N 
ATOM      4  N   UNL     1     144.345 125.242 102.090  0.00  0.00    +0.000 N 
ATOM      5  C   UNL     1     142.366 125.216 100.477  0.00  0.00    +0.000 A 
ATOM      6  C   UNL     1     144.570 124.510 100.899  0.00  0.00    +0.000 A 
ATOM      7  C   UNL     1     142.068 125.901 101.531  0.00  0.00    +0.000 A 
ATOM      8  C   UNL     1     143.198 125.937 102.494  0.00  0.00    +0.000 A 
ATOM      9  H   UNL     1     145.121 125.256 102.736  0.00  0.00    +0.000 HD
ENDROOT
BRANCH   3  11
ATOM     10  O4* UNL     1     143.539 124.596  97.629  0.00  0.00    +0.000 OA
ATOM     11  C1* UNL     1     143.390 123.902  98.835  0.00  0.00    +0.000 A 
ATOM     12  C3* UNL     1     143.177 122.354  97.176  0.00  0.00    +0.000 A 
ATOM     13  C2* UNL     1     143.160 122.537  98.569  0.00  0.00    +0.000 A 
ATOM     14  C4* UNL     1     143.408 123.655  96.600  0.00  0.00    +0.000 A 
BRANCH  12  15
ATOM     15  O3* UNL     1     142.436 121.415  96.516  0.00  0.00    +0.000 OA
ATOM     16  H3* UNL     1     141.544 121.341  96.900  0.00  0.00    +0.000 HD
ENDBRANCH  12  15
BRANCH  14  17
ATOM     17  C5* UNL     1     143.300 124.026  95.245  0.00  0.00    +0.000 C 
BRANCH  17  18
ATOM     18  O5* UNL     1     143.194 124.377  93.967  0.00  0.00    +0.000 OA
ATOM     19  H5* UNL     1     142.318 124.131  93.622  0.00  0.00    +0.000 HD
ENDBRANCH  17  18
ENDBRANCH  14  17
ENDBRANCH   3  11
BRANCH   7  23
ATOM     20  F   UNL     1     140.909 127.936 101.743  0.00  0.00    +0.000 F 
ATOM     21  F   UNL     1     139.782 126.191 101.106  0.00  0.00    +0.000 F 
ATOM     22  F   UNL     1     140.442 126.344 103.169  0.00  0.00    +0.000 F 
ATOM     23  C   UNL     1     140.822 126.590 101.891  0.00  0.00    +0.000 C 
ENDBRANCH   7  23
TORSDOF 5
ENDMDL
MODEL 8
REMARK VINA RESULT:      -6.0      4.019      6.464
REMARK  Name = 6256_Trifluridine.pdbqt.pdb
REMARK  5 active torsions:
REMARK  status: ('A' for Active; 'I' for Inactive)
REMARK    1  A    between atoms: N_3  and  C1*_11
REMARK    2  A    between atoms: C_7  and  C_23
REMARK    3  A    between atoms: C3*_12  and  O3*_15
REMARK    4  A    between atoms: C4*_14  and  C5*_17
REMARK    5  A    between atoms: C5*_17  and  O5*_18
REMARK                            x       y       z     vdW  Elec       q    Type
REMARK                         _______ _______ _______ _____ _____    ______ ____
ROOT
ATOM      1  O   UNL     1     146.236 123.795  99.094  0.00  0.00    +0.000 OA
ATOM      2  O   UNL     1     147.558 126.085 102.845  0.00  0.00    +0.000 OA
ATOM      3  N   UNL     1     144.576 124.921 100.354  0.00  0.00    +0.000 N 
ATOM      4  N   UNL     1     146.837 124.964 100.977  0.00  0.00    +0.000 N 
ATOM      5  C   UNL     1     144.434 125.684 101.455  0.00  0.00    +0.000 A 
ATOM      6  C   UNL     1     145.886 124.491 100.040  0.00  0.00    +0.000 A 
ATOM      7  C   UNL     1     145.226 126.157 102.361  0.00  0.00    +0.000 A 
ATOM      8  C   UNL     1     146.635 125.756 102.114  0.00  0.00    +0.000 A 
ATOM      9  H   UNL     1     147.790 124.682 100.798  0.00  0.00    +0.000 HD
ENDROOT
BRANCH   3  11
ATOM     10  O4* UNL     1     143.241 125.151  98.351  0.00  0.00    +0.000 OA
ATOM     11  C1* UNL     1     143.471 124.604  99.617  0.00  0.00    +0.000 A 
ATOM     12  C3* UNL     1     141.485 123.746  98.902  0.00  0.00    +0.000 A 
ATOM     13  C2* UNL     1     142.403 123.755  99.967  0.00  0.00    +0.000 A 
ATOM     14  C4* UNL     1     142.020 124.633  97.899  0.00  0.00    +0.000 A 
BRANCH  12  15
ATOM     15  O3* UNL     1     140.136 123.588  99.054  0.00  0.00    +0.000 OA
ATOM     16  H3* UNL     1     139.695 124.448  99.166  0.00  0.00    +0.000 HD
ENDBRANCH  12  15
BRANCH  14  17
ATOM     17  C5* UNL     1     141.371 125.119  96.748  0.00  0.00    +0.000 C 
BRANCH  17  18
ATOM     18  O5* UNL     1     140.761 125.577  95.659  0.00  0.00    +0.000 OA
ATOM     19  H5* UNL     1     140.572 124.845  95.046  0.00  0.00    +0.000 HD
ENDBRANCH  17  18
ENDBRANCH  14  17
ENDBRANCH   3  11
BRANCH   7  23
ATOM     20  F   UNL     1     145.573 128.166 103.531  0.00  0.00    +0.000 F 
ATOM     21  F   UNL     1     143.602 127.262 103.637  0.00  0.00    +0.000 F 
ATOM     22  F   UNL     1     145.256 126.346 104.703  0.00  0.00    +0.000 F 
ATOM     23  C   UNL     1     144.929 126.972 103.546  0.00  0.00    +0.000 C 
ENDBRANCH   7  23
TORSDOF 5
ENDMDL
MODEL 9
REMARK VINA RESULT:      -6.0      5.579      7.292
REMARK  Name = 6256_Trifluridine.pdbqt.pdb
REMARK  5 active torsions:
REMARK  status: ('A' for Active; 'I' for Inactive)
REMARK    1  A    between atoms: N_3  and  C1*_11
REMARK    2  A    between atoms: C_7  and  C_23
REMARK    3  A    between atoms: C3*_12  and  O3*_15
REMARK    4  A    between atoms: C4*_14  and  C5*_17
REMARK    5  A    between atoms: C5*_17  and  O5*_18
REMARK                            x       y       z     vdW  Elec       q    Type
REMARK                         _______ _______ _______ _____ _____    ______ ____
ROOT
ATOM      1  O   UNL     1     143.630 127.298  99.062  0.00  0.00    +0.000 OA
ATOM      2  O   UNL     1     142.618 126.646 103.491  0.00  0.00    +0.000 OA
ATOM      3  N   UNL     1     145.421 127.171 100.606  0.00  0.00    +0.000 N 
ATOM      4  N   UNL     1     143.188 126.966 101.291  0.00  0.00    +0.000 N 
ATOM      5  C   UNL     1     145.662 127.002 101.921  0.00  0.00    +0.000 A 
ATOM      6  C   UNL     1     144.068 127.161 100.198  0.00  0.00    +0.000 A 
ATOM      7  C   UNL     1     144.938 126.824 102.978  0.00  0.00    +0.000 A 
ATOM      8  C   UNL     1     143.490 126.798 102.647  0.00  0.00    +0.000 A 
ATOM      9  H   UNL     1     142.206 126.952 101.052  0.00  0.00    +0.000 HD
ENDROOT
BRANCH   3  11
ATOM     10  O4* UNL     1     147.058 128.598  99.543  0.00  0.00    +0.000 OA
ATOM     11  C1* UNL     1     146.474 127.345  99.755  0.00  0.00    +0.000 A 
ATOM     12  C3* UNL     1     148.137 127.026  98.230  0.00  0.00    +0.000 A 
ATOM     13  C2* UNL     1     147.117 126.382  98.952  0.00  0.00    +0.000 A 
ATOM     14  C4* UNL     1     148.083 128.416  98.605  0.00  0.00    +0.000 A 
BRANCH  12  15
ATOM     15  O3* UNL     1     148.548 126.650  96.982  0.00  0.00    +0.000 OA
ATOM     16  H3* UNL     1     148.428 125.693  96.849  0.00  0.00    +0.000 HD
ENDBRANCH  12  15
BRANCH  14  17
ATOM     17  C5* UNL     1     148.755 129.496  98.000  0.00  0.00    +0.000 C 
BRANCH  17  18
ATOM     18  O5* UNL     1     149.388 130.518  97.431  0.00  0.00    +0.000 OA
ATOM     19  H5* UNL     1     150.138 130.799  97.983  0.00  0.00    +0.000 HD
ENDBRANCH  17  18
ENDBRANCH  14  17
ENDBRANCH   3  11
BRANCH   7  23
ATOM     20  F   UNL     1     144.633 125.708 105.024  0.00  0.00    +0.000 F 
ATOM     21  F   UNL     1     146.648 126.326 104.500  0.00  0.00    +0.000 F 
ATOM     22  F   UNL     1     145.190 127.823 105.090  0.00  0.00    +0.000 F 
ATOM     23  C   UNL     1     145.337 126.675 104.383  0.00  0.00    +0.000 C 
ENDBRANCH   7  23
TORSDOF 5
ENDMDL
