MODEL 1
REMARK VINA RESULT:      -6.3      0.000      0.000
REMARK  Name = 6323266_Tipiracil.pdbqt.pdb
REMARK  2 active torsions:
REMARK  status: ('A' for Active; 'I' for Inactive)
REMARK    1  A    between atoms: C_6  and  C_12
REMARK    2  A    between atoms: C_12  and  N_13
REMARK                            x       y       z     vdW  Elec       q    Type
REMARK                         _______ _______ _______ _____ _____    ______ ____
ROOT
ATOM      1 CL   UNL     1     140.923 125.975 135.059  0.00  0.00    +0.000 Cl
ATOM      2  O   UNL     1     141.788 128.207 133.243  0.00  0.00    +0.000 OA
ATOM      3  O   UNL     1     138.915 127.396 129.837  0.00  0.00    +0.000 OA
ATOM      4  N   UNL     1     138.848 126.046 131.660  0.00  0.00    +0.000 N 
ATOM      5  N   UNL     1     140.343 127.800 131.551  0.00  0.00    +0.000 N 
ATOM      6  C   UNL     1     139.302 125.686 132.903  0.00  0.00    +0.000 A 
ATOM      7  C   UNL     1     140.289 126.363 133.506  0.00  0.00    +0.000 A 
ATOM      8  C   UNL     1     140.877 127.525 132.783  0.00  0.00    +0.000 A 
ATOM      9  C   UNL     1     139.341 127.100 130.947  0.00  0.00    +0.000 A 
ATOM     10  H   UNL     1     138.100 125.513 131.222  0.00  0.00    +0.000 HD
ATOM     11  H   UNL     1     140.727 128.584 131.044  0.00  0.00    +0.000 HD
ENDROOT
BRANCH   6  12
ATOM     12  C   UNL     1     138.660 124.561 133.487  0.00  0.00    +0.000 C 
BRANCH  12  13
ATOM     13  N   UNL     1     137.940 123.400 133.972  0.00  0.00    +0.000 N 
ATOM     14  N   UNL     1     139.730 122.467 135.395  0.00  0.00    +0.000 NA
ATOM     15  C   UNL     1     136.580 123.602 134.473  0.00  0.00    +0.000 C 
ATOM     16  C   UNL     1     136.074 123.032 135.793  0.00  0.00    +0.000 C 
ATOM     17  C   UNL     1     137.484 122.482 136.013  0.00  0.00    +0.000 C 
ATOM     18  C   UNL     1     138.531 122.758 135.053  0.00  0.00    +0.000 C 
ATOM     19  H   UNL     1     139.746 122.011 136.314  0.00  0.00    +0.000 HD
ENDBRANCH  12  13
ENDBRANCH   6  12
TORSDOF 2
ENDMDL
MODEL 2
REMARK VINA RESULT:      -6.2      3.271      4.117
REMARK  Name = 6323266_Tipiracil.pdbqt.pdb
REMARK  2 active torsions:
REMARK  status: ('A' for Active; 'I' for Inactive)
REMARK    1  A    between atoms: C_6  and  C_12
REMARK    2  A    between atoms: C_12  and  N_13
REMARK                            x       y       z     vdW  Elec       q    Type
REMARK                         _______ _______ _______ _____ _____    ______ ____
ROOT
ATOM      1 CL   UNL     1     142.688 122.505 135.826  0.00  0.00    +0.000 Cl
ATOM      2  O   UNL     1     144.408 124.575 137.162  0.00  0.00    +0.000 OA
ATOM      3  O   UNL     1     141.695 128.148 136.532  0.00  0.00    +0.000 OA
ATOM      4  N   UNL     1     141.027 126.125 135.751  0.00  0.00    +0.000 N 
ATOM      5  N   UNL     1     143.042 126.352 136.852  0.00  0.00    +0.000 N 
ATOM      6  C   UNL     1     141.234 124.781 135.570  0.00  0.00    +0.000 A 
ATOM      7  C   UNL     1     142.345 124.182 136.016  0.00  0.00    +0.000 A 
ATOM      8  C   UNL     1     143.354 125.023 136.720  0.00  0.00    +0.000 A 
ATOM      9  C   UNL     1     141.908 126.949 136.388  0.00  0.00    +0.000 A 
ATOM     10  H   UNL     1     140.176 126.557 135.398  0.00  0.00    +0.000 HD
ATOM     11  H   UNL     1     143.712 126.940 137.326  0.00  0.00    +0.000 HD
ENDROOT
BRANCH   6  12
ATOM     12  C   UNL     1     140.199 124.090 134.884  0.00  0.00    +0.000 C 
BRANCH  12  13
ATOM     13  N   UNL     1     139.076 123.388 134.294  0.00  0.00    +0.000 N 
ATOM     14  N   UNL     1     138.667 121.802 136.142  0.00  0.00    +0.000 NA
ATOM     15  C   UNL     1     138.000 124.190 133.712  0.00  0.00    +0.000 C 
ATOM     16  C   UNL     1     136.521 123.948 133.990  0.00  0.00    +0.000 C 
ATOM     17  C   UNL     1     136.957 122.835 134.943  0.00  0.00    +0.000 C 
ATOM     18  C   UNL     1     138.363 122.585 135.176  0.00  0.00    +0.000 C 
ATOM     19  H   UNL     1     137.821 121.416 136.577  0.00  0.00    +0.000 HD
ENDBRANCH  12  13
ENDBRANCH   6  12
TORSDOF 2
ENDMDL
MODEL 3
REMARK VINA RESULT:      -6.0     31.521     33.396
REMARK  Name = 6323266_Tipiracil.pdbqt.pdb
REMARK  2 active torsions:
REMARK  status: ('A' for Active; 'I' for Inactive)
REMARK    1  A    between atoms: C_6  and  C_12
REMARK    2  A    between atoms: C_12  and  N_13
REMARK                            x       y       z     vdW  Elec       q    Type
REMARK                         _______ _______ _______ _____ _____    ______ ____
ROOT
ATOM      1 CL   UNL     1     140.617 126.158 101.316  0.00  0.00    +0.000 Cl
ATOM      2  O   UNL     1     139.888 123.610  99.901  0.00  0.00    +0.000 OA
ATOM      3  O   UNL     1     143.969 122.654  98.184  0.00  0.00    +0.000 OA
ATOM      4  N   UNL     1     143.729 124.530  99.438  0.00  0.00    +0.000 N 
ATOM      5  N   UNL     1     141.932 123.135  99.057  0.00  0.00    +0.000 N 
ATOM      6  C   UNL     1     142.959 125.380 100.189  0.00  0.00    +0.000 A 
ATOM      7  C   UNL     1     141.657 125.141 100.395  0.00  0.00    +0.000 A 
ATOM      8  C   UNL     1     141.070 123.917  99.781  0.00  0.00    +0.000 A 
ATOM      9  C   UNL     1     143.255 123.393  98.852  0.00  0.00    +0.000 A 
ATOM     10  H   UNL     1     144.715 124.736  99.294  0.00  0.00    +0.000 HD
ATOM     11  H   UNL     1     141.555 122.300  98.632  0.00  0.00    +0.000 HD
ENDROOT
BRANCH   6  12
ATOM     12  C   UNL     1     143.636 126.512 100.719  0.00  0.00    +0.000 C 
BRANCH  12  13
ATOM     13  N   UNL     1     144.424 127.588 101.289  0.00  0.00    +0.000 N 
ATOM     14  N   UNL     1     143.259 127.741 103.460  0.00  0.00    +0.000 NA
ATOM     15  C   UNL     1     145.881 127.486 101.199  0.00  0.00    +0.000 C 
ATOM     16  C   UNL     1     146.818 127.726 102.377  0.00  0.00    +0.000 C 
ATOM     17  C   UNL     1     145.569 127.936 103.234  0.00  0.00    +0.000 C 
ATOM     18  C   UNL     1     144.253 127.774 102.654  0.00  0.00    +0.000 C 
ATOM     19  H   UNL     1     143.567 127.900 104.426  0.00  0.00    +0.000 HD
ENDBRANCH  12  13
ENDBRANCH   6  12
TORSDOF 2
ENDMDL
MODEL 4
REMARK VINA RESULT:      -5.8      2.476      3.153
REMARK  Name = 6323266_Tipiracil.pdbqt.pdb
REMARK  2 active torsions:
REMARK  status: ('A' for Active; 'I' for Inactive)
REMARK    1  A    between atoms: C_6  and  C_12
REMARK    2  A    between atoms: C_12  and  N_13
REMARK                            x       y       z     vdW  Elec       q    Type
REMARK                         _______ _______ _______ _____ _____    ______ ____
ROOT
ATOM      1 CL   UNL     1     138.978 122.581 135.277  0.00  0.00    +0.000 Cl
ATOM      2  O   UNL     1     141.326 124.404 134.842  0.00  0.00    +0.000 OA
ATOM      3  O   UNL     1     139.309 127.383 132.090  0.00  0.00    +0.000 OA
ATOM      4  N   UNL     1     138.096 125.631 132.872  0.00  0.00    +0.000 N 
ATOM      5  N   UNL     1     140.308 125.892 133.476  0.00  0.00    +0.000 N 
ATOM      6  C   UNL     1     137.986 124.489 133.622  0.00  0.00    +0.000 A 
ATOM      7  C   UNL     1     139.027 124.009 134.317  0.00  0.00    +0.000 A 
ATOM      8  C   UNL     1     140.312 124.761 134.250  0.00  0.00    +0.000 A 
ATOM      9  C   UNL     1     139.241 126.366 132.771  0.00  0.00    +0.000 A 
ATOM     10  H   UNL     1     137.292 125.973 132.350  0.00  0.00    +0.000 HD
ATOM     11  H   UNL     1     141.169 126.416 133.417  0.00  0.00    +0.000 HD
ENDROOT
BRANCH   6  12
ATOM     12  C   UNL     1     136.709 123.865 133.604  0.00  0.00    +0.000 C 
BRANCH  12  13
ATOM     13  N   UNL     1     135.433 123.183 133.702  0.00  0.00    +0.000 N 
ATOM     14  N   UNL     1     135.524 121.994 131.540  0.00  0.00    +0.000 NA
ATOM     15  C   UNL     1     135.126 122.490 134.953  0.00  0.00    +0.000 C 
ATOM     16  C   UNL     1     134.586 121.066 135.019  0.00  0.00    +0.000 C 
ATOM     17  C   UNL     1     134.699 121.031 133.494  0.00  0.00    +0.000 C 
ATOM     18  C   UNL     1     135.247 122.163 132.778  0.00  0.00    +0.000 C 
ATOM     19  H   UNL     1     135.246 121.056 131.229  0.00  0.00    +0.000 HD
ENDBRANCH  12  13
ENDBRANCH   6  12
TORSDOF 2
ENDMDL
MODEL 5
REMARK VINA RESULT:      -5.8     31.498     33.770
REMARK  Name = 6323266_Tipiracil.pdbqt.pdb
REMARK  2 active torsions:
REMARK  status: ('A' for Active; 'I' for Inactive)
REMARK    1  A    between atoms: C_6  and  C_12
REMARK    2  A    between atoms: C_12  and  N_13
REMARK                            x       y       z     vdW  Elec       q    Type
REMARK                         _______ _______ _______ _____ _____    ______ ____
ROOT
ATOM      1 CL   UNL     1     146.109 123.850  99.295  0.00  0.00    +0.000 Cl
ATOM      2  O   UNL     1     147.303 125.363 101.599  0.00  0.00    +0.000 OA
ATOM      3  O   UNL     1     143.456 126.285 103.806  0.00  0.00    +0.000 OA
ATOM      4  N   UNL     1     143.343 125.107 101.870  0.00  0.00    +0.000 N 
ATOM      5  N   UNL     1     145.378 125.810 102.700  0.00  0.00    +0.000 N 
ATOM      6  C   UNL     1     143.945 124.517 100.788  0.00  0.00    +0.000 A 
ATOM      7  C   UNL     1     145.274 124.556 100.624  0.00  0.00    +0.000 A 
ATOM      8  C   UNL     1     146.081 125.263 101.658  0.00  0.00    +0.000 A 
ATOM      9  C   UNL     1     144.023 125.765 102.852  0.00  0.00    +0.000 A 
ATOM     10  H   UNL     1     142.331 125.066 101.969  0.00  0.00    +0.000 HD
ATOM     11  H   UNL     1     145.906 126.293 103.412  0.00  0.00    +0.000 HD
ENDROOT
BRANCH   6  12
ATOM     12  C   UNL     1     143.066 123.876  99.873  0.00  0.00    +0.000 C 
BRANCH  12  13
ATOM     13  N   UNL     1     142.246 123.264  98.846  0.00  0.00    +0.000 N 
ATOM     14  N   UNL     1     140.043 123.706  99.870  0.00  0.00    +0.000 NA
ATOM     15  C   UNL     1     142.534 123.605  97.452  0.00  0.00    +0.000 C 
ATOM     16  C   UNL     1     141.463 124.008  96.444  0.00  0.00    +0.000 C 
ATOM     17  C   UNL     1     140.450 123.893  97.584  0.00  0.00    +0.000 C 
ATOM     18  C   UNL     1     140.893 123.569  98.922  0.00  0.00    +0.000 C 
ATOM     19  H   UNL     1     139.126 123.980  99.499  0.00  0.00    +0.000 HD
ENDBRANCH  12  13
ENDBRANCH   6  12
TORSDOF 2
ENDMDL
MODEL 6
REMARK VINA RESULT:      -5.7     31.339     33.454
REMARK  Name = 6323266_Tipiracil.pdbqt.pdb
REMARK  2 active torsions:
REMARK  status: ('A' for Active; 'I' for Inactive)
REMARK    1  A    between atoms: C_6  and  C_12
REMARK    2  A    between atoms: C_12  and  N_13
REMARK                            x       y       z     vdW  Elec       q    Type
REMARK                         _______ _______ _______ _____ _____    ______ ____
ROOT
ATOM      1 CL   UNL     1     141.282 126.304 101.882  0.00  0.00    +0.000 Cl
ATOM      2  O   UNL     1     143.522 127.464 103.514  0.00  0.00    +0.000 OA
ATOM      3  O   UNL     1     146.914 125.042 101.741  0.00  0.00    +0.000 OA
ATOM      4  N   UNL     1     144.809 124.697 100.964  0.00  0.00    +0.000 N 
ATOM      5  N   UNL     1     145.210 126.257 102.615  0.00  0.00    +0.000 N 
ATOM      6  C   UNL     1     143.467 124.977 100.972  0.00  0.00    +0.000 A 
ATOM      7  C   UNL     1     142.953 125.896 101.800  0.00  0.00    +0.000 A 
ATOM      8  C   UNL     1     143.890 126.610 102.713  0.00  0.00    +0.000 A 
ATOM      9  C   UNL     1     145.719 125.315 101.771  0.00  0.00    +0.000 A 
ATOM     10  H   UNL     1     145.174 123.991 100.328  0.00  0.00    +0.000 HD
ATOM     11  H   UNL     1     145.863 126.728 103.225  0.00  0.00    +0.000 HD
ENDROOT
BRANCH   6  12
ATOM     12  C   UNL     1     142.680 124.228 100.055  0.00  0.00    +0.000 C 
BRANCH  12  13
ATOM     13  N   UNL     1     141.973 123.379  99.117  0.00  0.00    +0.000 N 
ATOM     14  N   UNL     1     139.681 123.837  99.915  0.00  0.00    +0.000 NA
ATOM     15  C   UNL     1     142.333 123.478  97.703  0.00  0.00    +0.000 C 
ATOM     16  C   UNL     1     141.312 123.607  96.579  0.00  0.00    +0.000 C 
ATOM     17  C   UNL     1     140.232 123.629  97.661  0.00  0.00    +0.000 C 
ATOM     18  C   UNL     1     140.601 123.591  99.059  0.00  0.00    +0.000 C 
ATOM     19  H   UNL     1     138.777 123.970  99.449  0.00  0.00    +0.000 HD
ENDBRANCH  12  13
ENDBRANCH   6  12
TORSDOF 2
ENDMDL
MODEL 7
REMARK VINA RESULT:      -5.5     31.019     33.406
REMARK  Name = 6323266_Tipiracil.pdbqt.pdb
REMARK  2 active torsions:
REMARK  status: ('A' for Active; 'I' for Inactive)
REMARK    1  A    between atoms: C_6  and  C_12
REMARK    2  A    between atoms: C_12  and  N_13
REMARK                            x       y       z     vdW  Elec       q    Type
REMARK                         _______ _______ _______ _____ _____    ______ ____
ROOT
ATOM      1 CL   UNL     1     141.291 125.339 100.734  0.00  0.00    +0.000 Cl
ATOM      2  O   UNL     1     141.183 127.337 102.975  0.00  0.00    +0.000 OA
ATOM      3  O   UNL     1     145.627 127.579 103.817  0.00  0.00    +0.000 OA
ATOM      4  N   UNL     1     144.907 126.198 102.167  0.00  0.00    +0.000 N 
ATOM      5  N   UNL     1     143.405 127.459 103.381  0.00  0.00    +0.000 N 
ATOM      6  C   UNL     1     143.899 125.651 101.416  0.00  0.00    +0.000 A 
ATOM      7  C   UNL     1     142.617 125.982 101.623  0.00  0.00    +0.000 A 
ATOM      8  C   UNL     1     142.321 126.971 102.699  0.00  0.00    +0.000 A 
ATOM      9  C   UNL     1     144.704 127.109 103.162  0.00  0.00    +0.000 A 
ATOM     10  H   UNL     1     145.872 125.927 101.991  0.00  0.00    +0.000 HD
ATOM     11  H   UNL     1     143.226 128.130 104.115  0.00  0.00    +0.000 HD
ENDROOT
BRANCH   6  12
ATOM     12  C   UNL     1     144.311 124.721 100.423  0.00  0.00    +0.000 C 
BRANCH  12  13
ATOM     13  N   UNL     1     144.853 123.799  99.444  0.00  0.00    +0.000 N 
ATOM     14  N   UNL     1     142.772 122.557  98.968  0.00  0.00    +0.000 NA
ATOM     15  C   UNL     1     145.684 124.352  98.374  0.00  0.00    +0.000 C 
ATOM     16  C   UNL     1     145.506 124.004  96.901  0.00  0.00    +0.000 C 
ATOM     17  C   UNL     1     144.312 123.147  97.323  0.00  0.00    +0.000 C 
ATOM     18  C   UNL     1     143.900 123.104  98.709  0.00  0.00    +0.000 C 
ATOM     19  H   UNL     1     142.352 122.169  98.116  0.00  0.00    +0.000 HD
ENDBRANCH  12  13
ENDBRANCH   6  12
TORSDOF 2
ENDMDL
MODEL 8
REMARK VINA RESULT:      -5.2     31.449     33.173
REMARK  Name = 6323266_Tipiracil.pdbqt.pdb
REMARK  2 active torsions:
REMARK  status: ('A' for Active; 'I' for Inactive)
REMARK    1  A    between atoms: C_6  and  C_12
REMARK    2  A    between atoms: C_12  and  N_13
REMARK                            x       y       z     vdW  Elec       q    Type
REMARK                         _______ _______ _______ _____ _____    ______ ____
ROOT
ATOM      1 CL   UNL     1     143.910 125.633 103.816  0.00  0.00    +0.000 Cl
ATOM      2  O   UNL     1     145.576 128.105 104.188  0.00  0.00    +0.000 OA
ATOM      3  O   UNL     1     147.451 128.227 100.066  0.00  0.00    +0.000 OA
ATOM      4  N   UNL     1     146.000 126.550 100.552  0.00  0.00    +0.000 N 
ATOM      5  N   UNL     1     146.500 128.164 102.124  0.00  0.00    +0.000 N 
ATOM      6  C   UNL     1     145.150 125.913 101.419  0.00  0.00    +0.000 A 
ATOM      7  C   UNL     1     144.951 126.374 102.662  0.00  0.00    +0.000 A 
ATOM      8  C   UNL     1     145.683 127.605 103.072  0.00  0.00    +0.000 A 
ATOM      9  C   UNL     1     146.697 127.681 100.864  0.00  0.00    +0.000 A 
ATOM     10  H   UNL     1     146.137 126.178  99.615  0.00  0.00    +0.000 HD
ATOM     11  H   UNL     1     147.005 128.999 102.381  0.00  0.00    +0.000 HD
ENDROOT
BRANCH   6  12
ATOM     12  C   UNL     1     144.514 124.750 100.909  0.00  0.00    +0.000 C 
BRANCH  12  13
ATOM     13  N   UNL     1     143.817 123.637 100.293  0.00  0.00    +0.000 N 
ATOM     14  N   UNL     1     141.573 124.663 100.194  0.00  0.00    +0.000 NA
ATOM     15  C   UNL     1     144.433 123.011  99.123  0.00  0.00    +0.000 C 
ATOM     16  C   UNL     1     143.677 122.698  97.837  0.00  0.00    +0.000 C 
ATOM     17  C   UNL     1     142.453 123.349  98.484  0.00  0.00    +0.000 C 
ATOM     18  C   UNL     1     142.555 123.943  99.800  0.00  0.00    +0.000 C 
ATOM     19  H   UNL     1     140.814 124.654  99.504  0.00  0.00    +0.000 HD
ENDBRANCH  12  13
ENDBRANCH   6  12
TORSDOF 2
ENDMDL
MODEL 9
REMARK VINA RESULT:      -5.1     33.097     35.066
REMARK  Name = 6323266_Tipiracil.pdbqt.pdb
REMARK  2 active torsions:
REMARK  status: ('A' for Active; 'I' for Inactive)
REMARK    1  A    between atoms: C_6  and  C_12
REMARK    2  A    between atoms: C_12  and  N_13
REMARK                            x       y       z     vdW  Elec       q    Type
REMARK                         _______ _______ _______ _____ _____    ______ ____
ROOT
ATOM      1 CL   UNL     1     143.629 128.058  97.037  0.00  0.00    +0.000 Cl
ATOM      2  O   UNL     1     142.027 130.109  98.537  0.00  0.00    +0.000 OA
ATOM      3  O   UNL     1     140.816 127.518 102.049  0.00  0.00    +0.000 OA
ATOM      4  N   UNL     1     142.104 126.606 100.418  0.00  0.00    +0.000 N 
ATOM      5  N   UNL     1     141.436 128.810 100.292  0.00  0.00    +0.000 N 
ATOM      6  C   UNL     1     142.784 126.704  99.231  0.00  0.00    +0.000 A 
ATOM      7  C   UNL     1     142.809 127.849  98.536  0.00  0.00    +0.000 A 
ATOM      8  C   UNL     1     142.074 129.018  99.097  0.00  0.00    +0.000 A 
ATOM      9  C   UNL     1     141.415 127.637 100.986  0.00  0.00    +0.000 A 
ATOM     10  H   UNL     1     142.098 125.723 100.924  0.00  0.00    +0.000 HD
ATOM     11  H   UNL     1     140.931 129.590 100.689  0.00  0.00    +0.000 HD
ENDROOT
BRANCH   6  12
ATOM     12  C   UNL     1     143.443 125.520  98.804  0.00  0.00    +0.000 C 
BRANCH  12  13
ATOM     13  N   UNL     1     144.014 124.246  98.412  0.00  0.00    +0.000 N 
ATOM     14  N   UNL     1     142.189 122.798  99.229  0.00  0.00    +0.000 NA
ATOM     15  C   UNL     1     144.546 124.127  97.054  0.00  0.00    +0.000 C 
ATOM     16  C   UNL     1     144.229 122.963  96.122  0.00  0.00    +0.000 C 
ATOM     17  C   UNL     1     143.314 122.426  97.223  0.00  0.00    +0.000 C 
ATOM     18  C   UNL     1     143.128 123.177  98.446  0.00  0.00    +0.000 C 
ATOM     19  H   UNL     1     141.737 121.948  98.871  0.00  0.00    +0.000 HD
ENDBRANCH  12  13
ENDBRANCH   6  12
TORSDOF 2
ENDMDL
