MODEL 1
REMARK VINA RESULT:      -8.2      0.000      0.000
REMARK  Name = 6325056_Deoxyelephantopin.pdbqt.pdb
REMARK  3 active torsions:
REMARK  status: ('A' for Active; 'I' for Inactive)
REMARK    1  A    between atoms: C_6  and  O_20
REMARK    2  A    between atoms: O_20  and  C_22
REMARK    3  A    between atoms: C_22  and  C_23
REMARK                            x       y       z     vdW  Elec       q    Type
REMARK                         _______ _______ _______ _____ _____    ______ ____
ROOT
ATOM      1  O   UNL     1     141.647 122.819  98.446  0.00  0.00    +0.000 OA
ATOM      2  O   UNL     1     141.452 127.335 103.145  0.00  0.00    +0.000 OA
ATOM      3  O   UNL     1     142.821 121.680  96.832  0.00  0.00    +0.000 OA
ATOM      4  O   UNL     1     143.679 127.021 103.721  0.00  0.00    +0.000 OA
ATOM      5  C   UNL     1     143.397 124.099  99.378  0.00  0.00    +0.000 C 
ATOM      6  C   UNL     1     144.155 124.988 100.259  0.00  0.00    +0.000 C 
ATOM      7  C   UNL     1     141.983 123.773  99.414  0.00  0.00    +0.000 C 
ATOM      8  C   UNL     1     143.638 126.205 100.776  0.00  0.00    +0.000 C 
ATOM      9  C   UNL     1     143.917 123.282  98.302  0.00  0.00    +0.000 C 
ATOM     10  C   UNL     1     143.020 127.330 101.408  0.00  0.00    +0.000 C 
ATOM     11  C   UNL     1     140.950 124.329 100.205  0.00  0.00    +0.000 C 
ATOM     12  C   UNL     1     140.840 127.398 101.875  0.00  0.00    +0.000 C 
ATOM     13  C   UNL     1     140.110 126.226 101.515  0.00  0.00    +0.000 C 
ATOM     14  C   UNL     1     139.901 124.950 100.944  0.00  0.00    +0.000 C 
ATOM     15  C   UNL     1     141.795 127.817 100.927  0.00  0.00    +0.000 C 
ATOM     16  C   UNL     1     142.790 122.485  97.748  0.00  0.00    +0.000 C 
ATOM     17  C   UNL     1     142.814 127.241 102.893  0.00  0.00    +0.000 C 
ATOM     18  C   UNL     1     145.167 123.286  97.825  0.00  0.00    +0.000 C 
ATOM     19  C   UNL     1     138.520 124.380 100.886  0.00  0.00    +0.000 C 
ENDROOT
BRANCH   6  20
ATOM     20  O   UNL     1     145.537 124.797 100.424  0.00  0.00    +0.000 OA
BRANCH  20  22
ATOM     21  O   UNL     1     146.467 126.351  99.005  0.00  0.00    +0.000 OA
ATOM     22  C   UNL     1     146.322 125.891 100.134  0.00  0.00    +0.000 C 
BRANCH  22  23
ATOM     23  C   UNL     1     146.950 126.424 101.397  0.00  0.00    +0.000 C 
ATOM     24  C   UNL     1     146.782 127.860 101.866  0.00  0.00    +0.000 C 
ATOM     25  C   UNL     1     147.651 125.638 102.225  0.00  0.00    +0.000 C 
ENDBRANCH  22  23
ENDBRANCH  20  22
ENDBRANCH   6  20
TORSDOF 3
ENDMDL
MODEL 2
REMARK VINA RESULT:      -7.6      1.678      4.852
REMARK  Name = 6325056_Deoxyelephantopin.pdbqt.pdb
REMARK  3 active torsions:
REMARK  status: ('A' for Active; 'I' for Inactive)
REMARK    1  A    between atoms: C_6  and  O_20
REMARK    2  A    between atoms: O_20  and  C_22
REMARK    3  A    between atoms: C_22  and  C_23
REMARK                            x       y       z     vdW  Elec       q    Type
REMARK                         _______ _______ _______ _____ _____    ______ ____
ROOT
ATOM      1  O   UNL     1     146.057 125.356  97.348  0.00  0.00    +0.000 OA
ATOM      2  O   UNL     1     145.232 128.272 103.122  0.00  0.00    +0.000 OA
ATOM      3  O   UNL     1     145.597 123.619  95.916  0.00  0.00    +0.000 OA
ATOM      4  O   UNL     1     143.069 127.465 103.368  0.00  0.00    +0.000 OA
ATOM      5  C   UNL     1     144.602 124.801  99.121  0.00  0.00    +0.000 C 
ATOM      6  C   UNL     1     143.832 124.869 100.364  0.00  0.00    +0.000 C 
ATOM      7  C   UNL     1     145.597 125.730  98.616  0.00  0.00    +0.000 C 
ATOM      8  C   UNL     1     144.366 125.344 101.590  0.00  0.00    +0.000 C 
ATOM      9  C   UNL     1     144.484 123.810  98.073  0.00  0.00    +0.000 C 
ATOM     10  C   UNL     1     144.890 125.986 102.757  0.00  0.00    +0.000 C 
ATOM     11  C   UNL     1     146.184 126.852  99.247  0.00  0.00    +0.000 C 
ATOM     12  C   UNL     1     146.395 127.629 102.648  0.00  0.00    +0.000 C 
ATOM     13  C   UNL     1     146.782 128.006 101.328  0.00  0.00    +0.000 C 
ATOM     14  C   UNL     1     146.831 127.931  99.917  0.00  0.00    +0.000 C 
ATOM     15  C   UNL     1     146.267 126.241 102.856  0.00  0.00    +0.000 C 
ATOM     16  C   UNL     1     145.407 124.198  96.972  0.00  0.00    +0.000 C 
ATOM     17  C   UNL     1     144.255 127.287 103.154  0.00  0.00    +0.000 C 
ATOM     18  C   UNL     1     143.744 122.696  98.102  0.00  0.00    +0.000 C 
ATOM     19  C   UNL     1     147.770 128.813  99.159  0.00  0.00    +0.000 C 
ENDROOT
BRANCH   6  20
ATOM     20  O   UNL     1     142.590 124.217 100.454  0.00  0.00    +0.000 OA
BRANCH  20  22
ATOM     21  O   UNL     1     140.970 124.441  98.834  0.00  0.00    +0.000 OA
ATOM     22  C   UNL     1     141.541 124.863  99.837  0.00  0.00    +0.000 C 
BRANCH  22  23
ATOM     23  C   UNL     1     141.210 126.134 100.578  0.00  0.00    +0.000 C 
ATOM     24  C   UNL     1     141.679 127.506 100.122  0.00  0.00    +0.000 C 
ATOM     25  C   UNL     1     140.422 126.136 101.660  0.00  0.00    +0.000 C 
ENDBRANCH  22  23
ENDBRANCH  20  22
ENDBRANCH   6  20
TORSDOF 3
ENDMDL
MODEL 3
REMARK VINA RESULT:      -6.7      2.149      5.541
REMARK  Name = 6325056_Deoxyelephantopin.pdbqt.pdb
REMARK  3 active torsions:
REMARK  status: ('A' for Active; 'I' for Inactive)
REMARK    1  A    between atoms: C_6  and  O_20
REMARK    2  A    between atoms: O_20  and  C_22
REMARK    3  A    between atoms: C_22  and  C_23
REMARK                            x       y       z     vdW  Elec       q    Type
REMARK                         _______ _______ _______ _____ _____    ______ ____
ROOT
ATOM      1  O   UNL     1     147.808 126.264  97.809  0.00  0.00    +0.000 OA
ATOM      2  O   UNL     1     142.648 125.948 101.783  0.00  0.00    +0.000 OA
ATOM      3  O   UNL     1     148.918 125.539  95.933  0.00  0.00    +0.000 OA
ATOM      4  O   UNL     1     141.200 125.347 100.071  0.00  0.00    +0.000 OA
ATOM      5  C   UNL     1     145.803 125.041  97.579  0.00  0.00    +0.000 C 
ATOM      6  C   UNL     1     144.439 124.552  97.785  0.00  0.00    +0.000 C 
ATOM      7  C   UNL     1     146.557 125.993  98.375  0.00  0.00    +0.000 C 
ATOM      8  C   UNL     1     143.887 124.290  99.066  0.00  0.00    +0.000 C 
ATOM      9  C   UNL     1     146.687 124.729  96.476  0.00  0.00    +0.000 C 
ATOM     10  C   UNL     1     143.316 124.202 100.375  0.00  0.00    +0.000 C 
ATOM     11  C   UNL     1     146.234 126.581  99.621  0.00  0.00    +0.000 C 
ATOM     12  C   UNL     1     143.964 125.517 102.056  0.00  0.00    +0.000 C 
ATOM     13  C   UNL     1     144.976 126.467 101.724  0.00  0.00    +0.000 C 
ATOM     14  C   UNL     1     145.941 127.106 100.914  0.00  0.00    +0.000 C 
ATOM     15  C   UNL     1     144.149 124.234 101.504  0.00  0.00    +0.000 C 
ATOM     16  C   UNL     1     147.933 125.523  96.651  0.00  0.00    +0.000 C 
ATOM     17  C   UNL     1     142.228 125.183 100.704  0.00  0.00    +0.000 C 
ATOM     18  C   UNL     1     146.474 123.832  95.507  0.00  0.00    +0.000 C 
ATOM     19  C   UNL     1     146.832 128.151 101.504  0.00  0.00    +0.000 C 
ENDROOT
BRANCH   6  20
ATOM     20  O   UNL     1     143.696 124.071  96.693  0.00  0.00    +0.000 OA
BRANCH  20  22
ATOM     21  O   UNL     1     142.944 121.984  97.304  0.00  0.00    +0.000 OA
ATOM     22  C   UNL     1     142.717 123.153  97.005  0.00  0.00    +0.000 C 
BRANCH  22  23
ATOM     23  C   UNL     1     141.359 123.804  96.931  0.00  0.00    +0.000 C 
ATOM     24  C   UNL     1     141.106 125.117  96.209  0.00  0.00    +0.000 C 
ATOM     25  C   UNL     1     140.268 123.225  97.449  0.00  0.00    +0.000 C 
ENDBRANCH  22  23
ENDBRANCH  20  22
ENDBRANCH   6  20
TORSDOF 3
ENDMDL
MODEL 4
REMARK VINA RESULT:      -6.2      2.934      5.569
REMARK  Name = 6325056_Deoxyelephantopin.pdbqt.pdb
REMARK  3 active torsions:
REMARK  status: ('A' for Active; 'I' for Inactive)
REMARK    1  A    between atoms: C_6  and  O_20
REMARK    2  A    between atoms: O_20  and  C_22
REMARK    3  A    between atoms: C_22  and  C_23
REMARK                            x       y       z     vdW  Elec       q    Type
REMARK                         _______ _______ _______ _____ _____    ______ ____
ROOT
ATOM      1  O   UNL     1     143.745 126.457  95.033  0.00  0.00    +0.000 OA
ATOM      2  O   UNL     1     146.830 127.802 100.619  0.00  0.00    +0.000 OA
ATOM      3  O   UNL     1     141.999 125.466  93.917  0.00  0.00    +0.000 OA
ATOM      4  O   UNL     1     144.865 127.811 101.855  0.00  0.00    +0.000 OA
ATOM      5  C   UNL     1     143.091 126.020  97.258  0.00  0.00    +0.000 C 
ATOM      6  C   UNL     1     143.036 126.028  98.720  0.00  0.00    +0.000 C 
ATOM      7  C   UNL     1     144.083 126.617  96.382  0.00  0.00    +0.000 C 
ATOM      8  C   UNL     1     144.185 125.925  99.547  0.00  0.00    +0.000 C 
ATOM      9  C   UNL     1     142.112 125.463  96.349  0.00  0.00    +0.000 C 
ATOM     10  C   UNL     1     145.376 125.989 100.337  0.00  0.00    +0.000 C 
ATOM     11  C   UNL     1     145.316 127.231  96.704  0.00  0.00    +0.000 C 
ATOM     12  C   UNL     1     147.258 126.929  99.595  0.00  0.00    +0.000 C 
ATOM     13  C   UNL     1     147.180 127.479  98.281  0.00  0.00    +0.000 C 
ATOM     14  C   UNL     1     146.594 127.774  97.029  0.00  0.00    +0.000 C 
ATOM     15  C   UNL     1     146.617 125.685  99.757  0.00  0.00    +0.000 C 
ATOM     16  C   UNL     1     142.553 125.766  94.961  0.00  0.00    +0.000 C 
ATOM     17  C   UNL     1     145.629 127.274 101.072  0.00  0.00    +0.000 C 
ATOM     18  C   UNL     1     141.038 124.735  96.675  0.00  0.00    +0.000 C 
ATOM     19  C   UNL     1     147.414 128.419  95.959  0.00  0.00    +0.000 C 
ENDROOT
BRANCH   6  20
ATOM     20  O   UNL     1     141.801 125.879  99.374  0.00  0.00    +0.000 OA
BRANCH  20  22
ATOM     21  O   UNL     1     141.594 128.125  99.836  0.00  0.00    +0.000 OA
ATOM     22  C   UNL     1     141.413 126.950 100.149  0.00  0.00    +0.000 C 
BRANCH  22  23
ATOM     23  C   UNL     1     140.738 126.460 101.405  0.00  0.00    +0.000 C 
ATOM     24  C   UNL     1     139.571 125.486 101.394  0.00  0.00    +0.000 C 
ATOM     25  C   UNL     1     141.171 126.809 102.623  0.00  0.00    +0.000 C 
ENDBRANCH  22  23
ENDBRANCH  20  22
ENDBRANCH   6  20
TORSDOF 3
ENDMDL
MODEL 5
REMARK VINA RESULT:      -6.1      3.161      6.449
REMARK  Name = 6325056_Deoxyelephantopin.pdbqt.pdb
REMARK  3 active torsions:
REMARK  status: ('A' for Active; 'I' for Inactive)
REMARK    1  A    between atoms: C_6  and  O_20
REMARK    2  A    between atoms: O_20  and  C_22
REMARK    3  A    between atoms: C_22  and  C_23
REMARK                            x       y       z     vdW  Elec       q    Type
REMARK                         _______ _______ _______ _____ _____    ______ ____
ROOT
ATOM      1  O   UNL     1     147.286 127.400  95.674  0.00  0.00    +0.000 OA
ATOM      2  O   UNL     1     144.481 124.623 100.865  0.00  0.00    +0.000 OA
ATOM      3  O   UNL     1     147.816 127.352  93.439  0.00  0.00    +0.000 OA
ATOM      4  O   UNL     1     142.852 123.573  99.587  0.00  0.00    +0.000 OA
ATOM      5  C   UNL     1     145.963 125.450  95.808  0.00  0.00    +0.000 C 
ATOM      6  C   UNL     1     145.066 124.408  96.309  0.00  0.00    +0.000 C 
ATOM      7  C   UNL     1     146.533 126.579  96.522  0.00  0.00    +0.000 C 
ATOM      8  C   UNL     1     145.166 123.848  97.609  0.00  0.00    +0.000 C 
ATOM      9  C   UNL     1     146.428 125.625  94.449  0.00  0.00    +0.000 C 
ATOM     10  C   UNL     1     145.195 123.435  98.979  0.00  0.00    +0.000 C 
ATOM     11  C   UNL     1     146.493 126.885  97.903  0.00  0.00    +0.000 C 
ATOM     12  C   UNL     1     145.863 124.785 100.625  0.00  0.00    +0.000 C 
ATOM     13  C   UNL     1     146.239 126.098 100.213  0.00  0.00    +0.000 C 
ATOM     14  C   UNL     1     146.519 127.144  99.304  0.00  0.00    +0.000 C 
ATOM     15  C   UNL     1     146.305 123.748  99.780  0.00  0.00    +0.000 C 
ATOM     16  C   UNL     1     147.248 126.865  94.402  0.00  0.00    +0.000 C 
ATOM     17  C   UNL     1     144.019 123.827  99.827  0.00  0.00    +0.000 C 
ATOM     18  C   UNL     1     146.232 124.791  93.421  0.00  0.00    +0.000 C 
ATOM     19  C   UNL     1     147.095 128.429  99.806  0.00  0.00    +0.000 C 
ENDROOT
BRANCH   6  20
ATOM     20  O   UNL     1     144.217 123.728  95.418  0.00  0.00    +0.000 OA
BRANCH  20  22
ATOM     21  O   UNL     1     142.788 125.216  94.398  0.00  0.00    +0.000 OA
ATOM     22  C   UNL     1     142.989 124.317  95.211  0.00  0.00    +0.000 C 
BRANCH  22  23
ATOM     23  C   UNL     1     141.958 123.690  96.114  0.00  0.00    +0.000 C 
ATOM     24  C   UNL     1     141.937 122.207  96.446  0.00  0.00    +0.000 C 
ATOM     25  C   UNL     1     141.024 124.421  96.736  0.00  0.00    +0.000 C 
ENDBRANCH  22  23
ENDBRANCH  20  22
ENDBRANCH   6  20
TORSDOF 3
ENDMDL
MODEL 6
REMARK VINA RESULT:      -6.0     34.866     37.494
REMARK  Name = 6325056_Deoxyelephantopin.pdbqt.pdb
REMARK  3 active torsions:
REMARK  status: ('A' for Active; 'I' for Inactive)
REMARK    1  A    between atoms: C_6  and  O_20
REMARK    2  A    between atoms: O_20  and  C_22
REMARK    3  A    between atoms: C_22  and  C_23
REMARK                            x       y       z     vdW  Elec       q    Type
REMARK                         _______ _______ _______ _____ _____    ______ ____
ROOT
ATOM      1  O   UNL     1     133.188 121.726 139.319  0.00  0.00    +0.000 OA
ATOM      2  O   UNL     1     137.343 122.188 134.314  0.00  0.00    +0.000 OA
ATOM      3  O   UNL     1     131.046 121.456 140.104  0.00  0.00    +0.000 OA
ATOM      4  O   UNL     1     136.067 120.803 132.956  0.00  0.00    +0.000 OA
ATOM      5  C   UNL     1     132.802 121.436 137.008  0.00  0.00    +0.000 C 
ATOM      6  C   UNL     1     133.018 121.262 135.572  0.00  0.00    +0.000 C 
ATOM      7  C   UNL     1     133.779 121.701 138.049  0.00  0.00    +0.000 C 
ATOM      8  C   UNL     1     133.971 122.006 134.828  0.00  0.00    +0.000 C 
ATOM      9  C   UNL     1     131.551 121.310 137.726  0.00  0.00    +0.000 C 
ATOM     10  C   UNL     1     135.055 122.653 134.154  0.00  0.00    +0.000 C 
ATOM     11  C   UNL     1     135.157 122.000 137.936  0.00  0.00    +0.000 C 
ATOM     12  C   UNL     1     136.946 123.219 135.192  0.00  0.00    +0.000 C 
ATOM     13  C   UNL     1     137.003 122.870 136.575  0.00  0.00    +0.000 C 
ATOM     14  C   UNL     1     136.525 122.382 137.812  0.00  0.00    +0.000 C 
ATOM     15  C   UNL     1     135.709 123.736 134.761  0.00  0.00    +0.000 C 
ATOM     16  C   UNL     1     131.836 121.490 139.175  0.00  0.00    +0.000 C 
ATOM     17  C   UNL     1     136.178 121.774 133.684  0.00  0.00    +0.000 C 
ATOM     18  C   UNL     1     130.335 121.142 137.194  0.00  0.00    +0.000 C 
ATOM     19  C   UNL     1     137.368 122.517 139.039  0.00  0.00    +0.000 C 
ENDROOT
BRANCH   6  20
ATOM     20  O   UNL     1     132.098 120.520 134.811  0.00  0.00    +0.000 OA
BRANCH  20  22
ATOM     21  O   UNL     1     132.704 119.561 132.808  0.00  0.00    +0.000 OA
ATOM     22  C   UNL     1     132.646 119.522 134.035  0.00  0.00    +0.000 C 
BRANCH  22  23
ATOM     23  C   UNL     1     133.158 118.409 134.913  0.00  0.00    +0.000 C 
ATOM     24  C   UNL     1     134.636 118.090 135.073  0.00  0.00    +0.000 C 
ATOM     25  C   UNL     1     132.336 117.665 135.663  0.00  0.00    +0.000 C 
ENDBRANCH  22  23
ENDBRANCH  20  22
ENDBRANCH   6  20
TORSDOF 3
ENDMDL
MODEL 7
REMARK VINA RESULT:      -6.0     13.081     14.577
REMARK  Name = 6325056_Deoxyelephantopin.pdbqt.pdb
REMARK  3 active torsions:
REMARK  status: ('A' for Active; 'I' for Inactive)
REMARK    1  A    between atoms: C_6  and  O_20
REMARK    2  A    between atoms: O_20  and  C_22
REMARK    3  A    between atoms: C_22  and  C_23
REMARK                            x       y       z     vdW  Elec       q    Type
REMARK                         _______ _______ _______ _____ _____    ______ ____
ROOT
ATOM      1  O   UNL     1     143.674 115.192 106.405  0.00  0.00    +0.000 OA
ATOM      2  O   UNL     1     148.797 115.163 110.441  0.00  0.00    +0.000 OA
ATOM      3  O   UNL     1     141.433 114.846 106.038  0.00  0.00    +0.000 OA
ATOM      4  O   UNL     1     147.502 115.672 112.299  0.00  0.00    +0.000 OA
ATOM      5  C   UNL     1     143.756 114.815 108.734  0.00  0.00    +0.000 C 
ATOM      6  C   UNL     1     144.230 114.737 110.116  0.00  0.00    +0.000 C 
ATOM      7  C   UNL     1     144.502 115.150 107.534  0.00  0.00    +0.000 C 
ATOM      8  C   UNL     1     145.509 114.239 110.478  0.00  0.00    +0.000 C 
ATOM      9  C   UNL     1     142.398 114.640 108.264  0.00  0.00    +0.000 C 
ATOM     10  C   UNL     1     146.863 113.891 110.782  0.00  0.00    +0.000 C 
ATOM     11  C   UNL     1     145.893 115.344 107.363  0.00  0.00    +0.000 C 
ATOM     12  C   UNL     1     148.547 114.277 109.372  0.00  0.00    +0.000 C 
ATOM     13  C   UNL     1     148.177 114.915 108.151  0.00  0.00    +0.000 C 
ATOM     14  C   UNL     1     147.302 115.457 107.181  0.00  0.00    +0.000 C 
ATOM     15  C   UNL     1     147.661 113.272 109.808  0.00  0.00    +0.000 C 
ATOM     16  C   UNL     1     142.385 114.894 106.798  0.00  0.00    +0.000 C 
ATOM     17  C   UNL     1     147.737 114.988 111.319  0.00  0.00    +0.000 C 
ATOM     18  C   UNL     1     141.344 114.244 108.987  0.00  0.00    +0.000 C 
ATOM     19  C   UNL     1     147.842 115.902 105.860  0.00  0.00    +0.000 C 
ENDROOT
BRANCH   6  20
ATOM     20  O   UNL     1     143.326 114.918 111.177  0.00  0.00    +0.000 OA
BRANCH  20  22
ATOM     21  O   UNL     1     144.374 116.365 112.628  0.00  0.00    +0.000 OA
ATOM     22  C   UNL     1     143.450 116.109 111.859  0.00  0.00    +0.000 C 
BRANCH  22  23
ATOM     23  C   UNL     1     142.304 117.024 111.512  0.00  0.00    +0.000 C 
ATOM     24  C   UNL     1     140.847 116.650 111.731  0.00  0.00    +0.000 C 
ATOM     25  C   UNL     1     142.505 118.262 111.042  0.00  0.00    +0.000 C 
ENDBRANCH  22  23
ENDBRANCH  20  22
ENDBRANCH   6  20
TORSDOF 3
ENDMDL
MODEL 8
REMARK VINA RESULT:      -5.9      3.320      6.761
REMARK  Name = 6325056_Deoxyelephantopin.pdbqt.pdb
REMARK  3 active torsions:
REMARK  status: ('A' for Active; 'I' for Inactive)
REMARK    1  A    between atoms: C_6  and  O_20
REMARK    2  A    between atoms: O_20  and  C_22
REMARK    3  A    between atoms: C_22  and  C_23
REMARK                            x       y       z     vdW  Elec       q    Type
REMARK                         _______ _______ _______ _____ _____    ______ ____
ROOT
ATOM      1  O   UNL     1     143.702 122.648  94.600  0.00  0.00    +0.000 OA
ATOM      2  O   UNL     1     148.574 126.954  95.103  0.00  0.00    +0.000 OA
ATOM      3  O   UNL     1     142.161 121.267  95.598  0.00  0.00    +0.000 OA
ATOM      4  O   UNL     1     147.791 127.803  97.117  0.00  0.00    +0.000 OA
ATOM      5  C   UNL     1     144.609 123.680  96.520  0.00  0.00    +0.000 C 
ATOM      6  C   UNL     1     145.372 124.575  97.391  0.00  0.00    +0.000 C 
ATOM      7  C   UNL     1     144.638 123.577  95.072  0.00  0.00    +0.000 C 
ATOM      8  C   UNL     1     146.722 124.939  97.148  0.00  0.00    +0.000 C 
ATOM      9  C   UNL     1     143.588 122.733  96.917  0.00  0.00    +0.000 C 
ATOM     10  C   UNL     1     148.020 125.413  96.775  0.00  0.00    +0.000 C 
ATOM     11  C   UNL     1     145.502 124.201  94.142  0.00  0.00    +0.000 C 
ATOM     12  C   UNL     1     148.656 125.621  94.647  0.00  0.00    +0.000 C 
ATOM     13  C   UNL     1     147.665 125.265  93.684  0.00  0.00    +0.000 C 
ATOM     14  C   UNL     1     146.427 124.768  93.217  0.00  0.00    +0.000 C 
ATOM     15  C   UNL     1     148.737 124.761  95.761  0.00  0.00    +0.000 C 
ATOM     16  C   UNL     1     143.036 122.112  95.684  0.00  0.00    +0.000 C 
ATOM     17  C   UNL     1     148.130 126.867  96.415  0.00  0.00    +0.000 C 
ATOM     18  C   UNL     1     143.244 122.404  98.168  0.00  0.00    +0.000 C 
ATOM     19  C   UNL     1     146.204 124.594  91.749  0.00  0.00    +0.000 C 
ENDROOT
BRANCH   6  20
ATOM     20  O   UNL     1     144.870 124.912  98.660  0.00  0.00    +0.000 OA
BRANCH  20  22
ATOM     21  O   UNL     1     145.003 127.188  98.975  0.00  0.00    +0.000 OA
ATOM     22  C   UNL     1     144.337 126.177  98.764  0.00  0.00    +0.000 C 
BRANCH  22  23
ATOM     23  C   UNL     1     142.842 126.124  98.574  0.00  0.00    +0.000 C 
ATOM     24  C   UNL     1     142.160 126.462  97.258  0.00  0.00    +0.000 C 
ATOM     25  C   UNL     1     142.020 125.709  99.546  0.00  0.00    +0.000 C 
ENDBRANCH  22  23
ENDBRANCH  20  22
ENDBRANCH   6  20
TORSDOF 3
ENDMDL
MODEL 9
REMARK VINA RESULT:      -5.9     24.952     27.659
REMARK  Name = 6325056_Deoxyelephantopin.pdbqt.pdb
REMARK  3 active torsions:
REMARK  status: ('A' for Active; 'I' for Inactive)
REMARK    1  A    between atoms: C_6  and  O_20
REMARK    2  A    between atoms: O_20  and  C_22
REMARK    3  A    between atoms: C_22  and  C_23
REMARK                            x       y       z     vdW  Elec       q    Type
REMARK                         _______ _______ _______ _____ _____    ______ ____
ROOT
ATOM      1  O   UNL     1     148.057 133.172 124.297  0.00  0.00    +0.000 OA
ATOM      2  O   UNL     1     152.515 131.809 128.857  0.00  0.00    +0.000 OA
ATOM      3  O   UNL     1     147.419 134.353 122.432  0.00  0.00    +0.000 OA
ATOM      4  O   UNL     1     154.296 132.258 127.437  0.00  0.00    +0.000 OA
ATOM      5  C   UNL     1     150.288 133.916 124.492  0.00  0.00    +0.000 C 
ATOM      6  C   UNL     1     151.679 134.049 124.928  0.00  0.00    +0.000 C 
ATOM      7  C   UNL     1     149.239 133.077 125.042  0.00  0.00    +0.000 C 
ATOM      8  C   UNL     1     152.077 134.021 126.290  0.00  0.00    +0.000 C 
ATOM      9  C   UNL     1     149.665 134.553 123.351  0.00  0.00    +0.000 C 
ATOM     10  C   UNL     1     152.452 133.817 127.656  0.00  0.00    +0.000 C 
ATOM     11  C   UNL     1     149.239 132.286 126.215  0.00  0.00    +0.000 C 
ATOM     12  C   UNL     1     151.295 132.497 129.033  0.00  0.00    +0.000 C 
ATOM     13  C   UNL     1     150.166 131.854 128.445  0.00  0.00    +0.000 C 
ATOM     14  C   UNL     1     149.218 131.557 127.440  0.00  0.00    +0.000 C 
ATOM     15  C   UNL     1     151.472 133.845 128.661  0.00  0.00    +0.000 C 
ATOM     16  C   UNL     1     148.267 134.054 123.257  0.00  0.00    +0.000 C 
ATOM     17  C   UNL     1     153.244 132.579 127.961  0.00  0.00    +0.000 C 
ATOM     18  C   UNL     1     150.206 135.486 122.559  0.00  0.00    +0.000 C 
ATOM     19  C   UNL     1     148.047 130.684 127.758  0.00  0.00    +0.000 C 
ENDROOT
BRANCH   6  20
ATOM     20  O   UNL     1     152.661 134.471 124.016  0.00  0.00    +0.000 OA
BRANCH  20  22
ATOM     21  O   UNL     1     153.561 132.353 124.041  0.00  0.00    +0.000 OA
ATOM     22  C   UNL     1     153.628 133.536 123.718  0.00  0.00    +0.000 C 
BRANCH  22  23
ATOM     23  C   UNL     1     154.747 134.182 122.942  0.00  0.00    +0.000 C 
ATOM     24  C   UNL     1     155.926 133.403 122.381  0.00  0.00    +0.000 C 
ATOM     25  C   UNL     1     154.739 135.487 122.642  0.00  0.00    +0.000 C 
ENDBRANCH  22  23
ENDBRANCH  20  22
ENDBRANCH   6  20
TORSDOF 3
ENDMDL
