MODEL 1
REMARK VINA RESULT:      -6.9      0.000      0.000
REMARK  Name = 641785_Cardamonin.pdbqt.pdb
REMARK  6 active torsions:
REMARK  status: ('A' for Active; 'I' for Inactive)
REMARK    1  A    between atoms: C_1  and  C_14
REMARK    2  A    between atoms: C_2  and  O_7
REMARK    3  A    between atoms: C_3  and  O_9
REMARK    4  A    between atoms: C_6  and  O_11
REMARK    5  A    between atoms: C_14  and  C_15
REMARK    6  A    between atoms: C_16  and  C_17
REMARK                            x       y       z     vdW  Elec       q    Type
REMARK                         _______ _______ _______ _____ _____    ______ ____
ROOT
ATOM      1  C   UNL     1     140.356 125.781 134.165  0.00  0.00    +0.000 A 
ATOM      2  C   UNL     1     140.972 124.751 134.901  0.00  0.00    +0.000 A 
ATOM      3  C   UNL     1     140.778 127.110 134.372  0.00  0.00    +0.000 A 
ATOM      4  C   UNL     1     141.966 125.077 135.836  0.00  0.00    +0.000 A 
ATOM      5  C   UNL     1     141.761 127.417 135.312  0.00  0.00    +0.000 A 
ATOM      6  C   UNL     1     142.345 126.397 136.044  0.00  0.00    +0.000 A 
ENDROOT
BRANCH   2   7
ATOM      7  O   UNL     1     140.638 123.444 134.631  0.00  0.00    +0.000 OA
ATOM      8  C   UNL     1     141.591 122.700 133.924  0.00  0.00    +0.000 C 
ENDBRANCH   2   7
BRANCH   3   9
ATOM      9  O   UNL     1     140.268 128.184 133.686  0.00  0.00    +0.000 OA
ATOM     10  H   UNL     1     139.455 127.913 133.205  0.00  0.00    +0.000 HD
ENDBRANCH   3   9
BRANCH   6  11
ATOM     11  O   UNL     1     143.302 126.711 136.960  0.00  0.00    +0.000 OA
ATOM     12  H   UNL     1     143.287 127.673 137.113  0.00  0.00    +0.000 HD
ENDBRANCH   6  11
BRANCH   1  14
ATOM     13  O   UNL     1     139.362 126.023 132.043  0.00  0.00    +0.000 OA
ATOM     14  C   UNL     1     139.280 125.545 133.169  0.00  0.00    +0.000 C 
BRANCH  14  15
ATOM     15  C   UNL     1     138.090 124.815 133.534  0.00  0.00    +0.000 C 
ATOM     16  C   UNL     1     137.109 124.196 133.851  0.00  0.00    +0.000 C 
BRANCH  16  17
ATOM     17  C   UNL     1     135.942 123.465 134.221  0.00  0.00    +0.000 A 
ATOM     18  C   UNL     1     135.179 123.881 135.311  0.00  0.00    +0.000 A 
ATOM     19  C   UNL     1     135.568 122.337 133.494  0.00  0.00    +0.000 A 
ATOM     20  C   UNL     1     134.040 123.166 135.674  0.00  0.00    +0.000 A 
ATOM     21  C   UNL     1     134.428 121.623 133.858  0.00  0.00    +0.000 A 
ATOM     22  C   UNL     1     133.666 122.038 134.947  0.00  0.00    +0.000 A 
ENDBRANCH  16  17
ENDBRANCH  14  15
ENDBRANCH   1  14
TORSDOF 6
ENDMDL
MODEL 2
REMARK VINA RESULT:      -6.8      3.539      6.572
REMARK  Name = 641785_Cardamonin.pdbqt.pdb
REMARK  6 active torsions:
REMARK  status: ('A' for Active; 'I' for Inactive)
REMARK    1  A    between atoms: C_1  and  C_14
REMARK    2  A    between atoms: C_2  and  O_7
REMARK    3  A    between atoms: C_3  and  O_9
REMARK    4  A    between atoms: C_6  and  O_11
REMARK    5  A    between atoms: C_14  and  C_15
REMARK    6  A    between atoms: C_16  and  C_17
REMARK                            x       y       z     vdW  Elec       q    Type
REMARK                         _______ _______ _______ _____ _____    ______ ____
ROOT
ATOM      1  C   UNL     1     140.324 126.415 133.726  0.00  0.00    +0.000 A 
ATOM      2  C   UNL     1     140.984 126.071 134.921  0.00  0.00    +0.000 A 
ATOM      3  C   UNL     1     139.329 125.551 133.226  0.00  0.00    +0.000 A 
ATOM      4  C   UNL     1     140.653 124.870 135.566  0.00  0.00    +0.000 A 
ATOM      5  C   UNL     1     139.020 124.356 133.874  0.00  0.00    +0.000 A 
ATOM      6  C   UNL     1     139.690 124.020 135.038  0.00  0.00    +0.000 A 
ENDROOT
BRANCH   2   7
ATOM      7  O   UNL     1     141.882 126.959 135.468  0.00  0.00    +0.000 OA
ATOM      8  C   UNL     1     141.841 127.095 136.860  0.00  0.00    +0.000 C 
ENDBRANCH   2   7
BRANCH   3   9
ATOM      9  O   UNL     1     138.604 125.806 132.089  0.00  0.00    +0.000 OA
ATOM     10  H   UNL     1     139.214 126.011 131.347  0.00  0.00    +0.000 HD
ENDBRANCH   3   9
BRANCH   6  11
ATOM     11  O   UNL     1     139.378 122.849 135.660  0.00  0.00    +0.000 OA
ATOM     12  H   UNL     1     140.148 122.254 135.614  0.00  0.00    +0.000 HD
ENDBRANCH   6  11
BRANCH   1  14
ATOM     13  O   UNL     1     141.407 127.623 132.018  0.00  0.00    +0.000 OA
ATOM     14  C   UNL     1     140.617 127.651 132.955  0.00  0.00    +0.000 C 
BRANCH  14  15
ATOM     15  C   UNL     1     140.035 128.912 133.343  0.00  0.00    +0.000 C 
ATOM     16  C   UNL     1     139.550 129.958 133.685  0.00  0.00    +0.000 C 
BRANCH  16  17
ATOM     17  C   UNL     1     138.973 131.199 134.083  0.00  0.00    +0.000 A 
ATOM     18  C   UNL     1     139.655 132.391 133.845  0.00  0.00    +0.000 A 
ATOM     19  C   UNL     1     137.730 131.219 134.712  0.00  0.00    +0.000 A 
ATOM     20  C   UNL     1     139.093 133.604 134.235  0.00  0.00    +0.000 A 
ATOM     21  C   UNL     1     137.168 132.433 135.102  0.00  0.00    +0.000 A 
ATOM     22  C   UNL     1     137.850 133.624 134.863  0.00  0.00    +0.000 A 
ENDBRANCH  16  17
ENDBRANCH  14  15
ENDBRANCH   1  14
TORSDOF 6
ENDMDL
MODEL 3
REMARK VINA RESULT:      -6.7      2.835      6.394
REMARK  Name = 641785_Cardamonin.pdbqt.pdb
REMARK  6 active torsions:
REMARK  status: ('A' for Active; 'I' for Inactive)
REMARK    1  A    between atoms: C_1  and  C_14
REMARK    2  A    between atoms: C_2  and  O_7
REMARK    3  A    between atoms: C_3  and  O_9
REMARK    4  A    between atoms: C_6  and  O_11
REMARK    5  A    between atoms: C_14  and  C_15
REMARK    6  A    between atoms: C_16  and  C_17
REMARK                            x       y       z     vdW  Elec       q    Type
REMARK                         _______ _______ _______ _____ _____    ______ ____
ROOT
ATOM      1  C   UNL     1     136.722 123.218 134.800  0.00  0.00    +0.000 A 
ATOM      2  C   UNL     1     137.638 122.275 135.305  0.00  0.00    +0.000 A 
ATOM      3  C   UNL     1     135.576 123.527 135.561  0.00  0.00    +0.000 A 
ATOM      4  C   UNL     1     137.374 121.653 136.534  0.00  0.00    +0.000 A 
ATOM      5  C   UNL     1     135.324 122.891 136.776  0.00  0.00    +0.000 A 
ATOM      6  C   UNL     1     136.224 121.952 137.252  0.00  0.00    +0.000 A 
ENDROOT
BRANCH   2   7
ATOM      7  O   UNL     1     138.807 122.045 134.617  0.00  0.00    +0.000 OA
ATOM      8  C   UNL     1     139.950 122.680 135.119  0.00  0.00    +0.000 C 
ENDBRANCH   2   7
BRANCH   3   9
ATOM      9  O   UNL     1     134.638 124.452 135.177  0.00  0.00    +0.000 OA
ATOM     10  H   UNL     1     134.210 124.839 135.973  0.00  0.00    +0.000 HD
ENDBRANCH   3   9
BRANCH   6  11
ATOM     11  O   UNL     1     135.964 121.339 138.440  0.00  0.00    +0.000 OA
ATOM     12  H   UNL     1     136.443 120.492 138.468  0.00  0.00    +0.000 HD
ENDBRANCH   6  11
BRANCH   1  14
ATOM     13  O   UNL     1     136.281 123.538 132.508  0.00  0.00    +0.000 OA
ATOM     14  C   UNL     1     136.897 123.914 133.499  0.00  0.00    +0.000 C 
BRANCH  14  15
ATOM     15  C   UNL     1     137.846 124.992 133.367  0.00  0.00    +0.000 C 
ATOM     16  C   UNL     1     138.625 125.902 133.265  0.00  0.00    +0.000 C 
BRANCH  16  17
ATOM     17  C   UNL     1     139.553 126.978 133.139  0.00  0.00    +0.000 A 
ATOM     18  C   UNL     1     139.353 127.957 132.168  0.00  0.00    +0.000 A 
ATOM     19  C   UNL     1     140.657 127.047 133.985  0.00  0.00    +0.000 A 
ATOM     20  C   UNL     1     140.259 129.007 132.044  0.00  0.00    +0.000 A 
ATOM     21  C   UNL     1     141.563 128.097 133.860  0.00  0.00    +0.000 A 
ATOM     22  C   UNL     1     141.364 129.076 132.889  0.00  0.00    +0.000 A 
ENDBRANCH  16  17
ENDBRANCH  14  15
ENDBRANCH   1  14
TORSDOF 6
ENDMDL
MODEL 4
REMARK VINA RESULT:      -6.5      1.704      3.205
REMARK  Name = 641785_Cardamonin.pdbqt.pdb
REMARK  6 active torsions:
REMARK  status: ('A' for Active; 'I' for Inactive)
REMARK    1  A    between atoms: C_1  and  C_14
REMARK    2  A    between atoms: C_2  and  O_7
REMARK    3  A    between atoms: C_3  and  O_9
REMARK    4  A    between atoms: C_6  and  O_11
REMARK    5  A    between atoms: C_14  and  C_15
REMARK    6  A    between atoms: C_16  and  C_17
REMARK                            x       y       z     vdW  Elec       q    Type
REMARK                         _______ _______ _______ _____ _____    ______ ____
ROOT
ATOM      1  C   UNL     1     140.255 126.551 133.185  0.00  0.00    +0.000 A 
ATOM      2  C   UNL     1     139.820 127.437 132.180  0.00  0.00    +0.000 A 
ATOM      3  C   UNL     1     140.891 127.079 134.327  0.00  0.00    +0.000 A 
ATOM      4  C   UNL     1     140.054 128.812 132.330  0.00  0.00    +0.000 A 
ATOM      5  C   UNL     1     141.125 128.448 134.455  0.00  0.00    +0.000 A 
ATOM      6  C   UNL     1     140.710 129.306 133.450  0.00  0.00    +0.000 A 
ENDROOT
BRANCH   2   7
ATOM      7  O   UNL     1     139.108 126.939 131.114  0.00  0.00    +0.000 OA
ATOM      8  C   UNL     1     139.748 126.992 129.869  0.00  0.00    +0.000 C 
ENDBRANCH   2   7
BRANCH   3   9
ATOM      9  O   UNL     1     141.324 126.310 135.378  0.00  0.00    +0.000 OA
ATOM     10  H   UNL     1     142.286 126.456 135.520  0.00  0.00    +0.000 HD
ENDBRANCH   3   9
BRANCH   6  11
ATOM     11  O   UNL     1     140.946 130.640 133.588  0.00  0.00    +0.000 OA
ATOM     12  H   UNL     1     141.725 130.764 134.159  0.00  0.00    +0.000 HD
ENDBRANCH   6  11
BRANCH   1  14
ATOM     13  O   UNL     1     140.991 124.363 132.721  0.00  0.00    +0.000 OA
ATOM     14  C   UNL     1     140.076 125.078 133.112  0.00  0.00    +0.000 C 
BRANCH  14  15
ATOM     15  C   UNL     1     138.804 124.477 133.428  0.00  0.00    +0.000 C 
ATOM     16  C   UNL     1     137.752 123.964 133.703  0.00  0.00    +0.000 C 
BRANCH  16  17
ATOM     17  C   UNL     1     136.501 123.359 134.024  0.00  0.00    +0.000 A 
ATOM     18  C   UNL     1     136.001 122.333 133.223  0.00  0.00    +0.000 A 
ATOM     19  C   UNL     1     135.781 123.794 135.134  0.00  0.00    +0.000 A 
ATOM     20  C   UNL     1     134.778 121.742 133.534  0.00  0.00    +0.000 A 
ATOM     21  C   UNL     1     134.559 123.202 135.444  0.00  0.00    +0.000 A 
ATOM     22  C   UNL     1     134.059 122.178 134.644  0.00  0.00    +0.000 A 
ENDBRANCH  16  17
ENDBRANCH  14  15
ENDBRANCH   1  14
TORSDOF 6
ENDMDL
MODEL 5
REMARK VINA RESULT:      -6.4      4.299      6.681
REMARK  Name = 641785_Cardamonin.pdbqt.pdb
REMARK  6 active torsions:
REMARK  status: ('A' for Active; 'I' for Inactive)
REMARK    1  A    between atoms: C_1  and  C_14
REMARK    2  A    between atoms: C_2  and  O_7
REMARK    3  A    between atoms: C_3  and  O_9
REMARK    4  A    between atoms: C_6  and  O_11
REMARK    5  A    between atoms: C_14  and  C_15
REMARK    6  A    between atoms: C_16  and  C_17
REMARK                            x       y       z     vdW  Elec       q    Type
REMARK                         _______ _______ _______ _____ _____    ______ ____
ROOT
ATOM      1  C   UNL     1     136.755 122.596 135.851  0.00  0.00    +0.000 A 
ATOM      2  C   UNL     1     135.723 123.298 135.198  0.00  0.00    +0.000 A 
ATOM      3  C   UNL     1     138.067 122.690 135.344  0.00  0.00    +0.000 A 
ATOM      4  C   UNL     1     136.023 124.048 134.051  0.00  0.00    +0.000 A 
ATOM      5  C   UNL     1     138.345 123.432 134.196  0.00  0.00    +0.000 A 
ATOM      6  C   UNL     1     137.318 124.102 133.553  0.00  0.00    +0.000 A 
ENDROOT
BRANCH   2   7
ATOM      7  O   UNL     1     134.461 123.294 135.746  0.00  0.00    +0.000 OA
ATOM      8  C   UNL     1     133.587 122.310 135.268  0.00  0.00    +0.000 C 
ENDBRANCH   2   7
BRANCH   3   9
ATOM      9  O   UNL     1     139.149 122.074 135.920  0.00  0.00    +0.000 OA
ATOM     10  H   UNL     1     139.247 122.378 136.849  0.00  0.00    +0.000 HD
ENDBRANCH   3   9
BRANCH   6  11
ATOM     11  O   UNL     1     137.605 124.821 132.433  0.00  0.00    +0.000 OA
ATOM     12  H   UNL     1     137.865 125.722 132.695  0.00  0.00    +0.000 HD
ENDBRANCH   6  11
BRANCH   1  14
ATOM     13  O   UNL     1     136.674 120.540 136.996  0.00  0.00    +0.000 OA
ATOM     14  C   UNL     1     136.538 121.757 137.057  0.00  0.00    +0.000 C 
BRANCH  14  15
ATOM     15  C   UNL     1     136.095 122.351 138.294  0.00  0.00    +0.000 C 
ATOM     16  C   UNL     1     135.708 122.837 139.323  0.00  0.00    +0.000 C 
BRANCH  16  17
ATOM     17  C   UNL     1     135.255 123.418 140.544  0.00  0.00    +0.000 A 
ATOM     18  C   UNL     1     136.072 124.314 141.232  0.00  0.00    +0.000 A 
ATOM     19  C   UNL     1     133.999 123.089 141.048  0.00  0.00    +0.000 A 
ATOM     20  C   UNL     1     135.631 124.881 142.425  0.00  0.00    +0.000 A 
ATOM     21  C   UNL     1     133.558 123.656 142.242  0.00  0.00    +0.000 A 
ATOM     22  C   UNL     1     134.375 124.552 142.929  0.00  0.00    +0.000 A 
ENDBRANCH  16  17
ENDBRANCH  14  15
ENDBRANCH   1  14
TORSDOF 6
ENDMDL
MODEL 6
REMARK VINA RESULT:      -6.4      2.758      6.290
REMARK  Name = 641785_Cardamonin.pdbqt.pdb
REMARK  6 active torsions:
REMARK  status: ('A' for Active; 'I' for Inactive)
REMARK    1  A    between atoms: C_1  and  C_14
REMARK    2  A    between atoms: C_2  and  O_7
REMARK    3  A    between atoms: C_3  and  O_9
REMARK    4  A    between atoms: C_6  and  O_11
REMARK    5  A    between atoms: C_14  and  C_15
REMARK    6  A    between atoms: C_16  and  C_17
REMARK                            x       y       z     vdW  Elec       q    Type
REMARK                         _______ _______ _______ _____ _____    ______ ____
ROOT
ATOM      1  C   UNL     1     139.572 124.520 133.481  0.00  0.00    +0.000 A 
ATOM      2  C   UNL     1     140.326 123.956 134.528  0.00  0.00    +0.000 A 
ATOM      3  C   UNL     1     138.242 124.090 133.294  0.00  0.00    +0.000 A 
ATOM      4  C   UNL     1     139.745 122.969 135.337  0.00  0.00    +0.000 A 
ATOM      5  C   UNL     1     137.684 123.100 134.101  0.00  0.00    +0.000 A 
ATOM      6  C   UNL     1     138.443 122.540 135.115  0.00  0.00    +0.000 A 
ENDROOT
BRANCH   2   7
ATOM      7  O   UNL     1     141.588 124.444 134.780  0.00  0.00    +0.000 OA
ATOM      8  C   UNL     1     141.712 125.276 135.899  0.00  0.00    +0.000 C 
ENDBRANCH   2   7
BRANCH   3   9
ATOM      9  O   UNL     1     137.411 124.595 132.326  0.00  0.00    +0.000 OA
ATOM     10  H   UNL     1     137.729 125.481 132.046  0.00  0.00    +0.000 HD
ENDBRANCH   3   9
BRANCH   6  11
ATOM     11  O   UNL     1     137.885 121.573 135.895  0.00  0.00    +0.000 OA
ATOM     12  H   UNL     1     138.437 120.772 135.847  0.00  0.00    +0.000 HD
ENDBRANCH   6  11
BRANCH   1  14
ATOM     13  O   UNL     1     140.712 125.225 131.544  0.00  0.00    +0.000 OA
ATOM     14  C   UNL     1     140.101 125.554 132.555  0.00  0.00    +0.000 C 
BRANCH  14  15
ATOM     15  C   UNL     1     139.969 126.955 132.868  0.00  0.00    +0.000 C 
ATOM     16  C   UNL     1     139.879 128.125 133.131  0.00  0.00    +0.000 C 
BRANCH  16  17
ATOM     17  C   UNL     1     139.765 129.511 133.444  0.00  0.00    +0.000 A 
ATOM     18  C   UNL     1     138.536 130.034 133.841  0.00  0.00    +0.000 A 
ATOM     19  C   UNL     1     140.880 130.340 133.349  0.00  0.00    +0.000 A 
ATOM     20  C   UNL     1     138.423 131.389 134.145  0.00  0.00    +0.000 A 
ATOM     21  C   UNL     1     140.766 131.695 133.653  0.00  0.00    +0.000 A 
ATOM     22  C   UNL     1     139.538 132.218 134.050  0.00  0.00    +0.000 A 
ENDBRANCH  16  17
ENDBRANCH  14  15
ENDBRANCH   1  14
TORSDOF 6
ENDMDL
MODEL 7
REMARK VINA RESULT:      -6.1      3.395      7.325
REMARK  Name = 641785_Cardamonin.pdbqt.pdb
REMARK  6 active torsions:
REMARK  status: ('A' for Active; 'I' for Inactive)
REMARK    1  A    between atoms: C_1  and  C_14
REMARK    2  A    between atoms: C_2  and  O_7
REMARK    3  A    between atoms: C_3  and  O_9
REMARK    4  A    between atoms: C_6  and  O_11
REMARK    5  A    between atoms: C_14  and  C_15
REMARK    6  A    between atoms: C_16  and  C_17
REMARK                            x       y       z     vdW  Elec       q    Type
REMARK                         _______ _______ _______ _____ _____    ______ ____
ROOT
ATOM      1  C   UNL     1     135.971 121.334 134.325  0.00  0.00    +0.000 A 
ATOM      2  C   UNL     1     134.895 121.784 135.114  0.00  0.00    +0.000 A 
ATOM      3  C   UNL     1     136.497 120.048 134.563  0.00  0.00    +0.000 A 
ATOM      4  C   UNL     1     134.394 120.954 136.128  0.00  0.00    +0.000 A 
ATOM      5  C   UNL     1     135.995 119.240 135.582  0.00  0.00    +0.000 A 
ATOM      6  C   UNL     1     134.948 119.702 136.363  0.00  0.00    +0.000 A 
ENDROOT
BRANCH   2   7
ATOM      7  O   UNL     1     134.310 122.994 134.820  0.00  0.00    +0.000 OA
ATOM      8  C   UNL     1     134.648 124.060 135.662  0.00  0.00    +0.000 C 
ENDBRANCH   2   7
BRANCH   3   9
ATOM      9  O   UNL     1     137.523 119.501 133.834  0.00  0.00    +0.000 OA
ATOM     10  H   UNL     1     138.191 119.114 134.441  0.00  0.00    +0.000 HD
ENDBRANCH   3   9
BRANCH   6  11
ATOM     11  O   UNL     1     134.468 118.903 137.356  0.00  0.00    +0.000 OA
ATOM     12  H   UNL     1     134.913 119.135 138.190  0.00  0.00    +0.000 HD
ENDBRANCH   6  11
BRANCH   1  14
ATOM     13  O   UNL     1     136.295 121.936 132.071  0.00  0.00    +0.000 OA
ATOM     14  C   UNL     1     136.588 122.144 133.244  0.00  0.00    +0.000 C 
BRANCH  14  15
ATOM     15  C   UNL     1     137.594 123.132 133.549  0.00  0.00    +0.000 C 
ATOM     16  C   UNL     1     138.424 123.958 133.821  0.00  0.00    +0.000 C 
BRANCH  16  17
ATOM     17  C   UNL     1     139.410 124.938 134.136  0.00  0.00    +0.000 A 
ATOM     18  C   UNL     1     139.502 126.101 133.372  0.00  0.00    +0.000 A 
ATOM     19  C   UNL     1     140.280 124.732 135.204  0.00  0.00    +0.000 A 
ATOM     20  C   UNL     1     140.467 127.058 133.678  0.00  0.00    +0.000 A 
ATOM     21  C   UNL     1     141.244 125.690 135.509  0.00  0.00    +0.000 A 
ATOM     22  C   UNL     1     141.337 126.851 134.746  0.00  0.00    +0.000 A 
ENDBRANCH  16  17
ENDBRANCH  14  15
ENDBRANCH   1  14
TORSDOF 6
ENDMDL
MODEL 8
REMARK VINA RESULT:      -6.1      2.628      4.194
REMARK  Name = 641785_Cardamonin.pdbqt.pdb
REMARK  6 active torsions:
REMARK  status: ('A' for Active; 'I' for Inactive)
REMARK    1  A    between atoms: C_1  and  C_14
REMARK    2  A    between atoms: C_2  and  O_7
REMARK    3  A    between atoms: C_3  and  O_9
REMARK    4  A    between atoms: C_6  and  O_11
REMARK    5  A    between atoms: C_14  and  C_15
REMARK    6  A    between atoms: C_16  and  C_17
REMARK                            x       y       z     vdW  Elec       q    Type
REMARK                         _______ _______ _______ _____ _____    ______ ____
ROOT
ATOM      1  C   UNL     1     137.607 123.460 134.089  0.00  0.00    +0.000 A 
ATOM      2  C   UNL     1     138.308 122.642 134.996  0.00  0.00    +0.000 A 
ATOM      3  C   UNL     1     138.328 124.127 133.077  0.00  0.00    +0.000 A 
ATOM      4  C   UNL     1     139.703 122.535 134.885  0.00  0.00    +0.000 A 
ATOM      5  C   UNL     1     139.715 124.017 132.988  0.00  0.00    +0.000 A 
ATOM      6  C   UNL     1     140.395 123.225 133.898  0.00  0.00    +0.000 A 
ENDROOT
BRANCH   2   7
ATOM      7  O   UNL     1     137.601 121.909 135.919  0.00  0.00    +0.000 OA
ATOM      8  C   UNL     1     137.526 122.451 137.208  0.00  0.00    +0.000 C 
ENDBRANCH   2   7
BRANCH   3   9
ATOM      9  O   UNL     1     137.740 124.920 132.124  0.00  0.00    +0.000 OA
ATOM     10  H   UNL     1     137.694 124.434 131.272  0.00  0.00    +0.000 HD
ENDBRANCH   3   9
BRANCH   6  11
ATOM     11  O   UNL     1     141.750 123.128 133.800  0.00  0.00    +0.000 OA
ATOM     12  H   UNL     1     142.039 123.573 132.983  0.00  0.00    +0.000 HD
ENDBRANCH   6  11
BRANCH   1  14
ATOM     13  O   UNL     1     135.667 124.717 134.539  0.00  0.00    +0.000 OA
ATOM     14  C   UNL     1     136.136 123.659 134.134  0.00  0.00    +0.000 C 
BRANCH  14  15
ATOM     15  C   UNL     1     135.239 122.587 133.776  0.00  0.00    +0.000 C 
ATOM     16  C   UNL     1     134.502 121.691 133.461  0.00  0.00    +0.000 C 
BRANCH  16  17
ATOM     17  C   UNL     1     133.623 120.631 133.093  0.00  0.00    +0.000 A 
ATOM     18  C   UNL     1     132.865 119.987 134.069  0.00  0.00    +0.000 A 
ATOM     19  C   UNL     1     133.525 120.239 131.760  0.00  0.00    +0.000 A 
ATOM     20  C   UNL     1     132.007 118.949 133.710  0.00  0.00    +0.000 A 
ATOM     21  C   UNL     1     132.667 119.201 131.402  0.00  0.00    +0.000 A 
ATOM     22  C   UNL     1     131.909 118.558 132.377  0.00  0.00    +0.000 A 
ENDBRANCH  16  17
ENDBRANCH  14  15
ENDBRANCH   1  14
TORSDOF 6
ENDMDL
MODEL 9
REMARK VINA RESULT:      -6.1      3.621      6.695
REMARK  Name = 641785_Cardamonin.pdbqt.pdb
REMARK  6 active torsions:
REMARK  status: ('A' for Active; 'I' for Inactive)
REMARK    1  A    between atoms: C_1  and  C_14
REMARK    2  A    between atoms: C_2  and  O_7
REMARK    3  A    between atoms: C_3  and  O_9
REMARK    4  A    between atoms: C_6  and  O_11
REMARK    5  A    between atoms: C_14  and  C_15
REMARK    6  A    between atoms: C_16  and  C_17
REMARK                            x       y       z     vdW  Elec       q    Type
REMARK                         _______ _______ _______ _____ _____    ______ ____
ROOT
ATOM      1  C   UNL     1     135.788 122.595 134.556  0.00  0.00    +0.000 A 
ATOM      2  C   UNL     1     136.012 121.295 135.046  0.00  0.00    +0.000 A 
ATOM      3  C   UNL     1     135.279 123.574 135.434  0.00  0.00    +0.000 A 
ATOM      4  C   UNL     1     135.700 121.002 136.382  0.00  0.00    +0.000 A 
ATOM      5  C   UNL     1     134.965 123.264 136.756  0.00  0.00    +0.000 A 
ATOM      6  C   UNL     1     135.172 121.976 137.220  0.00  0.00    +0.000 A 
ENDROOT
BRANCH   2   7
ATOM      7  O   UNL     1     136.604 120.363 134.225  0.00  0.00    +0.000 OA
ATOM      8  C   UNL     1     136.575 119.039 134.676  0.00  0.00    +0.000 C 
ENDBRANCH   2   7
BRANCH   3   9
ATOM      9  O   UNL     1     135.054 124.877 135.068  0.00  0.00    +0.000 OA
ATOM     10  H   UNL     1     135.269 125.473 135.819  0.00  0.00    +0.000 HD
ENDBRANCH   3   9
BRANCH   6  11
ATOM     11  O   UNL     1     134.859 121.686 138.514  0.00  0.00    +0.000 OA
ATOM     12  H   UNL     1     134.059 121.131 138.528  0.00  0.00    +0.000 HD
ENDBRANCH   6  11
BRANCH   1  14
ATOM     13  O   UNL     1     135.435 122.496 132.229  0.00  0.00    +0.000 OA
ATOM     14  C   UNL     1     136.064 123.001 133.154  0.00  0.00    +0.000 C 
BRANCH  14  15
ATOM     15  C   UNL     1     137.121 123.934 132.854  0.00  0.00    +0.000 C 
ATOM     16  C   UNL     1     137.995 124.725 132.616  0.00  0.00    +0.000 C 
BRANCH  16  17
ATOM     17  C   UNL     1     139.033 125.659 132.329  0.00  0.00    +0.000 A 
ATOM     18  C   UNL     1     139.920 125.411 131.282  0.00  0.00    +0.000 A 
ATOM     19  C   UNL     1     139.161 126.816 133.094  0.00  0.00    +0.000 A 
ATOM     20  C   UNL     1     140.935 126.323 131.002  0.00  0.00    +0.000 A 
ATOM     21  C   UNL     1     140.177 127.727 132.813  0.00  0.00    +0.000 A 
ATOM     22  C   UNL     1     141.063 127.479 131.767  0.00  0.00    +0.000 A 
ENDBRANCH  16  17
ENDBRANCH  14  15
ENDBRANCH   1  14
TORSDOF 6
ENDMDL
