MODEL 1
REMARK VINA RESULT:      -7.0      0.000      0.000
REMARK  Name = 6440856_Goniothalamin.pdbqt.pdb
REMARK  2 active torsions:
REMARK  status: ('A' for Active; 'I' for Inactive)
REMARK    1  A    between atoms: C_1  and  C_5
REMARK    2  A    between atoms: C_2  and  C_10
REMARK                            x       y       z     vdW  Elec       q    Type
REMARK                         _______ _______ _______ _____ _____    ______ ____
ROOT
ATOM      1  C   UNL     1     136.992 127.929 111.721  0.00  0.00    +0.000 C 
ATOM      2  C   UNL     1     135.878 128.377 111.730  0.00  0.00    +0.000 C 
ENDROOT
BRANCH   1   5
ATOM      3  O   UNL     1     138.657 126.407 112.687  0.00  0.00    +0.000 OA
ATOM      4  O   UNL     1     140.379 125.047 113.438  0.00  0.00    +0.000 OA
ATOM      5  C   UNL     1     138.304 127.401 111.706  0.00  0.00    +0.000 A 
ATOM      6  C   UNL     1     139.339 127.756 110.799  0.00  0.00    +0.000 A 
ATOM      7  C   UNL     1     140.757 127.243 110.716  0.00  0.00    +0.000 A 
ATOM      8  C   UNL     1     140.791 126.452 111.615  0.00  0.00    +0.000 A 
ATOM      9  C   UNL     1     139.958 125.892 112.662  0.00  0.00    +0.000 A 
ENDBRANCH   1   5
BRANCH   2  10
ATOM     10  C   UNL     1     134.555 128.910 111.740  0.00  0.00    +0.000 A 
ATOM     11  C   UNL     1     133.629 128.491 110.788  0.00  0.00    +0.000 A 
ATOM     12  C   UNL     1     134.191 129.848 112.704  0.00  0.00    +0.000 A 
ATOM     13  C   UNL     1     132.337 129.013 110.798  0.00  0.00    +0.000 A 
ATOM     14  C   UNL     1     132.899 130.369 112.714  0.00  0.00    +0.000 A 
ATOM     15  C   UNL     1     131.973 129.950 111.762  0.00  0.00    +0.000 A 
ENDBRANCH   2  10
TORSDOF 2
ENDMDL
MODEL 2
REMARK VINA RESULT:      -6.6     20.559     21.650
REMARK  Name = 6440856_Goniothalamin.pdbqt.pdb
REMARK  2 active torsions:
REMARK  status: ('A' for Active; 'I' for Inactive)
REMARK    1  A    between atoms: C_1  and  C_5
REMARK    2  A    between atoms: C_2  and  C_10
REMARK                            x       y       z     vdW  Elec       q    Type
REMARK                         _______ _______ _______ _____ _____    ______ ____
ROOT
ATOM      1  C   UNL     1     138.039 124.956 132.829  0.00  0.00    +0.000 C 
ATOM      2  C   UNL     1     137.135 124.295 133.264  0.00  0.00    +0.000 C 
ENDROOT
BRANCH   1   5
ATOM      3  O   UNL     1     140.136 125.077 131.561  0.00  0.00    +0.000 OA
ATOM      4  O   UNL     1     142.117 125.420 130.405  0.00  0.00    +0.000 OA
ATOM      5  C   UNL     1     139.100 125.735 132.314  0.00  0.00    +0.000 A 
ATOM      6  C   UNL     1     139.257 127.140 132.466  0.00  0.00    +0.000 A 
ATOM      7  C   UNL     1     140.353 128.042 131.950  0.00  0.00    +0.000 A 
ATOM      8  C   UNL     1     141.066 127.269 131.377  0.00  0.00    +0.000 A 
ATOM      9  C   UNL     1     141.182 125.859 131.057  0.00  0.00    +0.000 A 
ENDBRANCH   1   5
BRANCH   2  10
ATOM     10  C   UNL     1     136.062 123.511 133.780  0.00  0.00    +0.000 A 
ATOM     11  C   UNL     1     135.427 123.891 134.961  0.00  0.00    +0.000 A 
ATOM     12  C   UNL     1     135.649 122.366 133.103  0.00  0.00    +0.000 A 
ATOM     13  C   UNL     1     134.379 123.125 135.465  0.00  0.00    +0.000 A 
ATOM     14  C   UNL     1     134.600 121.600 133.607  0.00  0.00    +0.000 A 
ATOM     15  C   UNL     1     133.966 121.980 134.788  0.00  0.00    +0.000 A 
ENDBRANCH   2  10
TORSDOF 2
ENDMDL
MODEL 3
REMARK VINA RESULT:      -6.5      2.604      7.034
REMARK  Name = 6440856_Goniothalamin.pdbqt.pdb
REMARK  2 active torsions:
REMARK  status: ('A' for Active; 'I' for Inactive)
REMARK    1  A    between atoms: C_1  and  C_5
REMARK    2  A    between atoms: C_2  and  C_10
REMARK                            x       y       z     vdW  Elec       q    Type
REMARK                         _______ _______ _______ _____ _____    ______ ____
ROOT
ATOM      1  C   UNL     1     135.679 128.402 111.561  0.00  0.00    +0.000 C 
ATOM      2  C   UNL     1     136.817 128.021 111.541  0.00  0.00    +0.000 C 
ENDROOT
BRANCH   1   5
ATOM      3  O   UNL     1     133.933 129.746 112.643  0.00  0.00    +0.000 OA
ATOM      4  O   UNL     1     132.139 130.941 113.498  0.00  0.00    +0.000 OA
ATOM      5  C   UNL     1     134.339 128.854 111.588  0.00  0.00    +0.000 A 
ATOM      6  C   UNL     1     133.322 128.512 110.655  0.00  0.00    +0.000 A 
ATOM      7  C   UNL     1     131.876 128.948 110.612  0.00  0.00    +0.000 A 
ATOM      8  C   UNL     1     131.801 129.662 111.570  0.00  0.00    +0.000 A 
ATOM      9  C   UNL     1     132.604 130.185 112.658  0.00  0.00    +0.000 A 
ENDBRANCH   1   5
BRANCH   2  10
ATOM     10  C   UNL     1     138.170 127.569 111.516  0.00  0.00    +0.000 A 
ATOM     11  C   UNL     1     138.622 126.675 112.484  0.00  0.00    +0.000 A 
ATOM     12  C   UNL     1     139.036 128.023 110.524  0.00  0.00    +0.000 A 
ATOM     13  C   UNL     1     139.943 126.234 112.460  0.00  0.00    +0.000 A 
ATOM     14  C   UNL     1     140.357 127.581 110.500  0.00  0.00    +0.000 A 
ATOM     15  C   UNL     1     140.810 126.687 111.468  0.00  0.00    +0.000 A 
ENDBRANCH   2  10
TORSDOF 2
ENDMDL
MODEL 4
REMARK VINA RESULT:      -6.4     20.920     21.932
REMARK  Name = 6440856_Goniothalamin.pdbqt.pdb
REMARK  2 active torsions:
REMARK  status: ('A' for Active; 'I' for Inactive)
REMARK    1  A    between atoms: C_1  and  C_5
REMARK    2  A    between atoms: C_2  and  C_10
REMARK                            x       y       z     vdW  Elec       q    Type
REMARK                         _______ _______ _______ _____ _____    ______ ____
ROOT
ATOM      1  C   UNL     1     137.856 124.881 133.024  0.00  0.00    +0.000 C 
ATOM      2  C   UNL     1     136.941 124.258 133.491  0.00  0.00    +0.000 C 
ENDROOT
BRANCH   1   5
ATOM      3  O   UNL     1     139.041 127.016 132.786  0.00  0.00    +0.000 OA
ATOM      4  O   UNL     1     140.311 128.922 132.423  0.00  0.00    +0.000 OA
ATOM      5  C   UNL     1     138.930 125.615 132.471  0.00  0.00    +0.000 A 
ATOM      6  C   UNL     1     139.941 125.102 131.614  0.00  0.00    +0.000 A 
ATOM      7  C   UNL     1     141.116 125.814 130.985  0.00  0.00    +0.000 A 
ATOM      8  C   UNL     1     140.979 126.932 131.394  0.00  0.00    +0.000 A 
ATOM      9  C   UNL     1     140.108 127.732 132.232  0.00  0.00    +0.000 A 
ENDBRANCH   1   5
BRANCH   2  10
ATOM     10  C   UNL     1     135.855 123.519 134.045  0.00  0.00    +0.000 A 
ATOM     11  C   UNL     1     135.441 122.333 133.443  0.00  0.00    +0.000 A 
ATOM     12  C   UNL     1     135.210 123.984 135.189  0.00  0.00    +0.000 A 
ATOM     13  C   UNL     1     134.380 121.611 133.985  0.00  0.00    +0.000 A 
ATOM     14  C   UNL     1     134.148 123.262 135.731  0.00  0.00    +0.000 A 
ATOM     15  C   UNL     1     133.735 122.076 135.128  0.00  0.00    +0.000 A 
ENDBRANCH   2  10
TORSDOF 2
ENDMDL
MODEL 5
REMARK VINA RESULT:      -6.2     21.118     22.611
REMARK  Name = 6440856_Goniothalamin.pdbqt.pdb
REMARK  2 active torsions:
REMARK  status: ('A' for Active; 'I' for Inactive)
REMARK    1  A    between atoms: C_1  and  C_5
REMARK    2  A    between atoms: C_2  and  C_10
REMARK                            x       y       z     vdW  Elec       q    Type
REMARK                         _______ _______ _______ _____ _____    ______ ____
ROOT
ATOM      1  C   UNL     1     136.893 124.218 133.541  0.00  0.00    +0.000 C 
ATOM      2  C   UNL     1     137.812 124.852 133.100  0.00  0.00    +0.000 C 
ENDROOT
BRANCH   1   5
ATOM      3  O   UNL     1     135.383 122.294 133.344  0.00  0.00    +0.000 OA
ATOM      4  O   UNL     1     133.855 120.550 133.355  0.00  0.00    +0.000 OA
ATOM      5  C   UNL     1     135.811 123.470 134.058  0.00  0.00    +0.000 A 
ATOM      6  C   UNL     1     135.079 123.763 135.241  0.00  0.00    +0.000 A 
ATOM      7  C   UNL     1     133.918 123.019 135.859  0.00  0.00    +0.000 A 
ATOM      8  C   UNL     1     133.766 122.112 135.092  0.00  0.00    +0.000 A 
ATOM      9  C   UNL     1     134.310 121.562 133.866  0.00  0.00    +0.000 A 
ENDBRANCH   1   5
BRANCH   2  10
ATOM     10  C   UNL     1     138.905 125.604 132.576  0.00  0.00    +0.000 A 
ATOM     11  C   UNL     1     139.805 125.005 131.697  0.00  0.00    +0.000 A 
ATOM     12  C   UNL     1     139.070 126.938 132.943  0.00  0.00    +0.000 A 
ATOM     13  C   UNL     1     140.872 125.740 131.186  0.00  0.00    +0.000 A 
ATOM     14  C   UNL     1     140.137 127.673 132.431  0.00  0.00    +0.000 A 
ATOM     15  C   UNL     1     141.037 127.073 131.552  0.00  0.00    +0.000 A 
ENDBRANCH   2  10
TORSDOF 2
ENDMDL
MODEL 6
REMARK VINA RESULT:      -5.7     11.152     13.860
REMARK  Name = 6440856_Goniothalamin.pdbqt.pdb
REMARK  2 active torsions:
REMARK  status: ('A' for Active; 'I' for Inactive)
REMARK    1  A    between atoms: C_1  and  C_5
REMARK    2  A    between atoms: C_2  and  C_10
REMARK                            x       y       z     vdW  Elec       q    Type
REMARK                         _______ _______ _______ _____ _____    ______ ____
ROOT
ATOM      1  C   UNL     1     143.811 124.852 101.263  0.00  0.00    +0.000 C 
ATOM      2  C   UNL     1     143.320 124.329 100.300  0.00  0.00    +0.000 C 
ENDROOT
BRANCH   1   5
ATOM      3  O   UNL     1     143.790 125.239 103.687  0.00  0.00    +0.000 OA
ATOM      4  O   UNL     1     143.958 125.739 105.944  0.00  0.00    +0.000 OA
ATOM      5  C   UNL     1     144.387 125.471 102.397  0.00  0.00    +0.000 A 
ATOM      6  C   UNL     1     145.526 126.322 102.397  0.00  0.00    +0.000 A 
ATOM      7  C   UNL     1     146.201 127.018 103.556  0.00  0.00    +0.000 A 
ATOM      8  C   UNL     1     145.528 126.670 104.484  0.00  0.00    +0.000 A 
ATOM      9  C   UNL     1     144.370 125.857 104.800  0.00  0.00    +0.000 A 
ENDBRANCH   1   5
BRANCH   2  10
ATOM     10  C   UNL     1     142.736 123.708  99.157  0.00  0.00    +0.000 A 
ATOM     11  C   UNL     1     143.485 122.817  98.391  0.00  0.00    +0.000 A 
ATOM     12  C   UNL     1     141.418 123.994  98.808  0.00  0.00    +0.000 A 
ATOM     13  C   UNL     1     142.914 122.212  97.274  0.00  0.00    +0.000 A 
ATOM     14  C   UNL     1     140.848 123.387  97.690  0.00  0.00    +0.000 A 
ATOM     15  C   UNL     1     141.597 122.496  96.925  0.00  0.00    +0.000 A 
ENDBRANCH   2  10
TORSDOF 2
ENDMDL
MODEL 7
REMARK VINA RESULT:      -5.6     22.200     23.902
REMARK  Name = 6440856_Goniothalamin.pdbqt.pdb
REMARK  2 active torsions:
REMARK  status: ('A' for Active; 'I' for Inactive)
REMARK    1  A    between atoms: C_1  and  C_5
REMARK    2  A    between atoms: C_2  and  C_10
REMARK                            x       y       z     vdW  Elec       q    Type
REMARK                         _______ _______ _______ _____ _____    ______ ____
ROOT
ATOM      1  C   UNL     1     138.865 123.877 134.406  0.00  0.00    +0.000 C 
ATOM      2  C   UNL     1     139.692 124.675 134.753  0.00  0.00    +0.000 C 
ENDROOT
BRANCH   1   5
ATOM      3  O   UNL     1     137.832 121.667 134.668  0.00  0.00    +0.000 OA
ATOM      4  O   UNL     1     136.711 119.638 134.742  0.00  0.00    +0.000 OA
ATOM      5  C   UNL     1     137.887 122.941 133.998  0.00  0.00    +0.000 A 
ATOM      6  C   UNL     1     136.926 123.129 132.968  0.00  0.00    +0.000 A 
ATOM      7  C   UNL     1     135.854 122.186 132.474  0.00  0.00    +0.000 A 
ATOM      8  C   UNL     1     136.020 121.229 133.175  0.00  0.00    +0.000 A 
ATOM      9  C   UNL     1     136.860 120.748 134.255  0.00  0.00    +0.000 A 
ENDBRANCH   1   5
BRANCH   2  10
ATOM     10  C   UNL     1     140.675 125.623 135.165  0.00  0.00    +0.000 A 
ATOM     11  C   UNL     1     140.832 126.814 134.459  0.00  0.00    +0.000 A 
ATOM     12  C   UNL     1     141.477 125.356 136.272  0.00  0.00    +0.000 A 
ATOM     13  C   UNL     1     141.793 127.739 134.861  0.00  0.00    +0.000 A 
ATOM     14  C   UNL     1     142.438 126.282 136.674  0.00  0.00    +0.000 A 
ATOM     15  C   UNL     1     142.594 127.473 135.969  0.00  0.00    +0.000 A 
ENDBRANCH   2  10
TORSDOF 2
ENDMDL
MODEL 8
REMARK VINA RESULT:      -5.6     12.550     14.968
REMARK  Name = 6440856_Goniothalamin.pdbqt.pdb
REMARK  2 active torsions:
REMARK  status: ('A' for Active; 'I' for Inactive)
REMARK    1  A    between atoms: C_1  and  C_5
REMARK    2  A    between atoms: C_2  and  C_10
REMARK                            x       y       z     vdW  Elec       q    Type
REMARK                         _______ _______ _______ _____ _____    ______ ____
ROOT
ATOM      1  C   UNL     1     143.709 124.378 100.235  0.00  0.00    +0.000 C 
ATOM      2  C   UNL     1     144.367 124.913 101.085  0.00  0.00    +0.000 C 
ENDROOT
BRANCH   1   5
ATOM      3  O   UNL     1     141.518 123.999  99.197  0.00  0.00    +0.000 OA
ATOM      4  O   UNL     1     139.557 123.502  98.065  0.00  0.00    +0.000 OA
ATOM      5  C   UNL     1     142.936 123.750  99.231  0.00  0.00    +0.000 A 
ATOM      6  C   UNL     1     143.425 122.876  98.223  0.00  0.00    +0.000 A 
ATOM      7  C   UNL     1     142.672 122.169  97.120  0.00  0.00    +0.000 A 
ATOM      8  C   UNL     1     141.547 122.534  97.311  0.00  0.00    +0.000 A 
ATOM      9  C   UNL     1     140.764 123.372  98.199  0.00  0.00    +0.000 A 
ENDBRANCH   1   5
BRANCH   2  10
ATOM     10  C   UNL     1     145.149 125.548 102.095  0.00  0.00    +0.000 A 
ATOM     11  C   UNL     1     146.529 125.660 101.938  0.00  0.00    +0.000 A 
ATOM     12  C   UNL     1     144.532 126.055 103.236  0.00  0.00    +0.000 A 
ATOM     13  C   UNL     1     147.292 126.279 102.925  0.00  0.00    +0.000 A 
ATOM     14  C   UNL     1     145.295 126.675 104.222  0.00  0.00    +0.000 A 
ATOM     15  C   UNL     1     146.675 126.788 104.066  0.00  0.00    +0.000 A 
ENDBRANCH   2  10
TORSDOF 2
ENDMDL
MODEL 9
REMARK VINA RESULT:      -5.3     16.845     19.428
REMARK  Name = 6440856_Goniothalamin.pdbqt.pdb
REMARK  2 active torsions:
REMARK  status: ('A' for Active; 'I' for Inactive)
REMARK    1  A    between atoms: C_1  and  C_5
REMARK    2  A    between atoms: C_2  and  C_10
REMARK                            x       y       z     vdW  Elec       q    Type
REMARK                         _______ _______ _______ _____ _____    ______ ____
ROOT
ATOM      1  C   UNL     1     154.203 124.779 115.975  0.00  0.00    +0.000 C 
ATOM      2  C   UNL     1     154.544 123.755 116.500  0.00  0.00    +0.000 C 
ENDROOT
BRANCH   1   5
ATOM      3  O   UNL     1     153.569 125.982 113.932  0.00  0.00    +0.000 OA
ATOM      4  O   UNL     1     152.946 127.307 112.135  0.00  0.00    +0.000 OA
ATOM      5  C   UNL     1     153.800 125.984 115.354  0.00  0.00    +0.000 A 
ATOM      6  C   UNL     1     153.594 127.232 116.002  0.00  0.00    +0.000 A 
ATOM      7  C   UNL     1     153.166 128.557 115.415  0.00  0.00    +0.000 A 
ATOM      8  C   UNL     1     153.045 128.289 114.254  0.00  0.00    +0.000 A 
ATOM      9  C   UNL     1     153.172 127.180 113.328  0.00  0.00    +0.000 A 
ENDBRANCH   1   5
BRANCH   2  10
ATOM     10  C   UNL     1     154.949 122.538 117.124  0.00  0.00    +0.000 A 
ATOM     11  C   UNL     1     154.060 121.469 117.208  0.00  0.00    +0.000 A 
ATOM     12  C   UNL     1     156.235 122.420 117.648  0.00  0.00    +0.000 A 
ATOM     13  C   UNL     1     154.456 120.281 117.818  0.00  0.00    +0.000 A 
ATOM     14  C   UNL     1     156.630 121.231 118.258  0.00  0.00    +0.000 A 
ATOM     15  C   UNL     1     155.741 120.162 118.341  0.00  0.00    +0.000 A 
ENDBRANCH   2  10
TORSDOF 2
ENDMDL
