MODEL 1
REMARK VINA RESULT:      -4.2      0.000      0.000
REMARK  Name = 649_Dihydrouracil.pdb
REMARK  0 active torsions:
REMARK  status: ('A' for Active; 'I' for Inactive)
REMARK                            x       y       z     vdW  Elec       q    Type
REMARK                         _______ _______ _______ _____ _____    ______ ____
ROOT
ATOM      1  O   UNL     1     143.328 127.780 125.681  0.00  0.00    +0.000 OA
ATOM      2  O   UNL     1     142.894 129.509 121.424  0.00  0.00    +0.000 OA
ATOM      3  N   UNL     1     142.355 127.302 121.736  0.00  0.00    +0.000 N 
ATOM      4  N   UNL     1     143.103 128.628 123.537  0.00  0.00    +0.000 N 
ATOM      5  C   UNL     1     142.238 126.244 122.549  0.00  0.00    +0.000 A 
ATOM      6  C   UNL     1     142.579 126.362 123.999  0.00  0.00    +0.000 A 
ATOM      7  C   UNL     1     143.035 127.626 124.505  0.00  0.00    +0.000 A 
ATOM      8  C   UNL     1     142.790 128.546 122.175  0.00  0.00    +0.000 A 
ATOM      9  H   UNL     1     142.120 127.211 120.755  0.00  0.00    +0.000 HD
ATOM     10  H   UNL     1     143.420 129.529 123.860  0.00  0.00    +0.000 HD
ENDROOT
TORSDOF 0
ENDMDL
MODEL 2
REMARK VINA RESULT:      -4.0     17.195     18.516
REMARK  Name = 649_Dihydrouracil.pdb
REMARK  0 active torsions:
REMARK  status: ('A' for Active; 'I' for Inactive)
REMARK                            x       y       z     vdW  Elec       q    Type
REMARK                         _______ _______ _______ _____ _____    ______ ____
ROOT
ATOM      1  O   UNL     1     145.890 127.831 103.188  0.00  0.00    +0.000 OA
ATOM      2  O   UNL     1     143.985 125.706 106.815  0.00  0.00    +0.000 OA
ATOM      3  N   UNL     1     146.235 125.421 106.476  0.00  0.00    +0.000 N 
ATOM      4  N   UNL     1     144.954 126.756 105.014  0.00  0.00    +0.000 N 
ATOM      5  C   UNL     1     147.337 125.672 105.758  0.00  0.00    +0.000 A 
ATOM      6  C   UNL     1     147.269 126.546 104.548  0.00  0.00    +0.000 A 
ATOM      7  C   UNL     1     146.004 127.111 104.168  0.00  0.00    +0.000 A 
ATOM      8  C   UNL     1     144.988 125.942 106.152  0.00  0.00    +0.000 A 
ATOM      9  H   UNL     1     146.292 124.828 107.295  0.00  0.00    +0.000 HD
ATOM     10  H   UNL     1     144.051 127.136 104.775  0.00  0.00    +0.000 HD
ENDROOT
TORSDOF 0
ENDMDL
MODEL 3
REMARK VINA RESULT:      -3.9     11.358     12.144
REMARK  Name = 649_Dihydrouracil.pdb
REMARK  0 active torsions:
REMARK  status: ('A' for Active; 'I' for Inactive)
REMARK                            x       y       z     vdW  Elec       q    Type
REMARK                         _______ _______ _______ _____ _____    ______ ____
ROOT
ATOM      1  O   UNL     1     138.529 126.216 133.100  0.00  0.00    +0.000 OA
ATOM      2  O   UNL     1     136.118 122.430 132.026  0.00  0.00    +0.000 OA
ATOM      3  N   UNL     1     137.730 122.240 133.646  0.00  0.00    +0.000 N 
ATOM      4  N   UNL     1     137.330 124.304 132.576  0.00  0.00    +0.000 N 
ATOM      5  C   UNL     1     138.693 122.800 134.390  0.00  0.00    +0.000 A 
ATOM      6  C   UNL     1     139.026 124.248 134.233  0.00  0.00    +0.000 A 
ATOM      7  C   UNL     1     138.298 125.028 133.272  0.00  0.00    +0.000 A 
ATOM      8  C   UNL     1     136.997 122.951 132.703  0.00  0.00    +0.000 A 
ATOM      9  H   UNL     1     137.512 121.258 133.761  0.00  0.00    +0.000 HD
ATOM     10  H   UNL     1     136.801 124.823 131.893  0.00  0.00    +0.000 HD
ENDROOT
TORSDOF 0
ENDMDL
MODEL 4
REMARK VINA RESULT:      -3.9     19.381     20.595
REMARK  Name = 649_Dihydrouracil.pdb
REMARK  0 active torsions:
REMARK  status: ('A' for Active; 'I' for Inactive)
REMARK                            x       y       z     vdW  Elec       q    Type
REMARK                         _______ _______ _______ _____ _____    ______ ____
ROOT
ATOM      1  O   UNL     1     146.566 124.886 101.414  0.00  0.00    +0.000 OA
ATOM      2  O   UNL     1     143.187 125.780 104.426  0.00  0.00    +0.000 OA
ATOM      3  N   UNL     1     144.687 127.456 103.983  0.00  0.00    +0.000 N 
ATOM      4  N   UNL     1     144.878 125.356 102.929  0.00  0.00    +0.000 N 
ATOM      5  C   UNL     1     145.772 127.895 103.330  0.00  0.00    +0.000 A 
ATOM      6  C   UNL     1     146.497 126.999 102.379  0.00  0.00    +0.000 A 
ATOM      7  C   UNL     1     146.013 125.662 102.178  0.00  0.00    +0.000 A 
ATOM      8  C   UNL     1     144.179 126.173 103.824  0.00  0.00    +0.000 A 
ATOM      9  H   UNL     1     144.203 128.072 104.625  0.00  0.00    +0.000 HD
ATOM     10  H   UNL     1     144.512 124.423 102.810  0.00  0.00    +0.000 HD
ENDROOT
TORSDOF 0
ENDMDL
MODEL 5
REMARK VINA RESULT:      -3.7     21.144     22.142
REMARK  Name = 649_Dihydrouracil.pdb
REMARK  0 active torsions:
REMARK  status: ('A' for Active; 'I' for Inactive)
REMARK                            x       y       z     vdW  Elec       q    Type
REMARK                         _______ _______ _______ _____ _____    ______ ____
ROOT
ATOM      1  O   UNL     1     147.175 128.854 100.336  0.00  0.00    +0.000 OA
ATOM      2  O   UNL     1     146.687 124.314 100.999  0.00  0.00    +0.000 OA
ATOM      3  N   UNL     1     146.528 125.679 102.834  0.00  0.00    +0.000 N 
ATOM      4  N   UNL     1     146.927 126.578 100.691  0.00  0.00    +0.000 N 
ATOM      5  C   UNL     1     146.553 126.908 103.366  0.00  0.00    +0.000 A 
ATOM      6  C   UNL     1     146.784 128.104 102.500  0.00  0.00    +0.000 A 
ATOM      7  C   UNL     1     146.980 127.914 101.090  0.00  0.00    +0.000 A 
ATOM      8  C   UNL     1     146.711 125.442 101.477  0.00  0.00    +0.000 A 
ATOM      9  H   UNL     1     146.370 124.876 103.430  0.00  0.00    +0.000 HD
ATOM     10  H   UNL     1     147.061 126.410  99.706  0.00  0.00    +0.000 HD
ENDROOT
TORSDOF 0
ENDMDL
MODEL 6
REMARK VINA RESULT:      -3.7     19.790     20.580
REMARK  Name = 649_Dihydrouracil.pdb
REMARK  0 active torsions:
REMARK  status: ('A' for Active; 'I' for Inactive)
REMARK                            x       y       z     vdW  Elec       q    Type
REMARK                         _______ _______ _______ _____ _____    ______ ____
ROOT
ATOM      1  O   UNL     1     144.240 123.998 101.843  0.00  0.00    +0.000 OA
ATOM      2  O   UNL     1     146.504 127.329 104.096  0.00  0.00    +0.000 OA
ATOM      3  N   UNL     1     144.327 127.737 103.503  0.00  0.00    +0.000 N 
ATOM      4  N   UNL     1     145.358 125.683 102.973  0.00  0.00    +0.000 N 
ATOM      5  C   UNL     1     143.190 127.328 102.923  0.00  0.00    +0.000 A 
ATOM      6  C   UNL     1     143.102 125.972 102.302  0.00  0.00    +0.000 A 
ATOM      7  C   UNL     1     144.255 125.116 102.336  0.00  0.00    +0.000 A 
ATOM      8  C   UNL     1     145.468 126.947 103.563  0.00  0.00    +0.000 A 
ATOM      9  H   UNL     1     144.375 128.657 103.922  0.00  0.00    +0.000 HD
ATOM     10  H   UNL     1     146.184 125.107 103.014  0.00  0.00    +0.000 HD
ENDROOT
TORSDOF 0
ENDMDL
MODEL 7
REMARK VINA RESULT:      -3.7     12.636     13.203
REMARK  Name = 649_Dihydrouracil.pdb
REMARK  0 active torsions:
REMARK  status: ('A' for Active; 'I' for Inactive)
REMARK                            x       y       z     vdW  Elec       q    Type
REMARK                         _______ _______ _______ _____ _____    ______ ____
ROOT
ATOM      1  O   UNL     1     141.552 128.375 135.896  0.00  0.00    +0.000 OA
ATOM      2  O   UNL     1     140.739 123.978 134.758  0.00  0.00    +0.000 OA
ATOM      3  N   UNL     1     142.391 124.391 136.295  0.00  0.00    +0.000 N 
ATOM      4  N   UNL     1     141.160 126.161 135.339  0.00  0.00    +0.000 N 
ATOM      5  C   UNL     1     143.103 125.263 137.020  0.00  0.00    +0.000 A 
ATOM      6  C   UNL     1     142.839 126.730 136.915  0.00  0.00    +0.000 A 
ATOM      7  C   UNL     1     141.811 127.188 136.023  0.00  0.00    +0.000 A 
ATOM      8  C   UNL     1     141.386 124.783 135.419  0.00  0.00    +0.000 A 
ATOM      9  H   UNL     1     142.578 123.399 136.374  0.00  0.00    +0.000 HD
ATOM     10  H   UNL     1     140.432 126.450 134.705  0.00  0.00    +0.000 HD
ENDROOT
TORSDOF 0
ENDMDL
MODEL 8
REMARK VINA RESULT:      -3.7     12.355     13.329
REMARK  Name = 649_Dihydrouracil.pdb
REMARK  0 active torsions:
REMARK  status: ('A' for Active; 'I' for Inactive)
REMARK                            x       y       z     vdW  Elec       q    Type
REMARK                         _______ _______ _______ _____ _____    ______ ____
ROOT
ATOM      1  O   UNL     1     134.701 120.993 132.241  0.00  0.00    +0.000 OA
ATOM      2  O   UNL     1     137.684 124.511 132.397  0.00  0.00    +0.000 OA
ATOM      3  N   UNL     1     136.317 124.195 134.211  0.00  0.00    +0.000 N 
ATOM      4  N   UNL     1     136.191 122.764 132.340  0.00  0.00    +0.000 N 
ATOM      5  C   UNL     1     135.345 123.502 134.819  0.00  0.00    +0.000 A 
ATOM      6  C   UNL     1     134.720 122.324 134.147  0.00  0.00    +0.000 A 
ATOM      7  C   UNL     1     135.177 121.947 132.838  0.00  0.00    +0.000 A 
ATOM      8  C   UNL     1     136.795 123.872 132.946  0.00  0.00    +0.000 A 
ATOM      9  H   UNL     1     136.734 124.991 134.675  0.00  0.00    +0.000 HD
ATOM     10  H   UNL     1     136.534 122.527 131.422  0.00  0.00    +0.000 HD
ENDROOT
TORSDOF 0
ENDMDL
MODEL 9
REMARK VINA RESULT:      -3.6     13.922     14.500
REMARK  Name = 649_Dihydrouracil.pdb
REMARK  0 active torsions:
REMARK  status: ('A' for Active; 'I' for Inactive)
REMARK                            x       y       z     vdW  Elec       q    Type
REMARK                         _______ _______ _______ _____ _____    ______ ____
ROOT
ATOM      1  O   UNL     1     135.214 124.481 134.700  0.00  0.00    +0.000 OA
ATOM      2  O   UNL     1     138.098 121.485 136.700  0.00  0.00    +0.000 OA
ATOM      3  N   UNL     1     137.396 121.022 134.567  0.00  0.00    +0.000 N 
ATOM      4  N   UNL     1     136.662 122.964 135.686  0.00  0.00    +0.000 N 
ATOM      5  C   UNL     1     136.673 121.356 133.490  0.00  0.00    +0.000 A 
ATOM      6  C   UNL     1     135.858 122.609 133.483  0.00  0.00    +0.000 A 
ATOM      7  C   UNL     1     135.862 123.447 134.649  0.00  0.00    +0.000 A 
ATOM      8  C   UNL     1     137.434 121.798 135.719  0.00  0.00    +0.000 A 
ATOM      9  H   UNL     1     137.945 120.172 134.561  0.00  0.00    +0.000 HD
ATOM     10  H   UNL     1     136.686 123.530 136.520  0.00  0.00    +0.000 HD
ENDROOT
TORSDOF 0
ENDMDL
