MODEL 1
REMARK VINA RESULT:      -9.0      0.000      0.000
REMARK  Name = 6509753_ManzamineA.pdbqt.pdb
REMARK  2 active torsions:
REMARK  status: ('A' for Active; 'I' for Inactive)
REMARK    1  A    between atoms: C_7  and  O_42
REMARK    2  A    between atoms: C_11  and  C_30
REMARK                            x       y       z     vdW  Elec       q    Type
REMARK                         _______ _______ _______ _____ _____    ______ ____
ROOT
ATOM      1  N   UNL     1     143.106 115.683 107.980  0.00  0.00    +0.000 N 
ATOM      2  N   UNL     1     141.698 111.372 110.049  0.00  0.00    +0.000 N 
ATOM      3  C   UNL     1     141.638 114.170 109.382  0.00  0.00    +0.000 C 
ATOM      4  C   UNL     1     142.803 115.211 109.356  0.00  0.00    +0.000 C 
ATOM      5  C   UNL     1     140.414 114.409 110.359  0.00  0.00    +0.000 C 
ATOM      6  C   UNL     1     141.233 114.341 107.990  0.00  0.00    +0.000 C 
ATOM      7  C   UNL     1     142.918 116.225 110.497  0.00  0.00    +0.000 C 
ATOM      8  C   UNL     1     142.087 112.750 109.603  0.00  0.00    +0.000 C 
ATOM      9  C   UNL     1     142.120 114.996 107.115  0.00  0.00    +0.000 C 
ATOM     10  C   UNL     1     139.816 113.184 110.828  0.00  0.00    +0.000 C 
ATOM     11  C   UNL     1     140.485 115.556 111.253  0.00  0.00    +0.000 C 
ATOM     12  C   UNL     1     141.632 116.153 111.161  0.00  0.00    +0.000 C 
ATOM     13  C   UNL     1     140.453 111.796 110.708  0.00  0.00    +0.000 C 
ATOM     14  C   UNL     1     144.494 115.410 107.597  0.00  0.00    +0.000 C 
ATOM     15  C   UNL     1     144.058 115.907 111.350  0.00  0.00    +0.000 C 
ATOM     16  C   UNL     1     142.455 114.567 105.797  0.00  0.00    +0.000 C 
ATOM     17  C   UNL     1     142.639 110.955 111.075  0.00  0.00    +0.000 C 
ATOM     18  C   UNL     1     145.675 114.987 106.704  0.00  0.00    +0.000 C 
ATOM     19  C   UNL     1     145.170 115.412 112.278  0.00  0.00    +0.000 C 
ATOM     20  C   UNL     1     143.163 114.239 104.883  0.00  0.00    +0.000 C 
ATOM     21  C   UNL     1     145.813 114.407 105.297  0.00  0.00    +0.000 C 
ATOM     22  C   UNL     1     143.721 110.677 112.122  0.00  0.00    +0.000 C 
ATOM     23  C   UNL     1     144.612 114.065 104.423  0.00  0.00    +0.000 C 
ATOM     24  C   UNL     1     146.019 114.484 113.143  0.00  0.00    +0.000 C 
ATOM     25  C   UNL     1     144.896 110.920 113.064  0.00  0.00    +0.000 C 
ATOM     26  C   UNL     1     145.891 111.912 113.645  0.00  0.00    +0.000 C 
ATOM     27  C   UNL     1     146.239 113.389 113.573  0.00  0.00    +0.000 C 
ENDROOT
BRANCH  11  30
ATOM     28  N   UNL     1     138.468 116.709 111.948  0.00  0.00    +0.000 NA
ATOM     29  N   UNL     1     140.595 114.658 114.175  0.00  0.00    +0.000 N 
ATOM     30  C   UNL     1     139.513 115.917 112.275  0.00  0.00    +0.000 A 
ATOM     31  C   UNL     1     139.651 115.469 113.587  0.00  0.00    +0.000 A 
ATOM     32  C   UNL     1     138.736 115.819 114.581  0.00  0.00    +0.000 A 
ATOM     33  C   UNL     1     137.586 117.044 112.915  0.00  0.00    +0.000 A 
ATOM     34  C   UNL     1     137.652 116.645 114.243  0.00  0.00    +0.000 A 
ATOM     35  C   UNL     1     139.163 115.200 115.795  0.00  0.00    +0.000 A 
ATOM     36  C   UNL     1     140.324 114.483 115.511  0.00  0.00    +0.000 A 
ATOM     37  C   UNL     1     138.663 115.183 117.111  0.00  0.00    +0.000 A 
ATOM     38  C   UNL     1     141.017 113.744 116.475  0.00  0.00    +0.000 A 
ATOM     39  C   UNL     1     139.342 114.451 118.088  0.00  0.00    +0.000 A 
ATOM     40  C   UNL     1     140.497 113.745 117.771  0.00  0.00    +0.000 A 
ATOM     41  H   UNL     1     141.377 114.238 113.692  0.00  0.00    +0.000 HD
ENDBRANCH  11  30
BRANCH   7  42
ATOM     42  O   UNL     1     143.071 117.543 109.990  0.00  0.00    +0.000 OA
ATOM     43  H   UNL     1     142.490 117.601 109.213  0.00  0.00    +0.000 HD
ENDBRANCH   7  42
TORSDOF 2
ENDMDL
MODEL 2
REMARK VINA RESULT:      -8.0      1.323      2.724
REMARK  Name = 6509753_ManzamineA.pdbqt.pdb
REMARK  2 active torsions:
REMARK  status: ('A' for Active; 'I' for Inactive)
REMARK    1  A    between atoms: C_7  and  O_42
REMARK    2  A    between atoms: C_11  and  C_30
REMARK                            x       y       z     vdW  Elec       q    Type
REMARK                         _______ _______ _______ _____ _____    ______ ____
ROOT
ATOM      1  N   UNL     1     143.262 115.582 109.197  0.00  0.00    +0.000 N 
ATOM      2  N   UNL     1     142.706 110.974 111.012  0.00  0.00    +0.000 N 
ATOM      3  C   UNL     1     142.249 113.793 110.675  0.00  0.00    +0.000 C 
ATOM      4  C   UNL     1     143.282 114.960 110.545  0.00  0.00    +0.000 C 
ATOM      5  C   UNL     1     141.224 113.803 111.883  0.00  0.00    +0.000 C 
ATOM      6  C   UNL     1     141.564 114.039 109.409  0.00  0.00    +0.000 C 
ATOM      7  C   UNL     1     143.521 115.876 111.749  0.00  0.00    +0.000 C 
ATOM      8  C   UNL     1     142.867 112.421 110.653  0.00  0.00    +0.000 C 
ATOM      9  C   UNL     1     142.195 114.866 108.462  0.00  0.00    +0.000 C 
ATOM     10  C   UNL     1     140.850 112.482 112.320  0.00  0.00    +0.000 C 
ATOM     11  C   UNL     1     141.360 114.868 112.867  0.00  0.00    +0.000 C 
ATOM     12  C   UNL     1     142.404 115.599 112.629  0.00  0.00    +0.000 C 
ATOM     13  C   UNL     1     141.581 111.192 111.933  0.00  0.00    +0.000 C 
ATOM     14  C   UNL     1     144.566 115.505 108.535  0.00  0.00    +0.000 C 
ATOM     15  C   UNL     1     144.832 115.617 112.335  0.00  0.00    +0.000 C 
ATOM     16  C   UNL     1     142.303 114.596 107.065  0.00  0.00    +0.000 C 
ATOM     17  C   UNL     1     143.866 110.578 111.793  0.00  0.00    +0.000 C 
ATOM     18  C   UNL     1     145.584 115.301 107.397  0.00  0.00    +0.000 C 
ATOM     19  C   UNL     1     146.147 115.173 112.979  0.00  0.00    +0.000 C 
ATOM     20  C   UNL     1     142.846 114.433 106.005  0.00  0.00    +0.000 C 
ATOM     21  C   UNL     1     145.497 114.867 105.934  0.00  0.00    +0.000 C 
ATOM     22  C   UNL     1     145.155 110.335 112.583  0.00  0.00    +0.000 C 
ATOM     23  C   UNL     1     144.186 114.467 105.267  0.00  0.00    +0.000 C 
ATOM     24  C   UNL     1     147.234 114.275 113.566  0.00  0.00    +0.000 C 
ATOM     25  C   UNL     1     146.464 110.627 113.311  0.00  0.00    +0.000 C 
ATOM     26  C   UNL     1     147.454 111.671 113.801  0.00  0.00    +0.000 C 
ATOM     27  C   UNL     1     147.638 113.179 113.826  0.00  0.00    +0.000 C 
ENDROOT
BRANCH  11  30
ATOM     28  N   UNL     1     141.131 114.703 115.276  0.00  0.00    +0.000 NA
ATOM     29  N   UNL     1     138.479 115.887 112.985  0.00  0.00    +0.000 N 
ATOM     30  C   UNL     1     140.578 115.024 114.085  0.00  0.00    +0.000 A 
ATOM     31  C   UNL     1     139.265 115.486 114.040  0.00  0.00    +0.000 A 
ATOM     32  C   UNL     1     138.497 115.626 115.198  0.00  0.00    +0.000 A 
ATOM     33  C   UNL     1     140.383 114.841 116.392  0.00  0.00    +0.000 A 
ATOM     34  C   UNL     1     139.070 115.289 116.434  0.00  0.00    +0.000 A 
ATOM     35  C   UNL     1     137.214 116.118 114.805  0.00  0.00    +0.000 A 
ATOM     36  C   UNL     1     137.233 116.271 113.421  0.00  0.00    +0.000 A 
ATOM     37  C   UNL     1     136.040 116.449 115.507  0.00  0.00    +0.000 A 
ATOM     38  C   UNL     1     136.136 116.742 112.692  0.00  0.00    +0.000 A 
ATOM     39  C   UNL     1     134.933 116.920 114.796  0.00  0.00    +0.000 A 
ATOM     40  C   UNL     1     134.985 117.063 113.415  0.00  0.00    +0.000 A 
ATOM     41  H   UNL     1     138.776 115.909 112.019  0.00  0.00    +0.000 HD
ENDBRANCH  11  30
BRANCH   7  42
ATOM     42  O   UNL     1     143.445 117.242 111.368  0.00  0.00    +0.000 OA
ATOM     43  H   UNL     1     144.316 117.625 111.566  0.00  0.00    +0.000 HD
ENDBRANCH   7  42
TORSDOF 2
ENDMDL
MODEL 3
REMARK VINA RESULT:      -7.7     24.138     26.443
REMARK  Name = 6509753_ManzamineA.pdbqt.pdb
REMARK  2 active torsions:
REMARK  status: ('A' for Active; 'I' for Inactive)
REMARK    1  A    between atoms: C_7  and  O_42
REMARK    2  A    between atoms: C_11  and  C_30
REMARK                            x       y       z     vdW  Elec       q    Type
REMARK                         _______ _______ _______ _____ _____    ______ ____
ROOT
ATOM      1  N   UNL     1     155.382 129.241 125.185  0.00  0.00    +0.000 N 
ATOM      2  N   UNL     1     155.562 133.322 128.041  0.00  0.00    +0.000 N 
ATOM      3  C   UNL     1     154.432 131.250 126.397  0.00  0.00    +0.000 C 
ATOM      4  C   UNL     1     154.952 130.656 125.048  0.00  0.00    +0.000 C 
ATOM      5  C   UNL     1     153.013 131.954 126.431  0.00  0.00    +0.000 C 
ATOM      6  C   UNL     1     154.404 129.990 127.132  0.00  0.00    +0.000 C 
ATOM      7  C   UNL     1     154.267 131.068 123.742  0.00  0.00    +0.000 C 
ATOM      8  C   UNL     1     155.393 132.199 127.062  0.00  0.00    +0.000 C 
ATOM      9  C   UNL     1     155.103 128.892 126.596  0.00  0.00    +0.000 C 
ATOM     10  C   UNL     1     152.930 133.016 127.402  0.00  0.00    +0.000 C 
ATOM     11  C   UNL     1     152.301 132.087 125.167  0.00  0.00    +0.000 C 
ATOM     12  C   UNL     1     153.026 131.677 124.173  0.00  0.00    +0.000 C 
ATOM     13  C   UNL     1     154.132 133.659 128.101  0.00  0.00    +0.000 C 
ATOM     14  C   UNL     1     156.787 129.054 124.814  0.00  0.00    +0.000 C 
ATOM     15  C   UNL     1     155.136 131.948 122.966  0.00  0.00    +0.000 C 
ATOM     16  C   UNL     1     155.953 128.011 127.330  0.00  0.00    +0.000 C 
ATOM     17  C   UNL     1     156.258 134.402 127.362  0.00  0.00    +0.000 C 
ATOM     18  C   UNL     1     158.230 128.520 124.895  0.00  0.00    +0.000 C 
ATOM     19  C   UNL     1     156.039 132.986 122.296  0.00  0.00    +0.000 C 
ATOM     20  C   UNL     1     156.958 127.413 127.604  0.00  0.00    +0.000 C 
ATOM     21  C   UNL     1     159.005 127.647 125.880  0.00  0.00    +0.000 C 
ATOM     22  C   UNL     1     157.004 135.424 126.500  0.00  0.00    +0.000 C 
ATOM     23  C   UNL     1     158.392 127.107 127.167  0.00  0.00    +0.000 C 
ATOM     24  C   UNL     1     156.933 134.208 122.103  0.00  0.00    +0.000 C 
ATOM     25  C   UNL     1     157.622 136.075 125.267  0.00  0.00    +0.000 C 
ATOM     26  C   UNL     1     157.849 136.021 123.765  0.00  0.00    +0.000 C 
ATOM     27  C   UNL     1     157.495 135.160 122.565  0.00  0.00    +0.000 C 
ENDROOT
BRANCH  11  30
ATOM     28  N   UNL     1     149.893 132.200 125.435  0.00  0.00    +0.000 NA
ATOM     29  N   UNL     1     151.941 134.747 123.699  0.00  0.00    +0.000 N 
ATOM     30  C   UNL     1     151.027 132.761 124.959  0.00  0.00    +0.000 A 
ATOM     31  C   UNL     1     150.958 133.967 124.266  0.00  0.00    +0.000 A 
ATOM     32  C   UNL     1     149.743 134.618 124.046  0.00  0.00    +0.000 A 
ATOM     33  C   UNL     1     148.721 132.835 125.218  0.00  0.00    +0.000 A 
ATOM     34  C   UNL     1     148.564 134.034 124.536  0.00  0.00    +0.000 A 
ATOM     35  C   UNL     1     150.022 135.814 123.316  0.00  0.00    +0.000 A 
ATOM     36  C   UNL     1     151.400 135.867 123.115  0.00  0.00    +0.000 A 
ATOM     37  C   UNL     1     149.224 136.858 122.812  0.00  0.00    +0.000 A 
ATOM     38  C   UNL     1     152.030 136.913 122.434  0.00  0.00    +0.000 A 
ATOM     39  C   UNL     1     149.835 137.912 122.128  0.00  0.00    +0.000 A 
ATOM     40  C   UNL     1     151.213 137.935 121.946  0.00  0.00    +0.000 A 
ATOM     41  H   UNL     1     152.928 134.533 123.716  0.00  0.00    +0.000 HD
ENDBRANCH  11  30
BRANCH   7  42
ATOM     42  O   UNL     1     153.942 129.929 122.959  0.00  0.00    +0.000 OA
ATOM     43  H   UNL     1     153.731 129.221 123.590  0.00  0.00    +0.000 HD
ENDBRANCH   7  42
TORSDOF 2
ENDMDL
MODEL 4
REMARK VINA RESULT:      -7.7      1.930      3.429
REMARK  Name = 6509753_ManzamineA.pdbqt.pdb
REMARK  2 active torsions:
REMARK  status: ('A' for Active; 'I' for Inactive)
REMARK    1  A    between atoms: C_7  and  O_42
REMARK    2  A    between atoms: C_11  and  C_30
REMARK                            x       y       z     vdW  Elec       q    Type
REMARK                         _______ _______ _______ _____ _____    ______ ____
ROOT
ATOM      1  N   UNL     1     145.240 114.838 110.153  0.00  0.00    +0.000 N 
ATOM      2  N   UNL     1     143.254 110.298 110.696  0.00  0.00    +0.000 N 
ATOM      3  C   UNL     1     143.545 113.146 110.976  0.00  0.00    +0.000 C 
ATOM      4  C   UNL     1     144.822 113.989 111.298  0.00  0.00    +0.000 C 
ATOM      5  C   UNL     1     142.312 113.206 111.969  0.00  0.00    +0.000 C 
ATOM      6  C   UNL     1     143.228 113.806 109.713  0.00  0.00    +0.000 C 
ATOM      7  C   UNL     1     144.998 114.559 112.709  0.00  0.00    +0.000 C 
ATOM      8  C   UNL     1     143.819 111.688 110.726  0.00  0.00    +0.000 C 
ATOM      9  C   UNL     1     144.224 114.594 109.106  0.00  0.00    +0.000 C 
ATOM     10  C   UNL     1     141.558 111.979 112.010  0.00  0.00    +0.000 C 
ATOM     11  C   UNL     1     142.473 113.986 113.189  0.00  0.00    +0.000 C 
ATOM     12  C   UNL     1     143.683 114.435 113.304  0.00  0.00    +0.000 C 
ATOM     13  C   UNL     1     142.037 110.637 111.449  0.00  0.00    +0.000 C 
ATOM     14  C   UNL     1     146.604 114.534 109.712  0.00  0.00    +0.000 C 
ATOM     15  C   UNL     1     146.054 113.845 113.419  0.00  0.00    +0.000 C 
ATOM     16  C   UNL     1     144.568 114.575 107.721  0.00  0.00    +0.000 C 
ATOM     17  C   UNL     1     144.093 109.461 111.537  0.00  0.00    +0.000 C 
ATOM     18  C   UNL     1     147.769 114.280 108.738  0.00  0.00    +0.000 C 
ATOM     19  C   UNL     1     147.058 112.944 114.143  0.00  0.00    +0.000 C 
ATOM     20  C   UNL     1     145.276 114.474 106.756  0.00  0.00    +0.000 C 
ATOM     21  C   UNL     1     147.905 114.173 107.220  0.00  0.00    +0.000 C 
ATOM     22  C   UNL     1     145.087 108.728 112.443  0.00  0.00    +0.000 C 
ATOM     23  C   UNL     1     146.715 114.281 106.273  0.00  0.00    +0.000 C 
ATOM     24  C   UNL     1     147.754 111.690 114.664  0.00  0.00    +0.000 C 
ATOM     25  C   UNL     1     146.237 108.508 113.421  0.00  0.00    +0.000 C 
ATOM     26  C   UNL     1     147.310 109.129 114.300  0.00  0.00    +0.000 C 
ATOM     27  C   UNL     1     147.827 110.496 114.716  0.00  0.00    +0.000 C 
ENDROOT
BRANCH  11  30
ATOM     28  N   UNL     1     141.710 113.461 115.431  0.00  0.00    +0.000 NA
ATOM     29  N   UNL     1     139.913 115.654 113.054  0.00  0.00    +0.000 N 
ATOM     30  C   UNL     1     141.502 114.115 114.266  0.00  0.00    +0.000 A 
ATOM     31  C   UNL     1     140.355 114.890 114.109  0.00  0.00    +0.000 A 
ATOM     32  C   UNL     1     139.407 115.011 115.127  0.00  0.00    +0.000 A 
ATOM     33  C   UNL     1     140.789 113.584 116.411  0.00  0.00    +0.000 A 
ATOM     34  C   UNL     1     139.621 114.330 116.335  0.00  0.00    +0.000 A 
ATOM     35  C   UNL     1     138.370 115.869 114.647  0.00  0.00    +0.000 A 
ATOM     36  C   UNL     1     138.713 116.254 113.353  0.00  0.00    +0.000 A 
ATOM     37  C   UNL     1     137.171 116.353 115.202  0.00  0.00    +0.000 A 
ATOM     38  C   UNL     1     137.919 117.104 112.577  0.00  0.00    +0.000 A 
ATOM     39  C   UNL     1     136.364 117.203 114.442  0.00  0.00    +0.000 A 
ATOM     40  C   UNL     1     136.736 117.569 113.153  0.00  0.00    +0.000 A 
ATOM     41  H   UNL     1     140.405 115.771 112.179  0.00  0.00    +0.000 HD
ENDBRANCH  11  30
BRANCH   7  42
ATOM     42  O   UNL     1     145.324 115.940 112.660  0.00  0.00    +0.000 OA
ATOM     43  H   UNL     1     144.523 116.415 112.939  0.00  0.00    +0.000 HD
ENDBRANCH   7  42
TORSDOF 2
ENDMDL
MODEL 5
REMARK VINA RESULT:      -7.5     24.472     27.255
REMARK  Name = 6509753_ManzamineA.pdbqt.pdb
REMARK  2 active torsions:
REMARK  status: ('A' for Active; 'I' for Inactive)
REMARK    1  A    between atoms: C_7  and  O_42
REMARK    2  A    between atoms: C_11  and  C_30
REMARK                            x       y       z     vdW  Elec       q    Type
REMARK                         _______ _______ _______ _____ _____    ______ ____
ROOT
ATOM      1  N   UNL     1     147.411 139.617 108.172  0.00  0.00    +0.000 N 
ATOM      2  N   UNL     1     144.548 142.536 105.320  0.00  0.00    +0.000 N 
ATOM      3  C   UNL     1     145.475 140.148 106.628  0.00  0.00    +0.000 C 
ATOM      4  C   UNL     1     146.929 139.590 106.767  0.00  0.00    +0.000 C 
ATOM      5  C   UNL     1     144.385 139.276 105.879  0.00  0.00    +0.000 C 
ATOM      6  C   UNL     1     145.190 140.220 108.058  0.00  0.00    +0.000 C 
ATOM      7  C   UNL     1     147.357 138.410 105.890  0.00  0.00    +0.000 C 
ATOM      8  C   UNL     1     145.401 141.527 106.031  0.00  0.00    +0.000 C 
ATOM      9  C   UNL     1     146.271 140.142 108.956  0.00  0.00    +0.000 C 
ATOM     10  C   UNL     1     143.389 140.071 105.205  0.00  0.00    +0.000 C 
ATOM     11  C   UNL     1     144.825 138.026 105.277  0.00  0.00    +0.000 C 
ATOM     12  C   UNL     1     146.110 137.882 105.377  0.00  0.00    +0.000 C 
ATOM     13  C   UNL     1     143.510 141.572 104.923  0.00  0.00    +0.000 C 
ATOM     14  C   UNL     1     148.628 140.419 108.321  0.00  0.00    +0.000 C 
ATOM     15  C   UNL     1     148.296 138.852 104.863  0.00  0.00    +0.000 C 
ATOM     16  C   UNL     1     146.470 140.983 110.091  0.00  0.00    +0.000 C 
ATOM     17  C   UNL     1     145.261 142.957 104.126  0.00  0.00    +0.000 C 
ATOM     18  C   UNL     1     149.613 141.421 108.951  0.00  0.00    +0.000 C 
ATOM     19  C   UNL     1     149.145 139.425 103.726  0.00  0.00    +0.000 C 
ATOM     20  C   UNL     1     147.044 141.750 110.816  0.00  0.00    +0.000 C 
ATOM     21  C   UNL     1     149.577 142.358 110.158  0.00  0.00    +0.000 C 
ATOM     22  C   UNL     1     146.154 143.294 102.928  0.00  0.00    +0.000 C 
ATOM     23  C   UNL     1     148.355 142.502 111.057  0.00  0.00    +0.000 C 
ATOM     24  C   UNL     1     149.598 140.322 102.577  0.00  0.00    +0.000 C 
ATOM     25  C   UNL     1     147.316 143.213 101.943  0.00  0.00    +0.000 C 
ATOM     26  C   UNL     1     148.577 142.487 101.503  0.00  0.00    +0.000 C 
ATOM     27  C   UNL     1     149.415 141.278 101.880  0.00  0.00    +0.000 C 
ENDROOT
BRANCH  11  30
ATOM     28  N   UNL     1     143.501 136.005 105.063  0.00  0.00    +0.000 NA
ATOM     29  N   UNL     1     144.144 138.401 102.318  0.00  0.00    +0.000 N 
ATOM     30  C   UNL     1     144.012 137.114 104.484  0.00  0.00    +0.000 A 
ATOM     31  C   UNL     1     143.764 137.362 103.136  0.00  0.00    +0.000 A 
ATOM     32  C   UNL     1     142.999 136.490 102.359  0.00  0.00    +0.000 A 
ATOM     33  C   UNL     1     142.762 135.166 104.305  0.00  0.00    +0.000 A 
ATOM     34  C   UNL     1     142.471 135.335 102.959  0.00  0.00    +0.000 A 
ATOM     35  C   UNL     1     142.937 137.032 101.039  0.00  0.00    +0.000 A 
ATOM     36  C   UNL     1     143.660 138.224 101.044  0.00  0.00    +0.000 A 
ATOM     37  C   UNL     1     142.327 136.617  99.841  0.00  0.00    +0.000 A 
ATOM     38  C   UNL     1     143.807 139.030  99.911  0.00  0.00    +0.000 A 
ATOM     39  C   UNL     1     142.464 137.408  98.698  0.00  0.00    +0.000 A 
ATOM     40  C   UNL     1     143.191 138.592  98.737  0.00  0.00    +0.000 A 
ATOM     41  H   UNL     1     144.697 139.195 102.613  0.00  0.00    +0.000 HD
ENDBRANCH  11  30
BRANCH   7  42
ATOM     42  O   UNL     1     147.969 137.394 106.671  0.00  0.00    +0.000 OA
ATOM     43  H   UNL     1     148.843 137.240 106.275  0.00  0.00    +0.000 HD
ENDBRANCH   7  42
TORSDOF 2
ENDMDL
MODEL 6
REMARK VINA RESULT:      -7.5     25.546     28.068
REMARK  Name = 6509753_ManzamineA.pdbqt.pdb
REMARK  2 active torsions:
REMARK  status: ('A' for Active; 'I' for Inactive)
REMARK    1  A    between atoms: C_7  and  O_42
REMARK    2  A    between atoms: C_11  and  C_30
REMARK                            x       y       z     vdW  Elec       q    Type
REMARK                         _______ _______ _______ _____ _____    ______ ____
ROOT
ATOM      1  N   UNL     1     153.991 131.980 126.063  0.00  0.00    +0.000 N 
ATOM      2  N   UNL     1     153.490 136.713 124.585  0.00  0.00    +0.000 N 
ATOM      3  C   UNL     1     153.676 134.472 126.378  0.00  0.00    +0.000 C 
ATOM      4  C   UNL     1     153.001 133.065 126.285  0.00  0.00    +0.000 C 
ATOM      5  C   UNL     1     153.353 135.400 127.621  0.00  0.00    +0.000 C 
ATOM      6  C   UNL     1     155.053 133.991 126.433  0.00  0.00    +0.000 C 
ATOM      7  C   UNL     1     151.797 132.759 127.180  0.00  0.00    +0.000 C 
ATOM      8  C   UNL     1     153.490 135.325 125.152  0.00  0.00    +0.000 C 
ATOM      9  C   UNL     1     155.306 132.658 126.059  0.00  0.00    +0.000 C 
ATOM     10  C   UNL     1     153.405 136.806 127.307  0.00  0.00    +0.000 C 
ATOM     11  C   UNL     1     152.364 134.919 128.576  0.00  0.00    +0.000 C 
ATOM     12  C   UNL     1     151.823 133.811 128.176  0.00  0.00    +0.000 C 
ATOM     13  C   UNL     1     153.425 137.387 125.890  0.00  0.00    +0.000 C 
ATOM     14  C   UNL     1     153.725 131.235 124.830  0.00  0.00    +0.000 C 
ATOM     15  C   UNL     1     150.573 132.705 126.388  0.00  0.00    +0.000 C 
ATOM     16  C   UNL     1     156.369 132.221 125.212  0.00  0.00    +0.000 C 
ATOM     17  C   UNL     1     152.222 136.914 123.904  0.00  0.00    +0.000 C 
ATOM     18  C   UNL     1     154.022 130.497 123.511  0.00  0.00    +0.000 C 
ATOM     19  C   UNL     1     149.323 132.824 125.513  0.00  0.00    +0.000 C 
ATOM     20  C   UNL     1     156.888 131.673 124.278  0.00  0.00    +0.000 C 
ATOM     21  C   UNL     1     155.275 130.241 122.676  0.00  0.00    +0.000 C 
ATOM     22  C   UNL     1     150.849 136.946 123.226  0.00  0.00    +0.000 C 
ATOM     23  C   UNL     1     156.647 130.790 123.052  0.00  0.00    +0.000 C 
ATOM     24  C   UNL     1     148.316 133.374 124.506  0.00  0.00    +0.000 C 
ATOM     25  C   UNL     1     149.445 136.511 122.817  0.00  0.00    +0.000 C 
ATOM     26  C   UNL     1     148.327 135.491 122.955  0.00  0.00    +0.000 C 
ATOM     27  C   UNL     1     148.004 134.213 123.710  0.00  0.00    +0.000 C 
ENDROOT
BRANCH  11  30
ATOM     28  N   UNL     1     152.451 135.439 130.944  0.00  0.00    +0.000 NA
ATOM     29  N   UNL     1     150.035 136.902 128.553  0.00  0.00    +0.000 N 
ATOM     30  C   UNL     1     151.867 135.637 129.741  0.00  0.00    +0.000 A 
ATOM     31  C   UNL     1     150.790 136.514 129.637  0.00  0.00    +0.000 A 
ATOM     32  C   UNL     1     150.292 137.199 130.747  0.00  0.00    +0.000 A 
ATOM     33  C   UNL     1     151.964 136.105 132.013  0.00  0.00    +0.000 A 
ATOM     34  C   UNL     1     150.895 136.991 131.997  0.00  0.00    +0.000 A 
ATOM     35  C   UNL     1     149.202 138.007 130.299  0.00  0.00    +0.000 A 
ATOM     36  C   UNL     1     149.066 137.802 128.928  0.00  0.00    +0.000 A 
ATOM     37  C   UNL     1     148.322 138.899 130.940  0.00  0.00    +0.000 A 
ATOM     38  C   UNL     1     148.093 138.442 128.155  0.00  0.00    +0.000 A 
ATOM     39  C   UNL     1     147.342 139.548 130.184  0.00  0.00    +0.000 A 
ATOM     40  C   UNL     1     147.234 139.322 128.817  0.00  0.00    +0.000 A 
ATOM     41  H   UNL     1     150.177 136.579 127.606  0.00  0.00    +0.000 HD
ENDBRANCH  11  30
BRANCH   7  42
ATOM     42  O   UNL     1     151.969 131.520 127.853  0.00  0.00    +0.000 OA
ATOM     43  H   UNL     1     152.002 131.732 128.801  0.00  0.00    +0.000 HD
ENDBRANCH   7  42
TORSDOF 2
ENDMDL
MODEL 7
REMARK VINA RESULT:      -7.3      3.404      6.424
REMARK  Name = 6509753_ManzamineA.pdbqt.pdb
REMARK  2 active torsions:
REMARK  status: ('A' for Active; 'I' for Inactive)
REMARK    1  A    between atoms: C_7  and  O_42
REMARK    2  A    between atoms: C_11  and  C_30
REMARK                            x       y       z     vdW  Elec       q    Type
REMARK                         _______ _______ _______ _____ _____    ______ ____
ROOT
ATOM      1  N   UNL     1     147.817 113.220 106.636  0.00  0.00    +0.000 N 
ATOM      2  N   UNL     1     143.613 114.815 104.486  0.00  0.00    +0.000 N 
ATOM      3  C   UNL     1     145.611 114.457 106.523  0.00  0.00    +0.000 C 
ATOM      4  C   UNL     1     146.368 113.160 106.958  0.00  0.00    +0.000 C 
ATOM      5  C   UNL     1     144.710 115.214 107.584  0.00  0.00    +0.000 C 
ATOM      6  C   UNL     1     146.800 115.240 106.199  0.00  0.00    +0.000 C 
ATOM      7  C   UNL     1     145.955 112.459 108.254  0.00  0.00    +0.000 C 
ATOM      8  C   UNL     1     144.767 114.292 105.289  0.00  0.00    +0.000 C 
ATOM      9  C   UNL     1     148.022 114.559 106.041  0.00  0.00    +0.000 C 
ATOM     10  C   UNL     1     143.581 115.887 106.992  0.00  0.00    +0.000 C 
ATOM     11  C   UNL     1     144.566 114.601 108.898  0.00  0.00    +0.000 C 
ATOM     12  C   UNL     1     145.145 113.443 108.943  0.00  0.00    +0.000 C 
ATOM     13  C   UNL     1     143.071 115.651 105.567  0.00  0.00    +0.000 C 
ATOM     14  C   UNL     1     148.230 112.129 105.750  0.00  0.00    +0.000 C 
ATOM     15  C   UNL     1     145.266 111.206 107.960  0.00  0.00    +0.000 C 
ATOM     16  C   UNL     1     148.962 114.774 104.990  0.00  0.00    +0.000 C 
ATOM     17  C   UNL     1     142.695 113.712 104.256  0.00  0.00    +0.000 C 
ATOM     18  C   UNL     1     148.959 111.426 104.589  0.00  0.00    +0.000 C 
ATOM     19  C   UNL     1     144.419 109.995 107.562  0.00  0.00    +0.000 C 
ATOM     20  C   UNL     1     149.677 114.491 104.067  0.00  0.00    +0.000 C 
ATOM     21  C   UNL     1     149.862 111.884 103.445  0.00  0.00    +0.000 C 
ATOM     22  C   UNL     1     141.855 112.442 104.100  0.00  0.00    +0.000 C 
ATOM     23  C   UNL     1     150.217 113.347 103.206  0.00  0.00    +0.000 C 
ATOM     24  C   UNL     1     143.355 109.145 106.874  0.00  0.00    +0.000 C 
ATOM     25  C   UNL     1     141.387 111.003 104.296  0.00  0.00    +0.000 C 
ATOM     26  C   UNL     1     141.580 109.678 105.016  0.00  0.00    +0.000 C 
ATOM     27  C   UNL     1     142.464 109.049 106.080  0.00  0.00    +0.000 C 
ENDROOT
BRANCH  11  30
ATOM     28  N   UNL     1     144.299 115.773 111.005  0.00  0.00    +0.000 NA
ATOM     29  N   UNL     1     141.543 114.185 109.115  0.00  0.00    +0.000 N 
ATOM     30  C   UNL     1     143.732 115.084 109.989  0.00  0.00    +0.000 A 
ATOM     31  C   UNL     1     142.361 114.836 110.010  0.00  0.00    +0.000 A 
ATOM     32  C   UNL     1     141.551 115.279 111.057  0.00  0.00    +0.000 A 
ATOM     33  C   UNL     1     143.509 116.198 112.015  0.00  0.00    +0.000 A 
ATOM     34  C   UNL     1     142.140 115.991 112.113  0.00  0.00    +0.000 A 
ATOM     35  C   UNL     1     140.214 114.865 110.770  0.00  0.00    +0.000 A 
ATOM     36  C   UNL     1     140.240 114.186 109.554  0.00  0.00    +0.000 A 
ATOM     37  C   UNL     1     138.984 115.012 111.437  0.00  0.00    +0.000 A 
ATOM     38  C   UNL     1     139.097 113.642 108.961  0.00  0.00    +0.000 A 
ATOM     39  C   UNL     1     137.830 114.474 110.861  0.00  0.00    +0.000 A 
ATOM     40  C   UNL     1     137.890 113.803 109.645  0.00  0.00    +0.000 A 
ATOM     41  H   UNL     1     141.852 113.770 108.247  0.00  0.00    +0.000 HD
ENDBRANCH  11  30
BRANCH   7  42
ATOM     42  O   UNL     1     147.088 112.186 109.065  0.00  0.00    +0.000 OA
ATOM     43  H   UNL     1     147.865 112.318 108.496  0.00  0.00    +0.000 HD
ENDBRANCH   7  42
TORSDOF 2
ENDMDL
MODEL 8
REMARK VINA RESULT:      -7.3     25.384     28.363
REMARK  Name = 6509753_ManzamineA.pdbqt.pdb
REMARK  2 active torsions:
REMARK  status: ('A' for Active; 'I' for Inactive)
REMARK    1  A    between atoms: C_7  and  O_42
REMARK    2  A    between atoms: C_11  and  C_30
REMARK                            x       y       z     vdW  Elec       q    Type
REMARK                         _______ _______ _______ _____ _____    ______ ____
ROOT
ATOM      1  N   UNL     1     150.200 138.567 126.218  0.00  0.00    +0.000 N 
ATOM      2  N   UNL     1     152.820 135.308 128.932  0.00  0.00    +0.000 N 
ATOM      3  C   UNL     1     152.154 137.042 126.736  0.00  0.00    +0.000 C 
ATOM      4  C   UNL     1     150.793 137.224 125.989  0.00  0.00    +0.000 C 
ATOM      5  C   UNL     1     153.419 136.547 125.920  0.00  0.00    +0.000 C 
ATOM      6  C   UNL     1     152.309 138.437 127.138  0.00  0.00    +0.000 C 
ATOM      7  C   UNL     1     150.616 136.595 124.604  0.00  0.00    +0.000 C 
ATOM      8  C   UNL     1     152.071 136.173 127.961  0.00  0.00    +0.000 C 
ATOM      9  C   UNL     1     151.182 139.278 127.067  0.00  0.00    +0.000 C 
ATOM     10  C   UNL     1     154.337 135.770 126.715  0.00  0.00    +0.000 C 
ATOM     11  C   UNL     1     153.218 136.200 124.520  0.00  0.00    +0.000 C 
ATOM     12  C   UNL     1     151.966 136.265 124.193  0.00  0.00    +0.000 C 
ATOM     13  C   UNL     1     154.017 135.173 128.089  0.00  0.00    +0.000 C 
ATOM     14  C   UNL     1     148.869 138.485 126.826  0.00  0.00    +0.000 C 
ATOM     15  C   UNL     1     149.709 135.454 124.674  0.00  0.00    +0.000 C 
ATOM     16  C   UNL     1     150.770 140.200 128.075  0.00  0.00    +0.000 C 
ATOM     17  C   UNL     1     152.151 134.019 128.985  0.00  0.00    +0.000 C 
ATOM     18  C   UNL     1     147.699 138.842 127.761  0.00  0.00    +0.000 C 
ATOM     19  C   UNL     1     148.879 134.182 124.863  0.00  0.00    +0.000 C 
ATOM     20  C   UNL     1     150.031 140.719 128.868  0.00  0.00    +0.000 C 
ATOM     21  C   UNL     1     147.498 139.825 128.913  0.00  0.00    +0.000 C 
ATOM     22  C   UNL     1     151.318 132.735 128.926  0.00  0.00    +0.000 C 
ATOM     23  C   UNL     1     148.608 140.732 129.430  0.00  0.00    +0.000 C 
ATOM     24  C   UNL     1     148.392 132.850 125.427  0.00  0.00    +0.000 C 
ATOM     25  C   UNL     1     150.264 131.734 128.463  0.00  0.00    +0.000 C 
ATOM     26  C   UNL     1     149.165 131.395 127.470  0.00  0.00    +0.000 C 
ATOM     27  C   UNL     1     148.487 131.977 126.241  0.00  0.00    +0.000 C 
ENDROOT
BRANCH  11  30
ATOM     28  N   UNL     1     154.957 136.500 122.856  0.00  0.00    +0.000 NA
ATOM     29  N   UNL     1     153.825 133.225 124.152  0.00  0.00    +0.000 N 
ATOM     30  C   UNL     1     154.219 135.657 123.612  0.00  0.00    +0.000 A 
ATOM     31  C   UNL     1     154.418 134.283 123.503  0.00  0.00    +0.000 A 
ATOM     32  C   UNL     1     155.363 133.747 122.626  0.00  0.00    +0.000 A 
ATOM     33  C   UNL     1     155.870 135.974 122.010  0.00  0.00    +0.000 A 
ATOM     34  C   UNL     1     156.127 134.621 121.837  0.00  0.00    +0.000 A 
ATOM     35  C   UNL     1     155.315 132.325 122.760  0.00  0.00    +0.000 A 
ATOM     36  C   UNL     1     154.348 132.030 123.718  0.00  0.00    +0.000 A 
ATOM     37  C   UNL     1     156.012 131.264 122.153  0.00  0.00    +0.000 A 
ATOM     38  C   UNL     1     154.036 130.723 124.107  0.00  0.00    +0.000 A 
ATOM     39  C   UNL     1     155.714 129.952 122.527  0.00  0.00    +0.000 A 
ATOM     40  C   UNL     1     154.744 129.691 123.488  0.00  0.00    +0.000 A 
ATOM     41  H   UNL     1     153.109 133.310 124.860  0.00  0.00    +0.000 HD
ENDBRANCH  11  30
BRANCH   7  42
ATOM     42  O   UNL     1     150.101 137.542 123.680  0.00  0.00    +0.000 OA
ATOM     43  H   UNL     1     150.588 137.401 122.851  0.00  0.00    +0.000 HD
ENDBRANCH   7  42
TORSDOF 2
ENDMDL
MODEL 9
REMARK VINA RESULT:      -7.3     30.170     34.793
REMARK  Name = 6509753_ManzamineA.pdbqt.pdb
REMARK  2 active torsions:
REMARK  status: ('A' for Active; 'I' for Inactive)
REMARK    1  A    between atoms: C_7  and  O_42
REMARK    2  A    between atoms: C_11  and  C_30
REMARK                            x       y       z     vdW  Elec       q    Type
REMARK                         _______ _______ _______ _____ _____    ______ ____
ROOT
ATOM      1  N   UNL     1     136.005 135.633 134.630  0.00  0.00    +0.000 N 
ATOM      2  N   UNL     1     140.267 135.562 137.214  0.00  0.00    +0.000 N 
ATOM      3  C   UNL     1     137.435 135.491 136.714  0.00  0.00    +0.000 C 
ATOM      4  C   UNL     1     136.567 136.392 135.777  0.00  0.00    +0.000 C 
ATOM      5  C   UNL     1     137.130 135.479 138.269  0.00  0.00    +0.000 C 
ATOM      6  C   UNL     1     137.069 134.217 136.103  0.00  0.00    +0.000 C 
ATOM      7  C   UNL     1     135.700 137.490 136.398  0.00  0.00    +0.000 C 
ATOM      8  C   UNL     1     138.918 135.707 136.574  0.00  0.00    +0.000 C 
ATOM      9  C   UNL     1     136.457 134.239 134.836  0.00  0.00    +0.000 C 
ATOM     10  C   UNL     1     138.301 135.244 139.075  0.00  0.00    +0.000 C 
ATOM     11  C   UNL     1     136.100 136.387 138.756  0.00  0.00    +0.000 C 
ATOM     12  C   UNL     1     135.661 137.152 137.806  0.00  0.00    +0.000 C 
ATOM     13  C   UNL     1     139.744 135.330 138.569  0.00  0.00    +0.000 C 
ATOM     14  C   UNL     1     136.427 136.189 133.342  0.00  0.00    +0.000 C 
ATOM     15  C   UNL     1     136.258 138.807 136.106  0.00  0.00    +0.000 C 
ATOM     16  C   UNL     1     136.792 133.393 133.737  0.00  0.00    +0.000 C 
ATOM     17  C   UNL     1     140.912 136.864 137.190  0.00  0.00    +0.000 C 
ATOM     18  C   UNL     1     136.916 136.206 131.882  0.00  0.00    +0.000 C 
ATOM     19  C   UNL     1     136.993 140.132 135.892  0.00  0.00    +0.000 C 
ATOM     20  C   UNL     1     137.121 133.107 132.617  0.00  0.00    +0.000 C 
ATOM     21  C   UNL     1     137.363 135.142 130.880  0.00  0.00    +0.000 C 
ATOM     22  C   UNL     1     141.442 138.295 137.067  0.00  0.00    +0.000 C 
ATOM     23  C   UNL     1     137.446 133.661 131.228  0.00  0.00    +0.000 C 
ATOM     24  C   UNL     1     138.113 141.168 135.853  0.00  0.00    +0.000 C 
ATOM     25  C   UNL     1     141.461 139.795 136.787  0.00  0.00    +0.000 C 
ATOM     26  C   UNL     1     140.681 141.033 136.377  0.00  0.00    +0.000 C 
ATOM     27  C   UNL     1     139.266 141.449 136.010  0.00  0.00    +0.000 C 
ENDROOT
BRANCH  11  30
ATOM     28  N   UNL     1     136.207 137.651 140.823  0.00  0.00    +0.000 NA
ATOM     29  N   UNL     1     134.213 134.572 140.337  0.00  0.00    +0.000 N 
ATOM     30  C   UNL     1     135.714 136.591 140.144  0.00  0.00    +0.000 A 
ATOM     31  C   UNL     1     134.855 135.703 140.788  0.00  0.00    +0.000 A 
ATOM     32  C   UNL     1     134.488 135.876 142.124  0.00  0.00    +0.000 A 
ATOM     33  C   UNL     1     135.847 137.812 142.115  0.00  0.00    +0.000 A 
ATOM     34  C   UNL     1     135.002 136.974 142.830  0.00  0.00    +0.000 A 
ATOM     35  C   UNL     1     133.607 134.805 142.469  0.00  0.00    +0.000 A 
ATOM     36  C   UNL     1     133.454 134.009 141.335  0.00  0.00    +0.000 A 
ATOM     37  C   UNL     1     132.924 134.445 143.645  0.00  0.00    +0.000 A 
ATOM     38  C   UNL     1     132.650 132.866 141.311  0.00  0.00    +0.000 A 
ATOM     39  C   UNL     1     132.116 133.305 143.641  0.00  0.00    +0.000 A 
ATOM     40  C   UNL     1     131.984 132.533 142.492  0.00  0.00    +0.000 A 
ATOM     41  H   UNL     1     134.278 134.208 139.396  0.00  0.00    +0.000 HD
ENDBRANCH  11  30
BRANCH   7  42
ATOM     42  O   UNL     1     134.372 137.428 135.900  0.00  0.00    +0.000 OA
ATOM     43  H   UNL     1     134.451 137.299 134.939  0.00  0.00    +0.000 HD
ENDBRANCH   7  42
TORSDOF 2
ENDMDL
