MODEL 1
REMARK VINA RESULT:      -4.4      0.000      0.000
REMARK  Name = 67499_Pyrazolo.pdbqt.pdb
REMARK  0 active torsions:
REMARK  status: ('A' for Active; 'I' for Inactive)
REMARK                            x       y       z     vdW  Elec       q    Type
REMARK                         _______ _______ _______ _____ _____    ______ ____
ROOT
ATOM      1  N   UNL     1     137.454 122.714 132.020  0.00  0.00    +0.000 N 
ATOM      2  N   UNL     1     138.160 123.855 132.175  0.00  0.00    +0.000 NA
ATOM      3  N   UNL     1     135.557 121.566 132.993  0.00  0.00    +0.000 NA
ATOM      4  N   UNL     1     134.590 122.822 134.825  0.00  0.00    +0.000 NA
ATOM      5  C   UNL     1     136.459 123.716 133.694  0.00  0.00    +0.000 A 
ATOM      6  C   UNL     1     136.425 122.584 132.906  0.00  0.00    +0.000 A 
ATOM      7  C   UNL     1     137.545 124.460 133.200  0.00  0.00    +0.000 A 
ATOM      8  C   UNL     1     135.496 123.821 134.687  0.00  0.00    +0.000 A 
ATOM      9  C   UNL     1     134.668 121.768 133.986  0.00  0.00    +0.000 A 
ATOM     10  H   UNL     1     137.722 122.062 131.292  0.00  0.00    +0.000 HD
ENDROOT
TORSDOF 0
ENDMDL
MODEL 2
REMARK VINA RESULT:      -4.3      2.318      4.592
REMARK  Name = 67499_Pyrazolo.pdbqt.pdb
REMARK  0 active torsions:
REMARK  status: ('A' for Active; 'I' for Inactive)
REMARK                            x       y       z     vdW  Elec       q    Type
REMARK                         _______ _______ _______ _____ _____    ______ ____
ROOT
ATOM      1  N   UNL     1     138.635 123.287 131.725  0.00  0.00    +0.000 N 
ATOM      2  N   UNL     1     137.439 123.164 132.342  0.00  0.00    +0.000 NA
ATOM      3  N   UNL     1     140.451 124.875 131.511  0.00  0.00    +0.000 NA
ATOM      4  N   UNL     1     140.037 126.892 132.786  0.00  0.00    +0.000 NA
ATOM      5  C   UNL     1     138.420 125.172 132.819  0.00  0.00    +0.000 A 
ATOM      6  C   UNL     1     139.261 124.472 131.980  0.00  0.00    +0.000 A 
ATOM      7  C   UNL     1     137.317 124.321 133.007  0.00  0.00    +0.000 A 
ATOM      8  C   UNL     1     138.841 126.430 133.227  0.00  0.00    +0.000 A 
ATOM      9  C   UNL     1     140.763 126.104 131.966  0.00  0.00    +0.000 A 
ATOM     10  H   UNL     1     138.971 122.529 131.144  0.00  0.00    +0.000 HD
ENDROOT
TORSDOF 0
ENDMDL
MODEL 3
REMARK VINA RESULT:      -4.3      2.641      3.570
REMARK  Name = 67499_Pyrazolo.pdbqt.pdb
REMARK  0 active torsions:
REMARK  status: ('A' for Active; 'I' for Inactive)
REMARK                            x       y       z     vdW  Elec       q    Type
REMARK                         _______ _______ _______ _____ _____    ______ ____
ROOT
ATOM      1  N   UNL     1     138.600 122.009 136.118  0.00  0.00    +0.000 N 
ATOM      2  N   UNL     1     137.766 121.528 137.065  0.00  0.00    +0.000 NA
ATOM      3  N   UNL     1     138.551 123.443 134.166  0.00  0.00    +0.000 NA
ATOM      4  N   UNL     1     136.330 124.309 133.742  0.00  0.00    +0.000 NA
ATOM      5  C   UNL     1     136.660 122.879 135.591  0.00  0.00    +0.000 A 
ATOM      6  C   UNL     1     137.985 122.823 135.212  0.00  0.00    +0.000 A 
ATOM      7  C   UNL     1     136.584 122.064 136.735  0.00  0.00    +0.000 A 
ATOM      8  C   UNL     1     135.815 123.657 134.814  0.00  0.00    +0.000 A 
ATOM      9  C   UNL     1     137.646 124.169 133.482  0.00  0.00    +0.000 A 
ATOM     10  H   UNL     1     139.579 121.747 136.141  0.00  0.00    +0.000 HD
ENDROOT
TORSDOF 0
ENDMDL
MODEL 4
REMARK VINA RESULT:      -4.2      2.655      3.509
REMARK  Name = 67499_Pyrazolo.pdbqt.pdb
REMARK  0 active torsions:
REMARK  status: ('A' for Active; 'I' for Inactive)
REMARK                            x       y       z     vdW  Elec       q    Type
REMARK                         _______ _______ _______ _____ _____    ______ ____
ROOT
ATOM      1  N   UNL     1     139.705 122.446 135.284  0.00  0.00    +0.000 N 
ATOM      2  N   UNL     1     140.964 122.513 134.800  0.00  0.00    +0.000 NA
ATOM      3  N   UNL     1     137.455 123.110 134.682  0.00  0.00    +0.000 NA
ATOM      4  N   UNL     1     137.396 124.258 132.551  0.00  0.00    +0.000 NA
ATOM      5  C   UNL     1     139.473 123.500 133.378  0.00  0.00    +0.000 A 
ATOM      6  C   UNL     1     138.776 123.023 134.468  0.00  0.00    +0.000 A 
ATOM      7  C   UNL     1     140.812 123.158 133.635  0.00  0.00    +0.000 A 
ATOM      8  C   UNL     1     138.737 124.139 132.390  0.00  0.00    +0.000 A 
ATOM      9  C   UNL     1     136.838 123.746 133.667  0.00  0.00    +0.000 A 
ATOM     10  H   UNL     1     139.542 121.995 136.176  0.00  0.00    +0.000 HD
ENDROOT
TORSDOF 0
ENDMDL
MODEL 5
REMARK VINA RESULT:      -4.2      2.227      3.867
REMARK  Name = 67499_Pyrazolo.pdbqt.pdb
REMARK  0 active torsions:
REMARK  status: ('A' for Active; 'I' for Inactive)
REMARK                            x       y       z     vdW  Elec       q    Type
REMARK                         _______ _______ _______ _____ _____    ______ ____
ROOT
ATOM      1  N   UNL     1     137.486 124.333 132.339  0.00  0.00    +0.000 N 
ATOM      2  N   UNL     1     136.366 124.072 133.048  0.00  0.00    +0.000 NA
ATOM      3  N   UNL     1     139.880 123.985 132.468  0.00  0.00    +0.000 NA
ATOM      4  N   UNL     1     140.508 122.800 134.485  0.00  0.00    +0.000 NA
ATOM      5  C   UNL     1     138.226 123.272 134.107  0.00  0.00    +0.000 A 
ATOM      6  C   UNL     1     138.627 123.874 132.932  0.00  0.00    +0.000 A 
ATOM      7  C   UNL     1     136.829 123.424 134.126  0.00  0.00    +0.000 A 
ATOM      8  C   UNL     1     139.220 122.719 134.901  0.00  0.00    +0.000 A 
ATOM      9  C   UNL     1     140.763 123.417 133.312  0.00  0.00    +0.000 A 
ATOM     10  H   UNL     1     137.410 124.828 131.458  0.00  0.00    +0.000 HD
ENDROOT
TORSDOF 0
ENDMDL
MODEL 6
REMARK VINA RESULT:      -4.1      1.833      2.457
REMARK  Name = 67499_Pyrazolo.pdbqt.pdb
REMARK  0 active torsions:
REMARK  status: ('A' for Active; 'I' for Inactive)
REMARK                            x       y       z     vdW  Elec       q    Type
REMARK                         _______ _______ _______ _____ _____    ______ ____
ROOT
ATOM      1  N   UNL     1     139.209 124.085 131.861  0.00  0.00    +0.000 N 
ATOM      2  N   UNL     1     140.454 123.916 132.357  0.00  0.00    +0.000 NA
ATOM      3  N   UNL     1     136.899 123.914 132.566  0.00  0.00    +0.000 NA
ATOM      4  N   UNL     1     136.714 123.227 134.881  0.00  0.00    +0.000 NA
ATOM      5  C   UNL     1     138.863 123.473 133.935  0.00  0.00    +0.000 A 
ATOM      6  C   UNL     1     138.222 123.831 132.767  0.00  0.00    +0.000 A 
ATOM      7  C   UNL     1     140.232 123.543 133.624  0.00  0.00    +0.000 A 
ATOM      8  C   UNL     1     138.061 123.162 135.023  0.00  0.00    +0.000 A 
ATOM      9  C   UNL     1     136.215 123.593 133.681  0.00  0.00    +0.000 A 
ATOM     10  H   UNL     1     139.096 124.374 130.896  0.00  0.00    +0.000 HD
ENDROOT
TORSDOF 0
ENDMDL
MODEL 7
REMARK VINA RESULT:      -4.0      1.293      3.152
REMARK  Name = 67499_Pyrazolo.pdbqt.pdb
REMARK  0 active torsions:
REMARK  status: ('A' for Active; 'I' for Inactive)
REMARK                            x       y       z     vdW  Elec       q    Type
REMARK                         _______ _______ _______ _____ _____    ______ ____
ROOT
ATOM      1  N   UNL     1     134.930 120.817 132.494  0.00  0.00    +0.000 N 
ATOM      2  N   UNL     1     133.974 120.321 133.309  0.00  0.00    +0.000 NA
ATOM      3  N   UNL     1     136.409 122.728 132.326  0.00  0.00    +0.000 NA
ATOM      4  N   UNL     1     136.116 124.257 134.182  0.00  0.00    +0.000 NA
ATOM      5  C   UNL     1     134.794 122.302 134.097  0.00  0.00    +0.000 A 
ATOM      6  C   UNL     1     135.452 122.003 132.923  0.00  0.00    +0.000 A 
ATOM      7  C   UNL     1     133.898 121.235 134.285  0.00  0.00    +0.000 A 
ATOM      8  C   UNL     1     135.153 123.480 134.738  0.00  0.00    +0.000 A 
ATOM      9  C   UNL     1     136.681 123.846 133.028  0.00  0.00    +0.000 A 
ATOM     10  H   UNL     1     135.185 120.302 131.659  0.00  0.00    +0.000 HD
ENDROOT
TORSDOF 0
ENDMDL
MODEL 8
REMARK VINA RESULT:      -3.9     31.489     32.378
REMARK  Name = 67499_Pyrazolo.pdbqt.pdb
REMARK  0 active torsions:
REMARK  status: ('A' for Active; 'I' for Inactive)
REMARK                            x       y       z     vdW  Elec       q    Type
REMARK                         _______ _______ _______ _____ _____    ______ ____
ROOT
ATOM      1  N   UNL     1     144.314 127.249 103.772  0.00  0.00    +0.000 N 
ATOM      2  N   UNL     1     143.047 126.950 103.412  0.00  0.00    +0.000 NA
ATOM      3  N   UNL     1     146.590 126.642 103.208  0.00  0.00    +0.000 NA
ATOM      4  N   UNL     1     146.667 124.979 101.449  0.00  0.00    +0.000 NA
ATOM      5  C   UNL     1     144.564 125.751 102.195  0.00  0.00    +0.000 A 
ATOM      6  C   UNL     1     145.259 126.557 103.072  0.00  0.00    +0.000 A 
ATOM      7  C   UNL     1     143.210 126.034 102.448  0.00  0.00    +0.000 A 
ATOM      8  C   UNL     1     145.315 124.937 101.359  0.00  0.00    +0.000 A 
ATOM      9  C   UNL     1     147.221 125.814 102.353  0.00  0.00    +0.000 A 
ATOM     10  H   UNL     1     144.472 127.934 104.502  0.00  0.00    +0.000 HD
ENDROOT
TORSDOF 0
ENDMDL
MODEL 9
REMARK VINA RESULT:      -3.9      2.404      2.774
REMARK  Name = 67499_Pyrazolo.pdbqt.pdb
REMARK  0 active torsions:
REMARK  status: ('A' for Active; 'I' for Inactive)
REMARK                            x       y       z     vdW  Elec       q    Type
REMARK                         _______ _______ _______ _____ _____    ______ ____
ROOT
ATOM      1  N   UNL     1     138.793 122.276 135.960  0.00  0.00    +0.000 N 
ATOM      2  N   UNL     1     139.637 122.536 134.938  0.00  0.00    +0.000 NA
ATOM      3  N   UNL     1     136.485 122.650 136.594  0.00  0.00    +0.000 NA
ATOM      4  N   UNL     1     135.271 123.868 134.890  0.00  0.00    +0.000 NA
ATOM      5  C   UNL     1     137.549 123.368 134.526  0.00  0.00    +0.000 A 
ATOM      6  C   UNL     1     137.530 122.754 135.761  0.00  0.00    +0.000 A 
ATOM      7  C   UNL     1     138.868 123.204 134.067  0.00  0.00    +0.000 A 
ATOM      8  C   UNL     1     136.363 123.942 134.090  0.00  0.00    +0.000 A 
ATOM      9  C   UNL     1     135.389 123.237 136.077  0.00  0.00    +0.000 A 
ATOM     10  H   UNL     1     139.135 121.769 136.767  0.00  0.00    +0.000 HD
ENDROOT
TORSDOF 0
ENDMDL
