MODEL 1
REMARK VINA RESULT:      -5.6      0.000      0.000
REMARK  Name = 71369791_5FluoroDione.pdbqt.pdb
REMARK  1 active torsions:
REMARK  status: ('A' for Active; 'I' for Inactive)
REMARK    1  A    between atoms: N_4  and  C_12
REMARK                            x       y       z     vdW  Elec       q    Type
REMARK                         _______ _______ _______ _____ _____    ______ ____
ROOT
ATOM      1  F   UNL     1     142.511 126.840 136.425  0.00  0.00    +0.000 F 
ATOM      2  O   UNL     1     141.638 121.827 134.484  0.00  0.00    +0.000 OA
ATOM      3  O   UNL     1     144.040 124.598 137.239  0.00  0.00    +0.000 OA
ATOM      4  N   UNL     1     140.857 124.048 134.695  0.00  0.00    +0.000 N 
ATOM      5  N   UNL     1     142.724 123.255 135.906  0.00  0.00    +0.000 N 
ATOM      6  C   UNL     1     141.107 125.210 135.330  0.00  0.00    +0.000 C 
ATOM      7  C   UNL     1     142.085 125.577 136.262  0.00  0.00    +0.000 C 
ATOM      8  C   UNL     1     141.706 122.951 134.970  0.00  0.00    +0.000 C 
ATOM      9  C   UNL     1     143.044 124.466 136.537  0.00  0.00    +0.000 C 
ATOM     10  H   UNL     1     143.367 122.496 136.084  0.00  0.00    +0.000 HD
ENDROOT
BRANCH   4  12
ATOM     11  O   UNL     1     139.976 123.786 132.447  0.00  0.00    +0.000 OA
ATOM     12  C   UNL     1     139.807 123.990 133.823  0.00  0.00    +0.000 C 
ATOM     13  C   UNL     1     138.418 124.115 134.085  0.00  0.00    +0.000 C 
ATOM     14  C   UNL     1     137.366 124.026 132.977  0.00  0.00    +0.000 C 
ATOM     15  C   UNL     1     138.663 123.834 132.193  0.00  0.00    +0.000 C 
ENDBRANCH   4  12
TORSDOF 1
ENDMDL
MODEL 2
REMARK VINA RESULT:      -5.4     32.177     33.753
REMARK  Name = 71369791_5FluoroDione.pdbqt.pdb
REMARK  1 active torsions:
REMARK  status: ('A' for Active; 'I' for Inactive)
REMARK    1  A    between atoms: N_4  and  C_12
REMARK                            x       y       z     vdW  Elec       q    Type
REMARK                         _______ _______ _______ _____ _____    ______ ____
ROOT
ATOM      1  F   UNL     1     139.880 125.902 101.062  0.00  0.00    +0.000 F 
ATOM      2  O   UNL     1     144.644 123.276 100.790  0.00  0.00    +0.000 OA
ATOM      3  O   UNL     1     140.288 123.643  99.401  0.00  0.00    +0.000 OA
ATOM      4  N   UNL     1     143.462 125.194 101.505  0.00  0.00    +0.000 N 
ATOM      5  N   UNL     1     142.492 123.585 100.073  0.00  0.00    +0.000 N 
ATOM      6  C   UNL     1     142.269 125.812 101.399  0.00  0.00    +0.000 C 
ATOM      7  C   UNL     1     141.104 125.485 100.696  0.00  0.00    +0.000 C 
ATOM      8  C   UNL     1     143.638 123.979 100.804  0.00  0.00    +0.000 C 
ATOM      9  C   UNL     1     141.222 124.175  99.990  0.00  0.00    +0.000 C 
ATOM     10  H   UNL     1     142.584 122.698  99.599  0.00  0.00    +0.000 HD
ENDROOT
BRANCH   4  12
ATOM     11  O   UNL     1     145.694 126.110 101.782  0.00  0.00    +0.000 OA
ATOM     12  C   UNL     1     144.431 125.766 102.280  0.00  0.00    +0.000 C 
ATOM     13  C   UNL     1     144.386 126.115 103.656  0.00  0.00    +0.000 C 
ATOM     14  C   UNL     1     145.576 126.754 104.375  0.00  0.00    +0.000 C 
ATOM     15  C   UNL     1     146.122 126.584 102.958  0.00  0.00    +0.000 C 
ENDBRANCH   4  12
TORSDOF 1
ENDMDL
MODEL 3
REMARK VINA RESULT:      -5.3     31.576     32.892
REMARK  Name = 71369791_5FluoroDione.pdbqt.pdb
REMARK  1 active torsions:
REMARK  status: ('A' for Active; 'I' for Inactive)
REMARK    1  A    between atoms: N_4  and  C_12
REMARK                            x       y       z     vdW  Elec       q    Type
REMARK                         _______ _______ _______ _____ _____    ______ ____
ROOT
ATOM      1  F   UNL     1     148.290 125.470 102.064  0.00  0.00    +0.000 F 
ATOM      2  O   UNL     1     143.249 126.078 104.034  0.00  0.00    +0.000 OA
ATOM      3  O   UNL     1     147.764 126.681 104.571  0.00  0.00    +0.000 OA
ATOM      4  N   UNL     1     144.615 125.563 102.175  0.00  0.00    +0.000 N 
ATOM      5  N   UNL     1     145.506 126.432 104.183  0.00  0.00    +0.000 N 
ATOM      6  C   UNL     1     145.897 125.570 101.760  0.00  0.00    +0.000 C 
ATOM      7  C   UNL     1     147.084 125.963 102.390  0.00  0.00    +0.000 C 
ATOM      8  C   UNL     1     144.345 126.021 103.485  0.00  0.00    +0.000 C 
ATOM      9  C   UNL     1     146.855 126.397 103.800  0.00  0.00    +0.000 C 
ATOM     10  H   UNL     1     145.339 126.723 105.136  0.00  0.00    +0.000 HD
ENDROOT
BRANCH   4  12
ATOM     11  O   UNL     1     143.630 123.806 100.820  0.00  0.00    +0.000 OA
ATOM     12  C   UNL     1     143.651 125.115 101.318  0.00  0.00    +0.000 C 
ATOM     13  C   UNL     1     142.540 125.813 100.776  0.00  0.00    +0.000 C 
ATOM     14  C   UNL     1     141.548 125.152  99.818  0.00  0.00    +0.000 C 
ATOM     15  C   UNL     1     142.522 124.009 100.097  0.00  0.00    +0.000 C 
ENDBRANCH   4  12
TORSDOF 1
ENDMDL
MODEL 4
REMARK VINA RESULT:      -5.3     32.148     33.852
REMARK  Name = 71369791_5FluoroDione.pdbqt.pdb
REMARK  1 active torsions:
REMARK  status: ('A' for Active; 'I' for Inactive)
REMARK    1  A    between atoms: N_4  and  C_12
REMARK                            x       y       z     vdW  Elec       q    Type
REMARK                         _______ _______ _______ _____ _____    ______ ____
ROOT
ATOM      1  F   UNL     1     142.592 127.936 103.052  0.00  0.00    +0.000 F 
ATOM      2  O   UNL     1     144.469 123.289 100.919  0.00  0.00    +0.000 OA
ATOM      3  O   UNL     1     144.712 126.464 104.220  0.00  0.00    +0.000 OA
ATOM      4  N   UNL     1     142.772 124.934 100.934  0.00  0.00    +0.000 N 
ATOM      5  N   UNL     1     144.462 124.862 102.583  0.00  0.00    +0.000 N 
ATOM      6  C   UNL     1     142.336 126.009 101.619  0.00  0.00    +0.000 C 
ATOM      7  C   UNL     1     142.810 126.639 102.776  0.00  0.00    +0.000 C 
ATOM      8  C   UNL     1     143.925 124.272 101.414  0.00  0.00    +0.000 C 
ATOM      9  C   UNL     1     144.066 126.011 103.284  0.00  0.00    +0.000 C 
ATOM     10  H   UNL     1     145.311 124.428 102.918  0.00  0.00    +0.000 HD
ENDROOT
BRANCH   4  12
ATOM     11  O   UNL     1     140.945 123.735  99.875  0.00  0.00    +0.000 OA
ATOM     12  C   UNL     1     142.086 124.545  99.819  0.00  0.00    +0.000 C 
ATOM     13  C   UNL     1     142.350 124.844  98.456  0.00  0.00    +0.000 C 
ATOM     14  C   UNL     1     141.471 124.318  97.320  0.00  0.00    +0.000 C 
ATOM     15  C   UNL     1     140.780 123.728  98.547  0.00  0.00    +0.000 C 
ENDBRANCH   4  12
TORSDOF 1
ENDMDL
MODEL 5
REMARK VINA RESULT:      -5.2      3.813      5.707
REMARK  Name = 71369791_5FluoroDione.pdbqt.pdb
REMARK  1 active torsions:
REMARK  status: ('A' for Active; 'I' for Inactive)
REMARK    1  A    between atoms: N_4  and  C_12
REMARK                            x       y       z     vdW  Elec       q    Type
REMARK                         _______ _______ _______ _____ _____    ______ ____
ROOT
ATOM      1  F   UNL     1     139.275 123.816 134.609  0.00  0.00    +0.000 F 
ATOM      2  O   UNL     1     139.135 127.184 130.331  0.00  0.00    +0.000 OA
ATOM      3  O   UNL     1     137.873 123.202 132.225  0.00  0.00    +0.000 OA
ATOM      4  N   UNL     1     139.666 126.881 132.614  0.00  0.00    +0.000 N 
ATOM      5  N   UNL     1     138.466 125.262 131.381  0.00  0.00    +0.000 N 
ATOM      6  C   UNL     1     139.533 126.009 133.633  0.00  0.00    +0.000 C 
ATOM      7  C   UNL     1     138.915 124.756 133.719  0.00  0.00    +0.000 C 
ATOM      8  C   UNL     1     139.105 126.526 131.366  0.00  0.00    +0.000 C 
ATOM      9  C   UNL     1     138.362 124.311 132.406  0.00  0.00    +0.000 C 
ATOM     10  H   UNL     1     138.095 124.972 130.487  0.00  0.00    +0.000 HD
ENDROOT
BRANCH   4  12
ATOM     11  O   UNL     1     141.634 128.283 132.370  0.00  0.00    +0.000 OA
ATOM     12  C   UNL     1     140.333 128.052 132.836  0.00  0.00    +0.000 C 
ATOM     13  C   UNL     1     139.901 129.211 133.534  0.00  0.00    +0.000 C 
ATOM     14  C   UNL     1     140.787 130.448 133.692  0.00  0.00    +0.000 C 
ATOM     15  C   UNL     1     141.691 129.516 132.887  0.00  0.00    +0.000 C 
ENDBRANCH   4  12
TORSDOF 1
ENDMDL
MODEL 6
REMARK VINA RESULT:      -5.1     32.867     34.568
REMARK  Name = 71369791_5FluoroDione.pdbqt.pdb
REMARK  1 active torsions:
REMARK  status: ('A' for Active; 'I' for Inactive)
REMARK    1  A    between atoms: N_4  and  C_12
REMARK                            x       y       z     vdW  Elec       q    Type
REMARK                         _______ _______ _______ _____ _____    ______ ____
ROOT
ATOM      1  F   UNL     1     142.162 127.659 100.371  0.00  0.00    +0.000 F 
ATOM      2  O   UNL     1     146.895 127.929 103.052  0.00  0.00    +0.000 OA
ATOM      3  O   UNL     1     142.331 127.507 103.196  0.00  0.00    +0.000 OA
ATOM      4  N   UNL     1     145.789 127.673 100.979  0.00  0.00    +0.000 N 
ATOM      5  N   UNL     1     144.626 127.624 103.035  0.00  0.00    +0.000 N 
ATOM      6  C   UNL     1     144.570 127.489 100.438  0.00  0.00    +0.000 C 
ATOM      7  C   UNL     1     143.301 127.347 101.012  0.00  0.00    +0.000 C 
ATOM      8  C   UNL     1     145.879 127.755 102.388  0.00  0.00    +0.000 C 
ATOM      9  C   UNL     1     143.337 127.489 102.498  0.00  0.00    +0.000 C 
ATOM     10  H   UNL     1     144.664 127.721 104.040  0.00  0.00    +0.000 HD
ENDROOT
BRANCH   4  12
ATOM     11  O   UNL     1     147.813 126.752 100.003  0.00  0.00    +0.000 OA
ATOM     12  C   UNL     1     146.868 127.775 100.147  0.00  0.00    +0.000 C 
ATOM     13  C   UNL     1     147.251 128.853  99.306  0.00  0.00    +0.000 C 
ATOM     14  C   UNL     1     148.504 128.801  98.431  0.00  0.00    +0.000 C 
ATOM     15  C   UNL     1     148.545 127.437  99.116  0.00  0.00    +0.000 C 
ENDBRANCH   4  12
TORSDOF 1
ENDMDL
MODEL 7
REMARK VINA RESULT:      -5.1     33.099     34.104
REMARK  Name = 71369791_5FluoroDione.pdbqt.pdb
REMARK  1 active torsions:
REMARK  status: ('A' for Active; 'I' for Inactive)
REMARK    1  A    between atoms: N_4  and  C_12
REMARK                            x       y       z     vdW  Elec       q    Type
REMARK                         _______ _______ _______ _____ _____    ______ ____
ROOT
ATOM      1  F   UNL     1     140.317 123.644  98.757  0.00  0.00    +0.000 F 
ATOM      2  O   UNL     1     140.823 127.131 102.910  0.00  0.00    +0.000 OA
ATOM      3  O   UNL     1     138.173 124.266 100.502  0.00  0.00    +0.000 OA
ATOM      4  N   UNL     1     141.900 125.830 101.256  0.00  0.00    +0.000 N 
ATOM      5  N   UNL     1     139.594 125.610 101.720  0.00  0.00    +0.000 N 
ATOM      6  C   UNL     1     141.669 124.874 100.335  0.00  0.00    +0.000 C 
ATOM      7  C   UNL     1     140.507 124.181  99.974  0.00  0.00    +0.000 C 
ATOM      8  C   UNL     1     140.806 126.269 102.038  0.00  0.00    +0.000 C 
ATOM      9  C   UNL     1     139.311 124.656 100.731  0.00  0.00    +0.000 C 
ATOM     10  H   UNL     1     138.792 125.940 102.239  0.00  0.00    +0.000 HD
ENDROOT
BRANCH   4  12
ATOM     11  O   UNL     1     143.545 127.577 100.884  0.00  0.00    +0.000 OA
ATOM     12  C   UNL     1     143.166 126.325 101.385  0.00  0.00    +0.000 C 
ATOM     13  C   UNL     1     144.300 125.734 102.003  0.00  0.00    +0.000 C 
ATOM     14  C   UNL     1     145.659 126.434 102.055  0.00  0.00    +0.000 C 
ATOM     15  C   UNL     1     144.808 127.460 101.308  0.00  0.00    +0.000 C 
ENDBRANCH   4  12
TORSDOF 1
ENDMDL
MODEL 8
REMARK VINA RESULT:      -5.0     33.601     35.321
REMARK  Name = 71369791_5FluoroDione.pdbqt.pdb
REMARK  1 active torsions:
REMARK  status: ('A' for Active; 'I' for Inactive)
REMARK    1  A    between atoms: N_4  and  C_12
REMARK                            x       y       z     vdW  Elec       q    Type
REMARK                         _______ _______ _______ _____ _____    ______ ____
ROOT
ATOM      1  F   UNL     1     144.883 123.704  97.638  0.00  0.00    +0.000 F 
ATOM      2  O   UNL     1     139.998 123.821 100.045  0.00  0.00    +0.000 OA
ATOM      3  O   UNL     1     142.934 121.686  97.241  0.00  0.00    +0.000 OA
ATOM      4  N   UNL     1     142.189 124.700  99.936  0.00  0.00    +0.000 N 
ATOM      5  N   UNL     1     141.554 122.766  98.738  0.00  0.00    +0.000 N 
ATOM      6  C   UNL     1     143.392 124.497  99.364  0.00  0.00    +0.000 C 
ATOM      7  C   UNL     1     143.857 123.512  98.485  0.00  0.00    +0.000 C 
ATOM      8  C   UNL     1     141.152 123.789  99.630  0.00  0.00    +0.000 C 
ATOM      9  C   UNL     1     142.778 122.561  98.084  0.00  0.00    +0.000 C 
ATOM     10  H   UNL     1     140.816 122.129  98.474  0.00  0.00    +0.000 HD
ENDROOT
BRANCH   4  12
ATOM     11  O   UNL     1     141.106 126.791 100.530  0.00  0.00    +0.000 OA
ATOM     12  C   UNL     1     142.033 125.770 100.772  0.00  0.00    +0.000 C 
ATOM     13  C   UNL     1     142.718 126.070 101.979  0.00  0.00    +0.000 C 
ATOM     14  C   UNL     1     142.416 127.326 102.798  0.00  0.00    +0.000 C 
ATOM     15  C   UNL     1     141.438 127.470 101.634  0.00  0.00    +0.000 C 
ENDBRANCH   4  12
TORSDOF 1
ENDMDL
MODEL 9
REMARK VINA RESULT:      -4.9     34.292     35.553
REMARK  Name = 71369791_5FluoroDione.pdbqt.pdb
REMARK  1 active torsions:
REMARK  status: ('A' for Active; 'I' for Inactive)
REMARK    1  A    between atoms: N_4  and  C_12
REMARK                            x       y       z     vdW  Elec       q    Type
REMARK                         _______ _______ _______ _____ _____    ______ ____
ROOT
ATOM      1  F   UNL     1     142.293 129.881  97.251  0.00  0.00    +0.000 F 
ATOM      2  O   UNL     1     141.823 127.365 102.058  0.00  0.00    +0.000 OA
ATOM      3  O   UNL     1     141.715 131.268  99.652  0.00  0.00    +0.000 OA
ATOM      4  N   UNL     1     141.955 127.165  99.707  0.00  0.00    +0.000 N 
ATOM      5  N   UNL     1     141.688 129.256 100.773  0.00  0.00    +0.000 N 
ATOM      6  C   UNL     1     141.941 127.892  98.573  0.00  0.00    +0.000 C 
ATOM      7  C   UNL     1     141.808 129.266  98.342  0.00  0.00    +0.000 C 
ATOM      8  C   UNL     1     141.822 127.855 100.933  0.00  0.00    +0.000 C 
ATOM      9  C   UNL     1     141.727 130.044  99.614  0.00  0.00    +0.000 C 
ATOM     10  H   UNL     1     141.634 129.771 101.640  0.00  0.00    +0.000 HD
ENDROOT
BRANCH   4  12
ATOM     11  O   UNL     1     143.282 125.148  99.971  0.00  0.00    +0.000 OA
ATOM     12  C   UNL     1     142.100 125.809  99.615  0.00  0.00    +0.000 C 
ATOM     13  C   UNL     1     141.165 124.837  99.173  0.00  0.00    +0.000 C 
ATOM     14  C   UNL     1     141.496 123.344  99.132  0.00  0.00    +0.000 C 
ATOM     15  C   UNL     1     142.798 123.938  99.666  0.00  0.00    +0.000 C 
ENDBRANCH   4  12
TORSDOF 1
ENDMDL
