MODEL 1
REMARK VINA RESULT:      -3.7      0.000      0.000
REMARK  Name = 7288_3Pentanone.pdbqt.pdb
REMARK  2 active torsions:
REMARK  status: ('A' for Active; 'I' for Inactive)
REMARK    1  A    between atoms: C_2  and  C_3
REMARK    2  A    between atoms: C_2  and  C_5
REMARK                            x       y       z     vdW  Elec       q    Type
REMARK                         _______ _______ _______ _____ _____    ______ ____
ROOT
ATOM      1  O   UNL     1     143.348 129.538 121.511  0.00  0.00    +0.000 OA
ATOM      2  C   UNL     1     142.870 128.921 122.456  0.00  0.00    +0.000 C 
ENDROOT
BRANCH   2   3
ATOM      3  C   UNL     1     142.670 129.562 123.734  0.00  0.00    +0.000 C 
ATOM      4  C   UNL     1     142.479 130.256 125.097  0.00  0.00    +0.000 C 
ENDBRANCH   2   3
BRANCH   2   5
ATOM      5  C   UNL     1     142.493 127.534 122.321  0.00  0.00    +0.000 C 
ATOM      6  C   UNL     1     142.113 126.047 122.182  0.00  0.00    +0.000 C 
ENDBRANCH   2   5
TORSDOF 2
ENDMDL
MODEL 2
REMARK VINA RESULT:      -3.6      2.261      2.899
REMARK  Name = 7288_3Pentanone.pdbqt.pdb
REMARK  2 active torsions:
REMARK  status: ('A' for Active; 'I' for Inactive)
REMARK    1  A    between atoms: C_2  and  C_3
REMARK    2  A    between atoms: C_2  and  C_5
REMARK                            x       y       z     vdW  Elec       q    Type
REMARK                         _______ _______ _______ _____ _____    ______ ____
ROOT
ATOM      1  O   UNL     1     141.192 126.140 121.903  0.00  0.00    +0.000 OA
ATOM      2  C   UNL     1     142.137 126.620 122.517  0.00  0.00    +0.000 C 
ENDROOT
BRANCH   2   3
ATOM      3  C   UNL     1     142.562 127.979 122.279  0.00  0.00    +0.000 C 
ATOM      4  C   UNL     1     143.004 129.437 122.045  0.00  0.00    +0.000 C 
ENDBRANCH   2   3
BRANCH   2   5
ATOM      5  C   UNL     1     142.854 125.842 123.500  0.00  0.00    +0.000 C 
ATOM      6  C   UNL     1     143.634 125.031 124.554  0.00  0.00    +0.000 C 
ENDBRANCH   2   5
TORSDOF 2
ENDMDL
MODEL 3
REMARK VINA RESULT:      -3.5      2.113      2.148
REMARK  Name = 7288_3Pentanone.pdbqt.pdb
REMARK  2 active torsions:
REMARK  status: ('A' for Active; 'I' for Inactive)
REMARK    1  A    between atoms: C_2  and  C_3
REMARK    2  A    between atoms: C_2  and  C_5
REMARK                            x       y       z     vdW  Elec       q    Type
REMARK                         _______ _______ _______ _____ _____    ______ ____
ROOT
ATOM      1  O   UNL     1     144.289 126.974 124.815  0.00  0.00    +0.000 OA
ATOM      2  C   UNL     1     143.302 127.546 124.368  0.00  0.00    +0.000 C 
ENDROOT
BRANCH   2   3
ATOM      3  C   UNL     1     142.909 128.843 124.863  0.00  0.00    +0.000 C 
ATOM      4  C   UNL     1     142.491 130.238 125.369  0.00  0.00    +0.000 C 
ENDBRANCH   2   3
BRANCH   2   5
ATOM      5  C   UNL     1     142.502 126.939 123.330  0.00  0.00    +0.000 C 
ATOM      6  C   UNL     1     141.658 126.305 122.206  0.00  0.00    +0.000 C 
ENDBRANCH   2   5
TORSDOF 2
ENDMDL
MODEL 4
REMARK VINA RESULT:      -3.5      2.994      3.937
REMARK  Name = 7288_3Pentanone.pdbqt.pdb
REMARK  2 active torsions:
REMARK  status: ('A' for Active; 'I' for Inactive)
REMARK    1  A    between atoms: C_2  and  C_3
REMARK    2  A    between atoms: C_2  and  C_5
REMARK                            x       y       z     vdW  Elec       q    Type
REMARK                         _______ _______ _______ _____ _____    ______ ____
ROOT
ATOM      1  O   UNL     1     143.218 127.562 125.187  0.00  0.00    +0.000 OA
ATOM      2  C   UNL     1     143.018 126.575 124.489  0.00  0.00    +0.000 C 
ENDROOT
BRANCH   2   3
ATOM      3  C   UNL     1     143.447 125.266 124.919  0.00  0.00    +0.000 C 
ATOM      4  C   UNL     1     143.883 123.859 125.372  0.00  0.00    +0.000 C 
ENDBRANCH   2   3
BRANCH   2   5
ATOM      5  C   UNL     1     142.347 126.691 123.217  0.00  0.00    +0.000 C 
ATOM      6  C   UNL     1     141.612 126.800 121.865  0.00  0.00    +0.000 C 
ENDBRANCH   2   5
TORSDOF 2
ENDMDL
MODEL 5
REMARK VINA RESULT:      -3.4      3.500      4.297
REMARK  Name = 7288_3Pentanone.pdbqt.pdb
REMARK  2 active torsions:
REMARK  status: ('A' for Active; 'I' for Inactive)
REMARK    1  A    between atoms: C_2  and  C_3
REMARK    2  A    between atoms: C_2  and  C_5
REMARK                            x       y       z     vdW  Elec       q    Type
REMARK                         _______ _______ _______ _____ _____    ______ ____
ROOT
ATOM      1  O   UNL     1     142.514 126.540 125.898  0.00  0.00    +0.000 OA
ATOM      2  C   UNL     1     142.982 126.055 124.875  0.00  0.00    +0.000 C 
ENDROOT
BRANCH   2   3
ATOM      3  C   UNL     1     142.437 126.389 123.580  0.00  0.00    +0.000 C 
ATOM      4  C   UNL     1     141.870 126.763 122.197  0.00  0.00    +0.000 C 
ENDBRANCH   2   3
BRANCH   2   5
ATOM      5  C   UNL     1     144.093 125.135 124.932  0.00  0.00    +0.000 C 
ATOM      6  C   UNL     1     145.294 124.170 124.986  0.00  0.00    +0.000 C 
ENDBRANCH   2   5
TORSDOF 2
ENDMDL
MODEL 6
REMARK VINA RESULT:      -3.3      3.340      4.131
REMARK  Name = 7288_3Pentanone.pdbqt.pdb
REMARK  2 active torsions:
REMARK  status: ('A' for Active; 'I' for Inactive)
REMARK    1  A    between atoms: C_2  and  C_3
REMARK    2  A    between atoms: C_2  and  C_5
REMARK                            x       y       z     vdW  Elec       q    Type
REMARK                         _______ _______ _______ _____ _____    ______ ____
ROOT
ATOM      1  O   UNL     1     144.460 126.815 124.677  0.00  0.00    +0.000 OA
ATOM      2  C   UNL     1     143.277 126.498 124.655  0.00  0.00    +0.000 C 
ENDROOT
BRANCH   2   3
ATOM      3  C   UNL     1     142.532 126.503 123.419  0.00  0.00    +0.000 C 
ATOM      4  C   UNL     1     141.724 126.489 122.106  0.00  0.00    +0.000 C 
ENDBRANCH   2   3
BRANCH   2   5
ATOM      5  C   UNL     1     142.591 126.110 125.865  0.00  0.00    +0.000 C 
ATOM      6  C   UNL     1     141.870 125.712 127.169  0.00  0.00    +0.000 C 
ENDBRANCH   2   5
TORSDOF 2
ENDMDL
MODEL 7
REMARK VINA RESULT:      -3.1     12.579     13.389
REMARK  Name = 7288_3Pentanone.pdbqt.pdb
REMARK  2 active torsions:
REMARK  status: ('A' for Active; 'I' for Inactive)
REMARK    1  A    between atoms: C_2  and  C_3
REMARK    2  A    between atoms: C_2  and  C_5
REMARK                            x       y       z     vdW  Elec       q    Type
REMARK                         _______ _______ _______ _____ _____    ______ ____
ROOT
ATOM      1  O   UNL     1     136.516 123.054 132.381  0.00  0.00    +0.000 OA
ATOM      2  C   UNL     1     136.663 123.859 133.293  0.00  0.00    +0.000 C 
ENDROOT
BRANCH   2   3
ATOM      3  C   UNL     1     135.764 123.870 134.423  0.00  0.00    +0.000 C 
ATOM      4  C   UNL     1     134.795 123.862 135.621  0.00  0.00    +0.000 C 
ENDBRANCH   2   3
BRANCH   2   5
ATOM      5  C   UNL     1     137.739 124.821 133.266  0.00  0.00    +0.000 C 
ATOM      6  C   UNL     1     138.878 125.859 133.218  0.00  0.00    +0.000 C 
ENDBRANCH   2   5
TORSDOF 2
ENDMDL
MODEL 8
REMARK VINA RESULT:      -2.9     20.983     21.873
REMARK  Name = 7288_3Pentanone.pdbqt.pdb
REMARK  2 active torsions:
REMARK  status: ('A' for Active; 'I' for Inactive)
REMARK    1  A    between atoms: C_2  and  C_3
REMARK    2  A    between atoms: C_2  and  C_5
REMARK                            x       y       z     vdW  Elec       q    Type
REMARK                         _______ _______ _______ _____ _____    ______ ____
ROOT
ATOM      1  O   UNL     1     140.728 127.039 103.164  0.00  0.00    +0.000 OA
ATOM      2  C   UNL     1     140.595 126.715 101.991  0.00  0.00    +0.000 C 
ENDROOT
BRANCH   2   3
ATOM      3  C   UNL     1     139.650 125.693 101.607  0.00  0.00    +0.000 C 
ATOM      4  C   UNL     1     138.624 124.615 101.207  0.00  0.00    +0.000 C 
ENDBRANCH   2   3
BRANCH   2   5
ATOM      5  C   UNL     1     141.379 127.344 100.954  0.00  0.00    +0.000 C 
ATOM      6  C   UNL     1     142.220 127.995  99.838  0.00  0.00    +0.000 C 
ENDBRANCH   2   5
TORSDOF 2
ENDMDL
MODEL 9
REMARK VINA RESULT:      -2.9     10.938     11.826
REMARK  Name = 7288_3Pentanone.pdbqt.pdb
REMARK  2 active torsions:
REMARK  status: ('A' for Active; 'I' for Inactive)
REMARK    1  A    between atoms: C_2  and  C_3
REMARK    2  A    between atoms: C_2  and  C_5
REMARK                            x       y       z     vdW  Elec       q    Type
REMARK                         _______ _______ _______ _____ _____    ______ ____
ROOT
ATOM      1  O   UNL     1     141.781 128.349 132.699  0.00  0.00    +0.000 OA
ATOM      2  C   UNL     1     141.368 128.762 133.776  0.00  0.00    +0.000 C 
ENDROOT
BRANCH   2   3
ATOM      3  C   UNL     1     141.633 128.040 134.997  0.00  0.00    +0.000 C 
ATOM      4  C   UNL     1     141.892 127.272 136.308  0.00  0.00    +0.000 C 
ENDBRANCH   2   3
BRANCH   2   5
ATOM      5  C   UNL     1     140.605 129.985 133.857  0.00  0.00    +0.000 C 
ATOM      6  C   UNL     1     139.793 131.292 133.968  0.00  0.00    +0.000 C 
ENDBRANCH   2   5
TORSDOF 2
ENDMDL
