MODEL 1
REMARK VINA RESULT:      -7.7      0.000      0.000
REMARK  Name = 73299_Hederagenin.pdbqt.pdb
REMARK  5 active torsions:
REMARK  status: ('A' for Active; 'I' for Inactive)
REMARK    1  A    between atoms: C_9  and  C_35
REMARK    2  A    between atoms: C_14  and  C_32
REMARK    3  A    between atoms: C_17  and  O_29
REMARK    4  A    between atoms: C_32  and  O_33
REMARK    5  A    between atoms: C_35  and  O_36
REMARK                            x       y       z     vdW  Elec       q    Type
REMARK                         _______ _______ _______ _____ _____    ______ ____
ROOT
ATOM      1  C   UNL     1     145.855 126.392  97.914  0.00  0.00    +0.000 C 
ATOM      2  C   UNL     1     144.289 126.612  98.031  0.00  0.00    +0.000 C 
ATOM      3  C   UNL     1     143.618 127.279  99.237  0.00  0.00    +0.000 C 
ATOM      4  C   UNL     1     146.232 124.918  97.260  0.00  0.00    +0.000 C 
ATOM      5  C   UNL     1     144.274 127.049 100.629  0.00  0.00    +0.000 C 
ATOM      6  C   UNL     1     146.368 126.512  99.283  0.00  0.00    +0.000 C 
ATOM      7  C   UNL     1     145.676 126.811 100.571  0.00  0.00    +0.000 C 
ATOM      8  C   UNL     1     145.389 124.613  95.906  0.00  0.00    +0.000 C 
ATOM      9  C   UNL     1     143.461 126.823 101.915  0.00  0.00    +0.000 C 
ATOM     10  C   UNL     1     145.948 123.993  94.685  0.00  0.00    +0.000 C 
ATOM     11  C   UNL     1     143.578 126.041  96.929  0.00  0.00    +0.000 C 
ATOM     12  C   UNL     1     142.251 126.788  99.376  0.00  0.00    +0.000 C 
ATOM     13  C   UNL     1     147.637 124.810  96.824  0.00  0.00    +0.000 C 
ATOM     14  C   UNL     1     147.523 124.168  94.225  0.00  0.00    +0.000 C 
ATOM     15  C   UNL     1     146.414 127.575  97.022  0.00  0.00    +0.000 C 
ATOM     16  C   UNL     1     148.223 124.446  95.479  0.00  0.00    +0.000 C 
ATOM     17  C   UNL     1     141.915 126.749 101.801  0.00  0.00    +0.000 C 
ATOM     18  C   UNL     1     144.181 125.099  95.926  0.00  0.00    +0.000 C 
ATOM     19  C   UNL     1     143.607 128.808  98.980  0.00  0.00    +0.000 C 
ATOM     20  C   UNL     1     141.350 126.518 100.535  0.00  0.00    +0.000 C 
ATOM     21  C   UNL     1     145.886 123.718  98.244  0.00  0.00    +0.000 C 
ATOM     22  C   UNL     1     145.292 122.794  94.162  0.00  0.00    +0.000 C 
ATOM     23  C   UNL     1     147.855 122.873  93.573  0.00  0.00    +0.000 C 
ATOM     24  C   UNL     1     145.507 121.489  93.430  0.00  0.00    +0.000 C 
ATOM     25  C   UNL     1     143.813 127.955 102.936  0.00  0.00    +0.000 C 
ATOM     26  C   UNL     1     146.975 121.657  93.182  0.00  0.00    +0.000 C 
ATOM     27  C   UNL     1     145.215 120.284  94.343  0.00  0.00    +0.000 C 
ATOM     28  C   UNL     1     144.704 121.439  92.118  0.00  0.00    +0.000 C 
ENDROOT
BRANCH  17  29
ATOM     29  O   UNL     1     141.099 127.196 102.827  0.00  0.00    +0.000 OA
ATOM     30  H   UNL     1     140.439 126.514 103.070  0.00  0.00    +0.000 HD
ENDBRANCH  17  29
BRANCH  14  32
ATOM     31  O   UNL     1     147.659 125.217  92.001  0.00  0.00    +0.000 OA
ATOM     32  C   UNL     1     147.585 125.323  93.219  0.00  0.00    +0.000 C 
BRANCH  32  33
ATOM     33  O   UNL     1     147.628 126.551  93.781  0.00  0.00    +0.000 OA
ATOM     34  H   UNL     1     147.350 127.167  93.071  0.00  0.00    +0.000 HD
ENDBRANCH  32  33
ENDBRANCH  14  32
BRANCH   9  35
ATOM     35  C   UNL     1     143.873 125.501 102.484  0.00  0.00    +0.000 C 
BRANCH  35  36
ATOM     36  O   UNL     1     144.254 124.322 102.985  0.00  0.00    +0.000 OA
ATOM     37  H   UNL     1     143.511 123.871 103.426  0.00  0.00    +0.000 HD
ENDBRANCH  35  36
ENDBRANCH   9  35
TORSDOF 5
ENDMDL
MODEL 2
REMARK VINA RESULT:      -7.5      1.677      2.255
REMARK  Name = 73299_Hederagenin.pdbqt.pdb
REMARK  5 active torsions:
REMARK  status: ('A' for Active; 'I' for Inactive)
REMARK    1  A    between atoms: C_9  and  C_35
REMARK    2  A    between atoms: C_14  and  C_32
REMARK    3  A    between atoms: C_17  and  O_29
REMARK    4  A    between atoms: C_32  and  O_33
REMARK    5  A    between atoms: C_35  and  O_36
REMARK                            x       y       z     vdW  Elec       q    Type
REMARK                         _______ _______ _______ _____ _____    ______ ____
ROOT
ATOM      1  C   UNL     1     147.213 127.103  96.591  0.00  0.00    +0.000 C 
ATOM      2  C   UNL     1     145.748 127.171  97.194  0.00  0.00    +0.000 C 
ATOM      3  C   UNL     1     145.438 127.696  98.600  0.00  0.00    +0.000 C 
ATOM      4  C   UNL     1     147.470 125.715  95.725  0.00  0.00    +0.000 C 
ATOM      5  C   UNL     1     146.505 127.437  99.703  0.00  0.00    +0.000 C 
ATOM      6  C   UNL     1     148.114 127.181  97.747  0.00  0.00    +0.000 C 
ATOM      7  C   UNL     1     147.833 127.333  99.204  0.00  0.00    +0.000 C 
ATOM      8  C   UNL     1     146.273 125.422  94.667  0.00  0.00    +0.000 C 
ATOM      9  C   UNL     1     146.144 127.056 101.149  0.00  0.00    +0.000 C 
ATOM     10  C   UNL     1     146.469 124.935  93.284  0.00  0.00    +0.000 C 
ATOM     11  C   UNL     1     144.773 126.610  96.311  0.00  0.00    +0.000 C 
ATOM     12  C   UNL     1     144.216 127.074  99.101  0.00  0.00    +0.000 C 
ATOM     13  C   UNL     1     148.676 125.764  94.877  0.00  0.00    +0.000 C 
ATOM     14  C   UNL     1     147.811 125.282  92.388  0.00  0.00    +0.000 C 
ATOM     15  C   UNL     1     147.390 128.387  95.681  0.00  0.00    +0.000 C 
ATOM     16  C   UNL     1     148.843 125.542  93.392  0.00  0.00    +0.000 C 
ATOM     17  C   UNL     1     144.647 126.849 101.501  0.00  0.00    +0.000 C 
ATOM     18  C   UNL     1     145.100 125.794  95.093  0.00  0.00    +0.000 C 
ATOM     19  C   UNL     1     145.246 129.230  98.496  0.00  0.00    +0.000 C 
ATOM     20  C   UNL     1     143.736 126.649 100.448  0.00  0.00    +0.000 C 
ATOM     21  C   UNL     1     147.524 124.427  96.656  0.00  0.00    +0.000 C 
ATOM     22  C   UNL     1     145.766 123.717  92.878  0.00  0.00    +0.000 C 
ATOM     23  C   UNL     1     148.012 124.068  91.553  0.00  0.00    +0.000 C 
ATOM     24  C   UNL     1     145.833 122.487  92.002  0.00  0.00    +0.000 C 
ATOM     25  C   UNL     1     146.716 128.147 102.114  0.00  0.00    +0.000 C 
ATOM     26  C   UNL     1     147.138 122.805  91.339  0.00  0.00    +0.000 C 
ATOM     27  C   UNL     1     145.917 121.205  92.850  0.00  0.00    +0.000 C 
ATOM     28  C   UNL     1     144.670 122.450  90.994  0.00  0.00    +0.000 C 
ENDROOT
BRANCH  17  29
ATOM     29  O   UNL     1     144.157 127.153 102.760  0.00  0.00    +0.000 OA
ATOM     30  H   UNL     1     143.403 126.571 102.991  0.00  0.00    +0.000 HD
ENDBRANCH  17  29
BRANCH  14  32
ATOM     31  O   UNL     1     147.338 126.501  90.301  0.00  0.00    +0.000 OA
ATOM     32  C   UNL     1     147.483 126.500  91.516  0.00  0.00    +0.000 C 
BRANCH  32  33
ATOM     33  O   UNL     1     147.425 127.670  92.192  0.00  0.00    +0.000 OA
ATOM     34  H   UNL     1     146.680 128.163  91.786  0.00  0.00    +0.000 HD
ENDBRANCH  32  33
ENDBRANCH  14  32
BRANCH   9  35
ATOM     35  C   UNL     1     146.799 125.743 101.447  0.00  0.00    +0.000 C 
BRANCH  35  36
ATOM     36  O   UNL     1     147.395 124.576 101.705  0.00  0.00    +0.000 OA
ATOM     37  H   UNL     1     146.738 123.870 101.849  0.00  0.00    +0.000 HD
ENDBRANCH  35  36
ENDBRANCH   9  35
TORSDOF 5
ENDMDL
MODEL 3
REMARK VINA RESULT:      -7.2      1.919      8.349
REMARK  Name = 73299_Hederagenin.pdbqt.pdb
REMARK  5 active torsions:
REMARK  status: ('A' for Active; 'I' for Inactive)
REMARK    1  A    between atoms: C_9  and  C_35
REMARK    2  A    between atoms: C_14  and  C_32
REMARK    3  A    between atoms: C_17  and  O_29
REMARK    4  A    between atoms: C_32  and  O_33
REMARK    5  A    between atoms: C_35  and  O_36
REMARK                            x       y       z     vdW  Elec       q    Type
REMARK                         _______ _______ _______ _____ _____    ______ ____
ROOT
ATOM      1  C   UNL     1     147.139 125.329  95.731  0.00  0.00    +0.000 C 
ATOM      2  C   UNL     1     146.160 124.550  94.756  0.00  0.00    +0.000 C 
ATOM      3  C   UNL     1     146.502 124.228  93.297  0.00  0.00    +0.000 C 
ATOM      4  C   UNL     1     146.333 126.411  96.692  0.00  0.00    +0.000 C 
ATOM      5  C   UNL     1     147.376 125.263  92.530  0.00  0.00    +0.000 C 
ATOM      6  C   UNL     1     148.098 126.011  94.855  0.00  0.00    +0.000 C 
ATOM      7  C   UNL     1     148.246 126.013  93.370  0.00  0.00    +0.000 C 
ATOM      8  C   UNL     1     145.032 125.748  97.405  0.00  0.00    +0.000 C 
ATOM      9  C   UNL     1     147.136 125.639  91.059  0.00  0.00    +0.000 C 
ATOM     10  C   UNL     1     144.630 125.979  98.809  0.00  0.00    +0.000 C 
ATOM     11  C   UNL     1     144.901 124.261  95.370  0.00  0.00    +0.000 C 
ATOM     12  C   UNL     1     145.274 124.116  92.516  0.00  0.00    +0.000 C 
ATOM     13  C   UNL     1     147.136 126.901  97.828  0.00  0.00    +0.000 C 
ATOM     14  C   UNL     1     145.710 126.301 100.015  0.00  0.00    +0.000 C 
ATOM     15  C   UNL     1     147.883 124.235  96.599  0.00  0.00    +0.000 C 
ATOM     16  C   UNL     1     146.853 126.884  99.312  0.00  0.00    +0.000 C 
ATOM     17  C   UNL     1     145.919 125.010  90.330  0.00  0.00    +0.000 C 
ATOM     18  C   UNL     1     144.431 124.861  96.666  0.00  0.00    +0.000 C 
ATOM     19  C   UNL     1     147.264 122.878  93.281  0.00  0.00    +0.000 C 
ATOM     20  C   UNL     1     144.897 124.439  91.109  0.00  0.00    +0.000 C 
ATOM     21  C   UNL     1     145.769 127.646  95.865  0.00  0.00    +0.000 C 
ATOM     22  C   UNL     1     143.273 126.462  99.065  0.00  0.00    +0.000 C 
ATOM     23  C   UNL     1     144.973 127.219 100.924  0.00  0.00    +0.000 C 
ATOM     24  C   UNL     1     142.414 127.306  99.978  0.00  0.00    +0.000 C 
ATOM     25  C   UNL     1     148.420 125.290  90.236  0.00  0.00    +0.000 C 
ATOM     26  C   UNL     1     143.492 127.677 100.951  0.00  0.00    +0.000 C 
ATOM     27  C   UNL     1     141.861 128.538  99.240  0.00  0.00    +0.000 C 
ATOM     28  C   UNL     1     141.304 126.471 100.640  0.00  0.00    +0.000 C 
ENDROOT
BRANCH  17  29
ATOM     29  O   UNL     1     145.961 124.732  88.974  0.00  0.00    +0.000 OA
ATOM     30  H   UNL     1     145.242 124.116  88.722  0.00  0.00    +0.000 HD
ENDBRANCH  17  29
BRANCH  14  32
ATOM     31  O   UNL     1     146.524 123.983 100.192  0.00  0.00    +0.000 OA
ATOM     32  C   UNL     1     146.032 124.975 100.714  0.00  0.00    +0.000 C 
BRANCH  32  33
ATOM     33  O   UNL     1     145.656 124.923 102.011  0.00  0.00    +0.000 OA
ATOM     34  H   UNL     1     145.366 125.835 102.230  0.00  0.00    +0.000 HD
ENDBRANCH  32  33
ENDBRANCH  14  32
BRANCH   9  35
ATOM     35  C   UNL     1     146.902 127.117  91.003  0.00  0.00    +0.000 C 
BRANCH  35  36
ATOM     36  O   UNL     1     146.707 128.438  90.958  0.00  0.00    +0.000 OA
ATOM     37  H   UNL     1     145.778 128.662  91.153  0.00  0.00    +0.000 HD
ENDBRANCH  35  36
ENDBRANCH   9  35
TORSDOF 5
ENDMDL
MODEL 4
REMARK VINA RESULT:      -7.2      2.226      8.336
REMARK  Name = 73299_Hederagenin.pdbqt.pdb
REMARK  5 active torsions:
REMARK  status: ('A' for Active; 'I' for Inactive)
REMARK    1  A    between atoms: C_9  and  C_35
REMARK    2  A    between atoms: C_14  and  C_32
REMARK    3  A    between atoms: C_17  and  O_29
REMARK    4  A    between atoms: C_32  and  O_33
REMARK    5  A    between atoms: C_35  and  O_36
REMARK                            x       y       z     vdW  Elec       q    Type
REMARK                         _______ _______ _______ _____ _____    ______ ____
ROOT
ATOM      1  C   UNL     1     142.850 126.069  96.311  0.00  0.00    +0.000 C 
ATOM      2  C   UNL     1     143.916 126.880  95.462  0.00  0.00    +0.000 C 
ATOM      3  C   UNL     1     144.078 126.730  93.945  0.00  0.00    +0.000 C 
ATOM      4  C   UNL     1     143.464 125.558  97.762  0.00  0.00    +0.000 C 
ATOM      5  C   UNL     1     143.810 125.321  93.340  0.00  0.00    +0.000 C 
ATOM      6  C   UNL     1     142.467 124.931  95.468  0.00  0.00    +0.000 C 
ATOM      7  C   UNL     1     142.885 124.541  94.089  0.00  0.00    +0.000 C 
ATOM      8  C   UNL     1     144.221 126.752  98.562  0.00  0.00    +0.000 C 
ATOM      9  C   UNL     1     144.658 124.717  92.208  0.00  0.00    +0.000 C 
ATOM     10  C   UNL     1     144.113 126.993 100.018  0.00  0.00    +0.000 C 
ATOM     11  C   UNL     1     144.757 127.694  96.284  0.00  0.00    +0.000 C 
ATOM     12  C   UNL     1     145.448 127.054  93.560  0.00  0.00    +0.000 C 
ATOM     13  C   UNL     1     142.430 125.107  98.712  0.00  0.00    +0.000 C 
ATOM     14  C   UNL     1     142.766 126.621 100.896  0.00  0.00    +0.000 C 
ATOM     15  C   UNL     1     141.610 127.029  96.519  0.00  0.00    +0.000 C 
ATOM     16  C   UNL     1     142.131 125.553 100.123  0.00  0.00    +0.000 C 
ATOM     17  C   UNL     1     145.882 125.524  91.698  0.00  0.00    +0.000 C 
ATOM     18  C   UNL     1     144.835 127.593  97.781  0.00  0.00    +0.000 C 
ATOM     19  C   UNL     1     143.092 127.717  93.269  0.00  0.00    +0.000 C 
ATOM     20  C   UNL     1     146.383 126.558  92.508  0.00  0.00    +0.000 C 
ATOM     21  C   UNL     1     144.559 124.419  97.584  0.00  0.00    +0.000 C 
ATOM     22  C   UNL     1     145.350 127.049 100.798  0.00  0.00    +0.000 C 
ATOM     23  C   UNL     1     143.300 126.226 102.227  0.00  0.00    +0.000 C 
ATOM     24  C   UNL     1     145.975 126.762 102.144  0.00  0.00    +0.000 C 
ATOM     25  C   UNL     1     143.728 124.432  90.982  0.00  0.00    +0.000 C 
ATOM     26  C   UNL     1     144.728 126.294 102.829  0.00  0.00    +0.000 C 
ATOM     27  C   UNL     1     147.027 125.643 102.041  0.00  0.00    +0.000 C 
ATOM     28  C   UNL     1     146.539 128.041 102.787  0.00  0.00    +0.000 C 
ENDROOT
BRANCH  17  29
ATOM     29  O   UNL     1     146.285 125.455  90.375  0.00  0.00    +0.000 OA
ATOM     30  H   UNL     1     146.679 124.580  90.176  0.00  0.00    +0.000 HD
ENDBRANCH  17  29
BRANCH  14  32
ATOM     31  O   UNL     1     142.285 129.032 100.744  0.00  0.00    +0.000 OA
ATOM     32  C   UNL     1     141.916 127.893 100.999  0.00  0.00    +0.000 C 
BRANCH  32  33
ATOM     33  O   UNL     1     140.671 127.693 101.486  0.00  0.00    +0.000 OA
ATOM     34  H   UNL     1     140.712 127.989 102.421  0.00  0.00    +0.000 HD
ENDBRANCH  32  33
ENDBRANCH  14  32
BRANCH   9  35
ATOM     35  C   UNL     1     145.225 123.424  92.708  0.00  0.00    +0.000 C 
BRANCH  35  36
ATOM     36  O   UNL     1     145.719 122.271  93.164  0.00  0.00    +0.000 OA
ATOM     37  H   UNL     1     145.093 121.538  93.018  0.00  0.00    +0.000 HD
ENDBRANCH  35  36
ENDBRANCH   9  35
TORSDOF 5
ENDMDL
MODEL 5
REMARK VINA RESULT:      -7.1      2.131      3.097
REMARK  Name = 73299_Hederagenin.pdbqt.pdb
REMARK  5 active torsions:
REMARK  status: ('A' for Active; 'I' for Inactive)
REMARK    1  A    between atoms: C_9  and  C_35
REMARK    2  A    between atoms: C_14  and  C_32
REMARK    3  A    between atoms: C_17  and  O_29
REMARK    4  A    between atoms: C_32  and  O_33
REMARK    5  A    between atoms: C_35  and  O_36
REMARK                            x       y       z     vdW  Elec       q    Type
REMARK                         _______ _______ _______ _____ _____    ______ ____
ROOT
ATOM      1  C   UNL     1     146.685 125.997  97.571  0.00  0.00    +0.000 C 
ATOM      2  C   UNL     1     145.741 127.153  98.109  0.00  0.00    +0.000 C 
ATOM      3  C   UNL     1     145.218 127.214  99.548  0.00  0.00    +0.000 C 
ATOM      4  C   UNL     1     146.280 125.522  96.038  0.00  0.00    +0.000 C 
ATOM      5  C   UNL     1     144.929 125.858 100.255  0.00  0.00    +0.000 C 
ATOM      6  C   UNL     1     146.531 124.893  98.526  0.00  0.00    +0.000 C 
ATOM      7  C   UNL     1     145.728 124.781  99.779  0.00  0.00    +0.000 C 
ATOM      8  C   UNL     1     146.094 126.785  95.033  0.00  0.00    +0.000 C 
ATOM      9  C   UNL     1     143.718 125.631 101.176  0.00  0.00    +0.000 C 
ATOM     10  C   UNL     1     146.579 126.832  93.636  0.00  0.00    +0.000 C 
ATOM     11  C   UNL     1     145.372 128.074  97.079  0.00  0.00    +0.000 C 
ATOM     12  C   UNL     1     143.951 127.938  99.583  0.00  0.00    +0.000 C 
ATOM     13  C   UNL     1     147.319 124.708  95.380  0.00  0.00    +0.000 C 
ATOM     14  C   UNL     1     147.918 126.016  93.120  0.00  0.00    +0.000 C 
ATOM     15  C   UNL     1     148.165 126.556  97.627  0.00  0.00    +0.000 C 
ATOM     16  C   UNL     1     148.034 124.904  94.064  0.00  0.00    +0.000 C 
ATOM     17  C   UNL     1     142.700 126.789 101.347  0.00  0.00    +0.000 C 
ATOM     18  C   UNL     1     145.595 127.839  95.611  0.00  0.00    +0.000 C 
ATOM     19  C   UNL     1     146.276 127.961 100.400  0.00  0.00    +0.000 C 
ATOM     20  C   UNL     1     142.707 127.829 100.401  0.00  0.00    +0.000 C 
ATOM     21  C   UNL     1     144.891 124.749  95.994  0.00  0.00    +0.000 C 
ATOM     22  C   UNL     1     145.612 127.140  92.583  0.00  0.00    +0.000 C 
ATOM     23  C   UNL     1     147.595 125.644  91.717  0.00  0.00    +0.000 C 
ATOM     24  C   UNL     1     145.238 126.893  91.139  0.00  0.00    +0.000 C 
ATOM     25  C   UNL     1     144.237 125.235 102.598  0.00  0.00    +0.000 C 
ATOM     26  C   UNL     1     146.414 126.033  90.790  0.00  0.00    +0.000 C 
ATOM     27  C   UNL     1     143.911 126.119  91.032  0.00  0.00    +0.000 C 
ATOM     28  C   UNL     1     145.222 128.202  90.330  0.00  0.00    +0.000 C 
ENDROOT
BRANCH  17  29
ATOM     29  O   UNL     1     142.017 126.973 102.538  0.00  0.00    +0.000 OA
ATOM     30  H   UNL     1     141.835 126.114 102.972  0.00  0.00    +0.000 HD
ENDBRANCH  17  29
BRANCH  14  32
ATOM     31  O   UNL     1     149.720 127.428  92.211  0.00  0.00    +0.000 OA
ATOM     32  C   UNL     1     149.101 126.991  93.172  0.00  0.00    +0.000 C 
BRANCH  32  33
ATOM     33  O   UNL     1     149.503 127.314  94.421  0.00  0.00    +0.000 OA
ATOM     34  H   UNL     1     149.625 128.287  94.407  0.00  0.00    +0.000 HD
ENDBRANCH  32  33
ENDBRANCH  14  32
BRANCH   9  35
ATOM     35  C   UNL     1     142.925 124.496 100.607  0.00  0.00    +0.000 C 
BRANCH  35  36
ATOM     36  O   UNL     1     142.229 123.476 100.097  0.00  0.00    +0.000 OA
ATOM     37  H   UNL     1     142.811 122.861  99.614  0.00  0.00    +0.000 HD
ENDBRANCH  35  36
ENDBRANCH   9  35
TORSDOF 5
ENDMDL
MODEL 6
REMARK VINA RESULT:      -7.0      2.392      3.302
REMARK  Name = 73299_Hederagenin.pdbqt.pdb
REMARK  5 active torsions:
REMARK  status: ('A' for Active; 'I' for Inactive)
REMARK    1  A    between atoms: C_9  and  C_35
REMARK    2  A    between atoms: C_14  and  C_32
REMARK    3  A    between atoms: C_17  and  O_29
REMARK    4  A    between atoms: C_32  and  O_33
REMARK    5  A    between atoms: C_35  and  O_36
REMARK                            x       y       z     vdW  Elec       q    Type
REMARK                         _______ _______ _______ _____ _____    ______ ____
ROOT
ATOM      1  C   UNL     1     144.674 126.062  95.476  0.00  0.00    +0.000 C 
ATOM      2  C   UNL     1     143.279 125.313  95.380  0.00  0.00    +0.000 C 
ATOM      3  C   UNL     1     142.203 125.392  96.468  0.00  0.00    +0.000 C 
ATOM      4  C   UNL     1     145.924 125.128  94.920  0.00  0.00    +0.000 C 
ATOM      5  C   UNL     1     142.691 125.516  97.941  0.00  0.00    +0.000 C 
ATOM      6  C   UNL     1     144.845 126.385  96.897  0.00  0.00    +0.000 C 
ATOM      7  C   UNL     1     143.958 126.151  98.073  0.00  0.00    +0.000 C 
ATOM      8  C   UNL     1     145.596 124.460  93.476  0.00  0.00    +0.000 C 
ATOM      9  C   UNL     1     142.017 124.787  99.114  0.00  0.00    +0.000 C 
ATOM     10  C   UNL     1     146.558 124.353  92.357  0.00  0.00    +0.000 C 
ATOM     11  C   UNL     1     143.183 124.494  94.211  0.00  0.00    +0.000 C 
ATOM     12  C   UNL     1     141.382 124.186  96.441  0.00  0.00    +0.000 C 
ATOM     13  C   UNL     1     147.163 125.889  94.675  0.00  0.00    +0.000 C 
ATOM     14  C   UNL     1     147.770 125.445  92.104  0.00  0.00    +0.000 C 
ATOM     15  C   UNL     1     144.533 127.393  94.632  0.00  0.00    +0.000 C 
ATOM     16  C   UNL     1     148.011 126.012  93.430  0.00  0.00    +0.000 C 
ATOM     17  C   UNL     1     140.840 123.825  98.801  0.00  0.00    +0.000 C 
ATOM     18  C   UNL     1     144.343 124.143  93.323  0.00  0.00    +0.000 C 
ATOM     19  C   UNL     1     141.325 126.635  96.168  0.00  0.00    +0.000 C 
ATOM     20  C   UNL     1     140.680 123.376  97.478  0.00  0.00    +0.000 C 
ATOM     21  C   UNL     1     146.234 123.902  95.884  0.00  0.00    +0.000 C 
ATOM     22  C   UNL     1     146.804 123.028  91.787  0.00  0.00    +0.000 C 
ATOM     23  C   UNL     1     148.878 124.629  91.537  0.00  0.00    +0.000 C 
ATOM     24  C   UNL     1     147.835 122.141  91.128  0.00  0.00    +0.000 C 
ATOM     25  C   UNL     1     141.505 125.852 100.140  0.00  0.00    +0.000 C 
ATOM     26  C   UNL     1     148.938 123.152  91.069  0.00  0.00    +0.000 C 
ATOM     27  C   UNL     1     148.199 120.946  92.029  0.00  0.00    +0.000 C 
ATOM     28  C   UNL     1     147.383 121.700  89.724  0.00  0.00    +0.000 C 
ENDROOT
BRANCH  17  29
ATOM     29  O   UNL     1     139.798 123.652  99.697  0.00  0.00    +0.000 OA
ATOM     30  H   UNL     1     139.304 122.828  99.502  0.00  0.00    +0.000 HD
ENDBRANCH  17  29
BRANCH  14  32
ATOM     31  O   UNL     1     146.802 127.574  91.333  0.00  0.00    +0.000 OA
ATOM     32  C   UNL     1     147.263 126.469  91.081  0.00  0.00    +0.000 C 
BRANCH  32  33
ATOM     33  O   UNL     1     147.286 126.036  89.801  0.00  0.00    +0.000 OA
ATOM     34  H   UNL     1     147.682 125.139  89.841  0.00  0.00    +0.000 HD
ENDBRANCH  32  33
ENDBRANCH  14  32
BRANCH   9  35
ATOM     35  C   UNL     1     143.055 123.930  99.770  0.00  0.00    +0.000 C 
BRANCH  35  36
ATOM     36  O   UNL     1     143.971 123.154 100.356  0.00  0.00    +0.000 OA
ATOM     37  H   UNL     1     143.797 123.065 101.311  0.00  0.00    +0.000 HD
ENDBRANCH  35  36
ENDBRANCH   9  35
TORSDOF 5
ENDMDL
MODEL 7
REMARK VINA RESULT:      -6.9      1.854      8.316
REMARK  Name = 73299_Hederagenin.pdbqt.pdb
REMARK  5 active torsions:
REMARK  status: ('A' for Active; 'I' for Inactive)
REMARK    1  A    between atoms: C_9  and  C_35
REMARK    2  A    between atoms: C_14  and  C_32
REMARK    3  A    between atoms: C_17  and  O_29
REMARK    4  A    between atoms: C_32  and  O_33
REMARK    5  A    between atoms: C_35  and  O_36
REMARK                            x       y       z     vdW  Elec       q    Type
REMARK                         _______ _______ _______ _____ _____    ______ ____
ROOT
ATOM      1  C   UNL     1     144.540 125.084  96.759  0.00  0.00    +0.000 C 
ATOM      2  C   UNL     1     145.287 126.316  96.097  0.00  0.00    +0.000 C 
ATOM      3  C   UNL     1     145.845 126.297  94.670  0.00  0.00    +0.000 C 
ATOM      4  C   UNL     1     144.963 124.876  98.347  0.00  0.00    +0.000 C 
ATOM      5  C   UNL     1     146.393 124.939  94.142  0.00  0.00    +0.000 C 
ATOM      6  C   UNL     1     144.921 123.919  95.952  0.00  0.00    +0.000 C 
ATOM      7  C   UNL     1     145.777 123.802  94.736  0.00  0.00    +0.000 C 
ATOM      8  C   UNL     1     144.888 126.263  99.189  0.00  0.00    +0.000 C 
ATOM      9  C   UNL     1     147.659 124.823  93.277  0.00  0.00    +0.000 C 
ATOM     10  C   UNL     1     144.349 126.390 100.561  0.00  0.00    +0.000 C 
ATOM     11  C   UNL     1     145.450 127.405  97.010  0.00  0.00    +0.000 C 
ATOM     12  C   UNL     1     146.967 127.225  94.565  0.00  0.00    +0.000 C 
ATOM     13  C   UNL     1     144.058 123.975  99.084  0.00  0.00    +0.000 C 
ATOM     14  C   UNL     1     143.155 125.417 101.153  0.00  0.00    +0.000 C 
ATOM     15  C   UNL     1     142.988 125.360  96.611  0.00  0.00    +0.000 C 
ATOM     16  C   UNL     1     143.271 124.197 100.354  0.00  0.00    +0.000 C 
ATOM     17  C   UNL     1     148.465 126.115  92.979  0.00  0.00    +0.000 C 
ATOM     18  C   UNL     1     145.216 127.313  98.492  0.00  0.00    +0.000 C 
ATOM     19  C   UNL     1     144.706 126.736  93.715  0.00  0.00    +0.000 C 
ATOM     20  C   UNL     1     148.240 127.243  93.788  0.00  0.00    +0.000 C 
ATOM     21  C   UNL     1     146.464 124.374  98.508  0.00  0.00    +0.000 C 
ATOM     22  C   UNL     1     145.207 126.989 101.583  0.00  0.00    +0.000 C 
ATOM     23  C   UNL     1     143.485 125.279 102.597  0.00  0.00    +0.000 C 
ATOM     24  C   UNL     1     145.563 126.988 103.052  0.00  0.00    +0.000 C 
ATOM     25  C   UNL     1     147.272 124.174  91.907  0.00  0.00    +0.000 C 
ATOM     26  C   UNL     1     144.543 125.981 103.487  0.00  0.00    +0.000 C 
ATOM     27  C   UNL     1     147.000 126.482 103.275  0.00  0.00    +0.000 C 
ATOM     28  C   UNL     1     145.320 128.366 103.692  0.00  0.00    +0.000 C 
ENDROOT
BRANCH  17  29
ATOM     29  O   UNL     1     149.150 126.274  91.785  0.00  0.00    +0.000 OA
ATOM     30  H   UNL     1     148.796 127.035  91.279  0.00  0.00    +0.000 HD
ENDBRANCH  17  29
BRANCH  14  32
ATOM     31  O   UNL     1     141.604 127.329 101.213  0.00  0.00    +0.000 OA
ATOM     32  C   UNL     1     141.822 126.152 100.961  0.00  0.00    +0.000 C 
BRANCH  32  33
ATOM     33  O   UNL     1     140.809 125.366 100.536  0.00  0.00    +0.000 OA
ATOM     34  H   UNL     1     140.900 124.532 101.045  0.00  0.00    +0.000 HD
ENDBRANCH  32  33
ENDBRANCH  14  32
BRANCH   9  35
ATOM     35  C   UNL     1     148.617 123.924  93.995  0.00  0.00    +0.000 C 
BRANCH  35  36
ATOM     36  O   UNL     1     149.460 123.116  94.644  0.00  0.00    +0.000 OA
ATOM     37  H   UNL     1     149.198 123.012  95.577  0.00  0.00    +0.000 HD
ENDBRANCH  35  36
ENDBRANCH   9  35
TORSDOF 5
ENDMDL
MODEL 8
REMARK VINA RESULT:      -6.9     14.668     19.599
REMARK  Name = 73299_Hederagenin.pdbqt.pdb
REMARK  5 active torsions:
REMARK  status: ('A' for Active; 'I' for Inactive)
REMARK    1  A    between atoms: C_9  and  C_35
REMARK    2  A    between atoms: C_14  and  C_32
REMARK    3  A    between atoms: C_17  and  O_29
REMARK    4  A    between atoms: C_32  and  O_33
REMARK    5  A    between atoms: C_35  and  O_36
REMARK                            x       y       z     vdW  Elec       q    Type
REMARK                         _______ _______ _______ _____ _____    ______ ____
ROOT
ATOM      1  C   UNL     1     142.886 114.182 111.392  0.00  0.00    +0.000 C 
ATOM      2  C   UNL     1     142.082 113.840 110.069  0.00  0.00    +0.000 C 
ATOM      3  C   UNL     1     142.724 113.800 108.678  0.00  0.00    +0.000 C 
ATOM      4  C   UNL     1     142.018 115.148 112.420  0.00  0.00    +0.000 C 
ATOM      5  C   UNL     1     143.885 114.799 108.405  0.00  0.00    +0.000 C 
ATOM      6  C   UNL     1     144.110 114.853 110.941  0.00  0.00    +0.000 C 
ATOM      7  C   UNL     1     144.614 115.164 109.571  0.00  0.00    +0.000 C 
ATOM      8  C   UNL     1     140.508 114.596 112.653  0.00  0.00    +0.000 C 
ATOM      9  C   UNL     1     144.062 115.537 107.067  0.00  0.00    +0.000 C 
ATOM     10  C   UNL     1     139.809 114.573 113.956  0.00  0.00    +0.000 C 
ATOM     11  C   UNL     1     140.684 113.659 110.316  0.00  0.00    +0.000 C 
ATOM     12  C   UNL     1     141.719 114.098 107.662  0.00  0.00    +0.000 C 
ATOM     13  C   UNL     1     142.577 115.210 113.783  0.00  0.00    +0.000 C 
ATOM     14  C   UNL     1     140.596 114.407 115.397  0.00  0.00    +0.000 C 
ATOM     15  C   UNL     1     143.249 112.800 112.074  0.00  0.00    +0.000 C 
ATOM     16  C   UNL     1     141.941 114.910 115.120  0.00  0.00    +0.000 C 
ATOM     17  C   UNL     1     142.988 115.328 105.967  0.00  0.00    +0.000 C 
ATOM     18  C   UNL     1     139.995 114.027 111.600  0.00  0.00    +0.000 C 
ATOM     19  C   UNL     1     143.285 112.371 108.462  0.00  0.00    +0.000 C 
ATOM     20  C   UNL     1     141.742 114.796 106.343  0.00  0.00    +0.000 C 
ATOM     21  C   UNL     1     141.837 116.622 111.850  0.00  0.00    +0.000 C 
ATOM     22  C   UNL     1     138.505 115.230 114.048  0.00  0.00    +0.000 C 
ATOM     23  C   UNL     1     139.785 115.215 116.347  0.00  0.00    +0.000 C 
ATOM     24  C   UNL     1     137.567 115.990 114.957  0.00  0.00    +0.000 C 
ATOM     25  C   UNL     1     145.451 115.150 106.460  0.00  0.00    +0.000 C 
ATOM     26  C   UNL     1     138.414 115.923 116.192  0.00  0.00    +0.000 C 
ATOM     27  C   UNL     1     137.375 117.438 114.472  0.00  0.00    +0.000 C 
ATOM     28  C   UNL     1     136.231 115.248 115.136  0.00  0.00    +0.000 C 
ENDROOT
BRANCH  17  29
ATOM     29  O   UNL     1     143.322 115.362 104.623  0.00  0.00    +0.000 OA
ATOM     30  H   UNL     1     143.877 114.591 104.383  0.00  0.00    +0.000 HD
ENDBRANCH  17  29
BRANCH  14  32
ATOM     31  O   UNL     1     139.711 112.366 116.455  0.00  0.00    +0.000 OA
ATOM     32  C   UNL     1     140.563 112.920 115.774  0.00  0.00    +0.000 C 
BRANCH  32  33
ATOM     33  O   UNL     1     141.632 112.213 115.345  0.00  0.00    +0.000 OA
ATOM     34  H   UNL     1     141.349 111.812 114.495  0.00  0.00    +0.000 HD
ENDBRANCH  32  33
ENDBRANCH  14  32
BRANCH   9  35
ATOM     35  C   UNL     1     144.042 117.006 107.356  0.00  0.00    +0.000 C 
BRANCH  35  36
ATOM     36  O   UNL     1     144.011 118.318 107.606  0.00  0.00    +0.000 OA
ATOM     37  H   UNL     1     143.157 118.581 107.996  0.00  0.00    +0.000 HD
ENDBRANCH  35  36
ENDBRANCH   9  35
TORSDOF 5
ENDMDL
MODEL 9
REMARK VINA RESULT:      -6.8     35.883     41.529
REMARK  Name = 73299_Hederagenin.pdbqt.pdb
REMARK  5 active torsions:
REMARK  status: ('A' for Active; 'I' for Inactive)
REMARK    1  A    between atoms: C_9  and  C_35
REMARK    2  A    between atoms: C_14  and  C_32
REMARK    3  A    between atoms: C_17  and  O_29
REMARK    4  A    between atoms: C_32  and  O_33
REMARK    5  A    between atoms: C_35  and  O_36
REMARK                            x       y       z     vdW  Elec       q    Type
REMARK                         _______ _______ _______ _____ _____    ______ ____
ROOT
ATOM      1  C   UNL     1     139.014 135.573 137.866  0.00  0.00    +0.000 C 
ATOM      2  C   UNL     1     139.076 137.147 137.686  0.00  0.00    +0.000 C 
ATOM      3  C   UNL     1     139.134 138.130 138.860  0.00  0.00    +0.000 C 
ATOM      4  C   UNL     1     137.977 134.861 136.789  0.00  0.00    +0.000 C 
ATOM      5  C   UNL     1     138.374 137.728 140.158  0.00  0.00    +0.000 C 
ATOM      6  C   UNL     1     138.573 135.357 139.249  0.00  0.00    +0.000 C 
ATOM      7  C   UNL     1     138.261 136.321 140.344  0.00  0.00    +0.000 C 
ATOM      8  C   UNL     1     138.226 135.372 135.267  0.00  0.00    +0.000 C 
ATOM      9  C   UNL     1     137.582 138.730 141.013  0.00  0.00    +0.000 C 
ATOM     10  C   UNL     1     138.211 134.502 134.071  0.00  0.00    +0.000 C 
ATOM     11  C   UNL     1     138.986 137.539 136.312  0.00  0.00    +0.000 C 
ATOM     12  C   UNL     1     138.556 139.410 138.463  0.00  0.00    +0.000 C 
ATOM     13  C   UNL     1     138.141 133.398 136.693  0.00  0.00    +0.000 C 
ATOM     14  C   UNL     1     138.650 132.911 134.108  0.00  0.00    +0.000 C 
ATOM     15  C   UNL     1     140.491 135.035 137.681  0.00  0.00    +0.000 C 
ATOM     16  C   UNL     1     138.412 132.516 135.497  0.00  0.00    +0.000 C 
ATOM     17  C   UNL     1     137.478 140.197 140.516  0.00  0.00    +0.000 C 
ATOM     18  C   UNL     1     138.591 136.619 135.192  0.00  0.00    +0.000 C 
ATOM     19  C   UNL     1     140.625 138.319 139.239  0.00  0.00    +0.000 C 
ATOM     20  C   UNL     1     137.772 140.466 139.167  0.00  0.00    +0.000 C 
ATOM     21  C   UNL     1     136.456 135.207 137.100  0.00  0.00    +0.000 C 
ATOM     22  C   UNL     1     137.311 134.858 132.974  0.00  0.00    +0.000 C 
ATOM     23  C   UNL     1     137.773 132.270 133.093  0.00  0.00    +0.000 C 
ATOM     24  C   UNL     1     136.451 134.313 131.857  0.00  0.00    +0.000 C 
ATOM     25  C   UNL     1     138.195 138.756 142.453  0.00  0.00    +0.000 C 
ATOM     26  C   UNL     1     136.789 132.867 132.053  0.00  0.00    +0.000 C 
ATOM     27  C   UNL     1     134.959 134.593 132.116  0.00  0.00    +0.000 C 
ATOM     28  C   UNL     1     136.916 134.832 130.484  0.00  0.00    +0.000 C 
ENDROOT
BRANCH  17  29
ATOM     29  O   UNL     1     137.405 141.253 141.408  0.00  0.00    +0.000 OA
ATOM     30  H   UNL     1     138.012 141.975 141.144  0.00  0.00    +0.000 HD
ENDBRANCH  17  29
BRANCH  14  32
ATOM     31  O   UNL     1     140.820 131.822 133.692  0.00  0.00    +0.000 OA
ATOM     32  C   UNL     1     140.124 132.829 133.692  0.00  0.00    +0.000 C 
BRANCH  32  33
ATOM     33  O   UNL     1     140.679 134.018 133.367  0.00  0.00    +0.000 OA
ATOM     34  H   UNL     1     140.154 134.345 132.605  0.00  0.00    +0.000 HD
ENDBRANCH  32  33
ENDBRANCH  14  32
BRANCH   9  35
ATOM     35  C   UNL     1     136.168 138.243 141.088  0.00  0.00    +0.000 C 
BRANCH  35  36
ATOM     36  O   UNL     1     134.902 137.823 141.155  0.00  0.00    +0.000 OA
ATOM     37  H   UNL     1     134.400 138.328 141.820  0.00  0.00    +0.000 HD
ENDBRANCH  35  36
ENDBRANCH   9  35
TORSDOF 5
ENDMDL
