MODEL 1
REMARK VINA RESULT:      -8.1      0.000      0.000
REMARK  Name = 73659_MaslinicAcid.pdbqt.pdb
REMARK  4 active torsions:
REMARK  status: ('A' for Active; 'I' for Inactive)
REMARK    1  A    between atoms: C_14  and  C_35
REMARK    2  A    between atoms: C_17  and  O_30
REMARK    3  A    between atoms: C_19  and  O_32
REMARK    4  A    between atoms: C_35  and  O_36
REMARK                            x       y       z     vdW  Elec       q    Type
REMARK                         _______ _______ _______ _____ _____    ______ ____
ROOT
ATOM      1  C   UNL     1     142.564 126.514  96.975  0.00  0.00    +0.000 C 
ATOM      2  C   UNL     1     142.980 125.441  98.069  0.00  0.00    +0.000 C 
ATOM      3  C   UNL     1     142.399 125.412  99.486  0.00  0.00    +0.000 C 
ATOM      4  C   UNL     1     143.857 127.032  96.081  0.00  0.00    +0.000 C 
ATOM      5  C   UNL     1     142.015 126.755 100.117  0.00  0.00    +0.000 C 
ATOM      6  C   UNL     1     141.959 127.617  97.730  0.00  0.00    +0.000 C 
ATOM      7  C   UNL     1     141.682 127.777  99.188  0.00  0.00    +0.000 C 
ATOM      8  C   UNL     1     144.752 125.794  95.527  0.00  0.00    +0.000 C 
ATOM      9  C   UNL     1     142.152 126.957 101.619  0.00  0.00    +0.000 C 
ATOM     10  C   UNL     1     145.314 125.702  94.161  0.00  0.00    +0.000 C 
ATOM     11  C   UNL     1     144.010 124.564  97.602  0.00  0.00    +0.000 C 
ATOM     12  C   UNL     1     143.376 124.857 100.410  0.00  0.00    +0.000 C 
ATOM     13  C   UNL     1     143.471 127.756  94.857  0.00  0.00    +0.000 C 
ATOM     14  C   UNL     1     144.600 126.396  92.844  0.00  0.00    +0.000 C 
ATOM     15  C   UNL     1     141.469 125.825  96.062  0.00  0.00    +0.000 C 
ATOM     16  C   UNL     1     143.822 127.499  93.409  0.00  0.00    +0.000 C 
ATOM     17  C   UNL     1     143.051 125.983 102.421  0.00  0.00    +0.000 C 
ATOM     18  C   UNL     1     141.131 124.527  99.453  0.00  0.00    +0.000 C 
ATOM     19  C   UNL     1     143.797 124.985 101.730  0.00  0.00    +0.000 C 
ATOM     20  C   UNL     1     144.809 124.786  96.350  0.00  0.00    +0.000 C 
ATOM     21  C   UNL     1     144.858 127.919  96.938  0.00  0.00    +0.000 C 
ATOM     22  C   UNL     1     146.751 125.472  94.022  0.00  0.00    +0.000 C 
ATOM     23  C   UNL     1     145.744 126.785  91.977  0.00  0.00    +0.000 C 
ATOM     24  C   UNL     1     147.967 125.739  93.164  0.00  0.00    +0.000 C 
ATOM     25  C   UNL     1     142.791 128.367 101.874  0.00  0.00    +0.000 C 
ATOM     26  C   UNL     1     140.740 126.932 102.272  0.00  0.00    +0.000 C 
ATOM     27  C   UNL     1     147.263 126.493  92.077  0.00  0.00    +0.000 C 
ATOM     28  C   UNL     1     148.589 124.430  92.645  0.00  0.00    +0.000 C 
ATOM     29  C   UNL     1     148.987 126.622  93.904  0.00  0.00    +0.000 C 
ENDROOT
BRANCH  17  30
ATOM     30  O   UNL     1     143.165 126.003 103.809  0.00  0.00    +0.000 OA
ATOM     31  H   UNL     1     144.105 126.023 104.087  0.00  0.00    +0.000 HD
ENDBRANCH  17  30
BRANCH  19  32
ATOM     32  O   UNL     1     144.447 124.002 102.412  0.00  0.00    +0.000 OA
ATOM     33  H   UNL     1     145.394 123.976 102.173  0.00  0.00    +0.000 HD
ENDBRANCH  19  32
BRANCH  14  35
ATOM     34  O   UNL     1     144.140 124.333  91.577  0.00  0.00    +0.000 OA
ATOM     35  C   UNL     1     143.735 125.326  92.167  0.00  0.00    +0.000 C 
BRANCH  35  36
ATOM     36  O   UNL     1     142.408 125.584  92.196  0.00  0.00    +0.000 OA
ATOM     37  H   UNL     1     142.258 126.228  91.469  0.00  0.00    +0.000 HD
ENDBRANCH  35  36
ENDBRANCH  14  35
TORSDOF 4
ENDMDL
MODEL 2
REMARK VINA RESULT:      -7.3      2.720      7.778
REMARK  Name = 73659_MaslinicAcid.pdbqt.pdb
REMARK  4 active torsions:
REMARK  status: ('A' for Active; 'I' for Inactive)
REMARK    1  A    between atoms: C_14  and  C_35
REMARK    2  A    between atoms: C_17  and  O_30
REMARK    3  A    between atoms: C_19  and  O_32
REMARK    4  A    between atoms: C_35  and  O_36
REMARK                            x       y       z     vdW  Elec       q    Type
REMARK                         _______ _______ _______ _____ _____    ______ ____
ROOT
ATOM      1  C   UNL     1     143.551 125.892  94.964  0.00  0.00    +0.000 C 
ATOM      2  C   UNL     1     142.095 126.517  94.848  0.00  0.00    +0.000 C 
ATOM      3  C   UNL     1     141.525 127.094  93.549  0.00  0.00    +0.000 C 
ATOM      4  C   UNL     1     144.297 126.302  96.383  0.00  0.00    +0.000 C 
ATOM      5  C   UNL     1     142.511 127.757  92.581  0.00  0.00    +0.000 C 
ATOM      6  C   UNL     1     144.284 126.412  93.804  0.00  0.00    +0.000 C 
ATOM      7  C   UNL     1     143.847 127.281  92.670  0.00  0.00    +0.000 C 
ATOM      8  C   UNL     1     143.338 126.056  97.671  0.00  0.00    +0.000 C 
ATOM      9  C   UNL     1     142.066 128.936  91.728  0.00  0.00    +0.000 C 
ATOM     10  C   UNL     1     143.778 125.458  98.951  0.00  0.00    +0.000 C 
ATOM     11  C   UNL     1     141.417 126.546  96.108  0.00  0.00    +0.000 C 
ATOM     12  C   UNL     1     140.570 128.148  93.852  0.00  0.00    +0.000 C 
ATOM     13  C   UNL     1     145.488 125.485  96.676  0.00  0.00    +0.000 C 
ATOM     14  C   UNL     1     145.003 124.356  99.057  0.00  0.00    +0.000 C 
ATOM     15  C   UNL     1     143.381 124.324  94.832  0.00  0.00    +0.000 C 
ATOM     16  C   UNL     1     145.827 124.636  97.881  0.00  0.00    +0.000 C 
ATOM     17  C   UNL     1     140.785 129.707  92.138  0.00  0.00    +0.000 C 
ATOM     18  C   UNL     1     140.826 125.940  92.791  0.00  0.00    +0.000 C 
ATOM     19  C   UNL     1     140.111 129.358  93.343  0.00  0.00    +0.000 C 
ATOM     20  C   UNL     1     142.079 126.289  97.432  0.00  0.00    +0.000 C 
ATOM     21  C   UNL     1     144.677 127.844  96.435  0.00  0.00    +0.000 C 
ATOM     22  C   UNL     1     143.523 126.203 100.183  0.00  0.00    +0.000 C 
ATOM     23  C   UNL     1     145.632 124.643 100.373  0.00  0.00    +0.000 C 
ATOM     24  C   UNL     1     144.032 126.497 101.576  0.00  0.00    +0.000 C 
ATOM     25  C   UNL     1     143.194 130.025  91.756  0.00  0.00    +0.000 C 
ATOM     26  C   UNL     1     141.874 128.463  90.258  0.00  0.00    +0.000 C 
ATOM     27  C   UNL     1     145.216 125.580 101.536  0.00  0.00    +0.000 C 
ATOM     28  C   UNL     1     143.013 126.075 102.649  0.00  0.00    +0.000 C 
ATOM     29  C   UNL     1     144.456 127.972 101.713  0.00  0.00    +0.000 C 
ENDROOT
BRANCH  17  30
ATOM     30  O   UNL     1     140.222 130.728  91.375  0.00  0.00    +0.000 OA
ATOM     31  H   UNL     1     140.320 131.596  91.820  0.00  0.00    +0.000 HD
ENDBRANCH  17  30
BRANCH  19  32
ATOM     32  O   UNL     1     138.890 129.885  93.637  0.00  0.00    +0.000 OA
ATOM     33  H   UNL     1     138.544 130.408  92.888  0.00  0.00    +0.000 HD
ENDBRANCH  19  32
BRANCH  14  35
ATOM     34  O   UNL     1     143.769 122.447  98.106  0.00  0.00    +0.000 OA
ATOM     35  C   UNL     1     144.373 122.959  99.039  0.00  0.00    +0.000 C 
BRANCH  35  36
ATOM     36  O   UNL     1     144.462 122.295 100.214  0.00  0.00    +0.000 OA
ATOM     37  H   UNL     1     143.718 122.637 100.757  0.00  0.00    +0.000 HD
ENDBRANCH  35  36
ENDBRANCH  14  35
TORSDOF 4
ENDMDL
MODEL 3
REMARK VINA RESULT:      -6.9     14.922     20.531
REMARK  Name = 73659_MaslinicAcid.pdbqt.pdb
REMARK  4 active torsions:
REMARK  status: ('A' for Active; 'I' for Inactive)
REMARK    1  A    between atoms: C_14  and  C_35
REMARK    2  A    between atoms: C_17  and  O_30
REMARK    3  A    between atoms: C_19  and  O_32
REMARK    4  A    between atoms: C_35  and  O_36
REMARK                            x       y       z     vdW  Elec       q    Type
REMARK                         _______ _______ _______ _____ _____    ______ ____
ROOT
ATOM      1  C   UNL     1     142.784 114.172 111.545  0.00  0.00    +0.000 C 
ATOM      2  C   UNL     1     141.983 113.845 110.213  0.00  0.00    +0.000 C 
ATOM      3  C   UNL     1     142.634 113.800 108.827  0.00  0.00    +0.000 C 
ATOM      4  C   UNL     1     141.919 115.137 112.575  0.00  0.00    +0.000 C 
ATOM      5  C   UNL     1     143.811 114.749 108.571  0.00  0.00    +0.000 C 
ATOM      6  C   UNL     1     144.016 114.833 111.100  0.00  0.00    +0.000 C 
ATOM      7  C   UNL     1     144.538 115.124 109.732  0.00  0.00    +0.000 C 
ATOM      8  C   UNL     1     140.405 114.592 112.797  0.00  0.00    +0.000 C 
ATOM      9  C   UNL     1     144.032 115.330 107.182  0.00  0.00    +0.000 C 
ATOM     10  C   UNL     1     139.707 114.543 114.101  0.00  0.00    +0.000 C 
ATOM     11  C   UNL     1     140.583 113.677 110.451  0.00  0.00    +0.000 C 
ATOM     12  C   UNL     1     141.661 114.167 107.811  0.00  0.00    +0.000 C 
ATOM     13  C   UNL     1     142.475 115.185 113.940  0.00  0.00    +0.000 C 
ATOM     14  C   UNL     1     140.494 114.350 115.539  0.00  0.00    +0.000 C 
ATOM     15  C   UNL     1     143.133 112.781 112.214  0.00  0.00    +0.000 C 
ATOM     16  C   UNL     1     141.838 114.864 115.273  0.00  0.00    +0.000 C 
ATOM     17  C   UNL     1     142.859 115.300 106.169  0.00  0.00    +0.000 C 
ATOM     18  C   UNL     1     143.135 112.355 108.592  0.00  0.00    +0.000 C 
ATOM     19  C   UNL     1     141.585 114.819 106.584  0.00  0.00    +0.000 C 
ATOM     20  C   UNL     1     139.892 114.038 111.735  0.00  0.00    +0.000 C 
ATOM     21  C   UNL     1     141.751 116.613 112.011  0.00  0.00    +0.000 C 
ATOM     22  C   UNL     1     138.400 115.191 114.206  0.00  0.00    +0.000 C 
ATOM     23  C   UNL     1     139.679 115.134 116.504  0.00  0.00    +0.000 C 
ATOM     24  C   UNL     1     137.457 115.925 115.132  0.00  0.00    +0.000 C 
ATOM     25  C   UNL     1     144.373 116.854 107.329  0.00  0.00    +0.000 C 
ATOM     26  C   UNL     1     145.243 114.618 106.514  0.00  0.00    +0.000 C 
ATOM     27  C   UNL     1     138.304 115.837 116.365  0.00  0.00    +0.000 C 
ATOM     28  C   UNL     1     136.125 115.170 115.295  0.00  0.00    +0.000 C 
ATOM     29  C   UNL     1     137.256 117.383 114.680  0.00  0.00    +0.000 C 
ENDROOT
BRANCH  17  30
ATOM     30  O   UNL     1     142.978 115.701 104.840  0.00  0.00    +0.000 OA
ATOM     31  H   UNL     1     142.108 115.690 104.389  0.00  0.00    +0.000 HD
ENDBRANCH  17  30
BRANCH  19  32
ATOM     32  O   UNL     1     140.590 114.606 105.679  0.00  0.00    +0.000 OA
ATOM     33  H   UNL     1     139.880 115.269 105.775  0.00  0.00    +0.000 HD
ENDBRANCH  19  32
BRANCH  14  35
ATOM     34  O   UNL     1     139.586 112.265 116.486  0.00  0.00    +0.000 OA
ATOM     35  C   UNL     1     140.472 112.856 115.883  0.00  0.00    +0.000 C 
BRANCH  35  36
ATOM     36  O   UNL     1     141.590 112.187 115.524  0.00  0.00    +0.000 OA
ATOM     37  H   UNL     1     141.292 111.267 115.352  0.00  0.00    +0.000 HD
ENDBRANCH  35  36
ENDBRANCH  14  35
TORSDOF 4
ENDMDL
MODEL 4
REMARK VINA RESULT:      -6.7     17.716     22.261
REMARK  Name = 73659_MaslinicAcid.pdbqt.pdb
REMARK  4 active torsions:
REMARK  status: ('A' for Active; 'I' for Inactive)
REMARK    1  A    between atoms: C_14  and  C_35
REMARK    2  A    between atoms: C_17  and  O_30
REMARK    3  A    between atoms: C_19  and  O_32
REMARK    4  A    between atoms: C_35  and  O_36
REMARK                            x       y       z     vdW  Elec       q    Type
REMARK                         _______ _______ _______ _____ _____    ______ ____
ROOT
ATOM      1  C   UNL     1     149.262 112.733 113.557  0.00  0.00    +0.000 C 
ATOM      2  C   UNL     1     149.739 113.780 114.653  0.00  0.00    +0.000 C 
ATOM      3  C   UNL     1     150.817 113.478 115.697  0.00  0.00    +0.000 C 
ATOM      4  C   UNL     1     147.625 112.780 113.316  0.00  0.00    +0.000 C 
ATOM      5  C   UNL     1     150.925 112.033 116.200  0.00  0.00    +0.000 C 
ATOM      6  C   UNL     1     149.690 111.425 114.066  0.00  0.00    +0.000 C 
ATOM      7  C   UNL     1     150.464 111.048 115.286  0.00  0.00    +0.000 C 
ATOM      8  C   UNL     1     147.083 114.296 113.100  0.00  0.00    +0.000 C 
ATOM      9  C   UNL     1     151.352 111.757 117.633  0.00  0.00    +0.000 C 
ATOM     10  C   UNL     1     146.084 114.701 112.087  0.00  0.00    +0.000 C 
ATOM     11  C   UNL     1     148.991 114.999 114.596  0.00  0.00    +0.000 C 
ATOM     12  C   UNL     1     150.570 114.251 116.903  0.00  0.00    +0.000 C 
ATOM     13  C   UNL     1     147.193 112.080 112.092  0.00  0.00    +0.000 C 
ATOM     14  C   UNL     1     145.900 113.924 110.642  0.00  0.00    +0.000 C 
ATOM     15  C   UNL     1     150.052 113.077 112.230  0.00  0.00    +0.000 C 
ATOM     16  C   UNL     1     146.396 112.574 110.906  0.00  0.00    +0.000 C 
ATOM     17  C   UNL     1     151.268 112.906 118.669  0.00  0.00    +0.000 C 
ATOM     18  C   UNL     1     152.184 113.865 115.083  0.00  0.00    +0.000 C 
ATOM     19  C   UNL     1     150.711 114.159 118.283  0.00  0.00    +0.000 C 
ATOM     20  C   UNL     1     147.728 115.183 113.805  0.00  0.00    +0.000 C 
ATOM     21  C   UNL     1     146.820 112.224 114.567  0.00  0.00    +0.000 C 
ATOM     22  C   UNL     1     144.899 115.428 112.540  0.00  0.00    +0.000 C 
ATOM     23  C   UNL     1     144.445 114.037 110.354  0.00  0.00    +0.000 C 
ATOM     24  C   UNL     1     143.431 115.680 112.282  0.00  0.00    +0.000 C 
ATOM     25  C   UNL     1     150.421 110.640 118.223  0.00  0.00    +0.000 C 
ATOM     26  C   UNL     1     152.816 111.230 117.640  0.00  0.00    +0.000 C 
ATOM     27  C   UNL     1     143.312 114.830 111.053  0.00  0.00    +0.000 C 
ATOM     28  C   UNL     1     143.158 117.165 111.981  0.00  0.00    +0.000 C 
ATOM     29  C   UNL     1     142.563 115.144 113.435  0.00  0.00    +0.000 C 
ENDROOT
BRANCH  17  30
ATOM     30  O   UNL     1     151.734 112.802 119.978  0.00  0.00    +0.000 OA
ATOM     31  H   UNL     1     151.235 112.121 120.477  0.00  0.00    +0.000 HD
ENDBRANCH  17  30
BRANCH  19  32
ATOM     32  O   UNL     1     150.790 115.241 119.106  0.00  0.00    +0.000 OA
ATOM     33  H   UNL     1     149.938 115.718 119.143  0.00  0.00    +0.000 HD
ENDBRANCH  19  32
BRANCH  14  35
ATOM     34  O   UNL     1     147.939 114.866 109.627  0.00  0.00    +0.000 OA
ATOM     35  C   UNL     1     146.729 114.683 109.598  0.00  0.00    +0.000 C 
BRANCH  35  36
ATOM     36  O   UNL     1     145.998 115.241 108.607  0.00  0.00    +0.000 OA
ATOM     37  H   UNL     1     145.205 114.667 108.521  0.00  0.00    +0.000 HD
ENDBRANCH  35  36
ENDBRANCH  14  35
TORSDOF 4
ENDMDL
MODEL 5
REMARK VINA RESULT:      -6.5     29.186     33.592
REMARK  Name = 73659_MaslinicAcid.pdbqt.pdb
REMARK  4 active torsions:
REMARK  status: ('A' for Active; 'I' for Inactive)
REMARK    1  A    between atoms: C_14  and  C_35
REMARK    2  A    between atoms: C_17  and  O_30
REMARK    3  A    between atoms: C_19  and  O_32
REMARK    4  A    between atoms: C_35  and  O_36
REMARK                            x       y       z     vdW  Elec       q    Type
REMARK                         _______ _______ _______ _____ _____    ______ ____
ROOT
ATOM      1  C   UNL     1     150.205 138.833 127.705  0.00  0.00    +0.000 C 
ATOM      2  C   UNL     1     148.639 138.889 127.966  0.00  0.00    +0.000 C 
ATOM      3  C   UNL     1     147.970 139.935 128.862  0.00  0.00    +0.000 C 
ATOM      4  C   UNL     1     150.780 137.281 127.679  0.00  0.00    +0.000 C 
ATOM      5  C   UNL     1     148.770 140.448 130.065  0.00  0.00    +0.000 C 
ATOM      6  C   UNL     1     150.803 139.608 128.797  0.00  0.00    +0.000 C 
ATOM      7  C   UNL     1     150.181 140.376 129.917  0.00  0.00    +0.000 C 
ATOM      8  C   UNL     1     149.888 136.313 126.727  0.00  0.00    +0.000 C 
ATOM      9  C   UNL     1     148.051 140.843 131.345  0.00  0.00    +0.000 C 
ATOM     10  C   UNL     1     150.438 135.309 125.790  0.00  0.00    +0.000 C 
ATOM     11  C   UNL     1     147.946 137.808 127.334  0.00  0.00    +0.000 C 
ATOM     12  C   UNL     1     146.763 139.381 129.455  0.00  0.00    +0.000 C 
ATOM     13  C   UNL     1     152.137 137.169 127.114  0.00  0.00    +0.000 C 
ATOM     14  C   UNL     1     151.907 135.472 125.054  0.00  0.00    +0.000 C 
ATOM     15  C   UNL     1     150.458 139.566 126.325  0.00  0.00    +0.000 C 
ATOM     16  C   UNL     1     152.657 136.340 125.961  0.00  0.00    +0.000 C 
ATOM     17  C   UNL     1     146.602 140.339 131.570  0.00  0.00    +0.000 C 
ATOM     18  C   UNL     1     147.620 141.154 127.975  0.00  0.00    +0.000 C 
ATOM     19  C   UNL     1     146.014 139.450 130.625  0.00  0.00    +0.000 C 
ATOM     20  C   UNL     1     148.618 136.605 126.735  0.00  0.00    +0.000 C 
ATOM     21  C   UNL     1     150.738 136.604 129.116  0.00  0.00    +0.000 C 
ATOM     22  C   UNL     1     149.965 133.930 125.903  0.00  0.00    +0.000 C 
ATOM     23  C   UNL     1     152.406 134.076 124.933  0.00  0.00    +0.000 C 
ATOM     24  C   UNL     1     150.343 132.477 125.730  0.00  0.00    +0.000 C 
ATOM     25  C   UNL     1     148.851 140.264 132.564  0.00  0.00    +0.000 C 
ATOM     26  C   UNL     1     148.028 142.394 131.465  0.00  0.00    +0.000 C 
ATOM     27  C   UNL     1     151.728 132.708 125.206  0.00  0.00    +0.000 C 
ATOM     28  C   UNL     1     149.445 131.780 124.692  0.00  0.00    +0.000 C 
ATOM     29  C   UNL     1     150.359 131.741 127.083  0.00  0.00    +0.000 C 
ENDROOT
BRANCH  17  30
ATOM     30  O   UNL     1     145.809 140.725 132.648  0.00  0.00    +0.000 OA
ATOM     31  H   UNL     1     145.625 141.687 132.624  0.00  0.00    +0.000 HD
ENDBRANCH  17  30
BRANCH  19  32
ATOM     32  O   UNL     1     144.691 139.137 130.692  0.00  0.00    +0.000 OA
ATOM     33  H   UNL     1     144.470 138.411 130.077  0.00  0.00    +0.000 HD
ENDBRANCH  19  32
BRANCH  14  35
ATOM     34  O   UNL     1     152.152 137.138 123.256  0.00  0.00    +0.000 OA
ATOM     35  C   UNL     1     151.669 136.094 123.674  0.00  0.00    +0.000 C 
BRANCH  35  36
ATOM     36  O   UNL     1     150.780 135.422 122.908  0.00  0.00    +0.000 OA
ATOM     37  H   UNL     1     150.277 134.859 123.536  0.00  0.00    +0.000 HD
ENDBRANCH  35  36
ENDBRANCH  14  35
TORSDOF 4
ENDMDL
MODEL 6
REMARK VINA RESULT:      -6.5     37.384     42.051
REMARK  Name = 73659_MaslinicAcid.pdbqt.pdb
REMARK  4 active torsions:
REMARK  status: ('A' for Active; 'I' for Inactive)
REMARK    1  A    between atoms: C_14  and  C_35
REMARK    2  A    between atoms: C_17  and  O_30
REMARK    3  A    between atoms: C_19  and  O_32
REMARK    4  A    between atoms: C_35  and  O_36
REMARK                            x       y       z     vdW  Elec       q    Type
REMARK                         _______ _______ _______ _____ _____    ______ ____
ROOT
ATOM      1  C   UNL     1     131.350 120.456 137.701  0.00  0.00    +0.000 C 
ATOM      2  C   UNL     1     130.312 121.606 137.354  0.00  0.00    +0.000 C 
ATOM      3  C   UNL     1     128.812 121.506 137.646  0.00  0.00    +0.000 C 
ATOM      4  C   UNL     1     132.487 120.259 136.514  0.00  0.00    +0.000 C 
ATOM      5  C   UNL     1     128.172 120.115 137.572  0.00  0.00    +0.000 C 
ATOM      6  C   UNL     1     130.538 119.245 137.871  0.00  0.00    +0.000 C 
ATOM      7  C   UNL     1     129.061 119.035 137.821  0.00  0.00    +0.000 C 
ATOM      8  C   UNL     1     133.151 121.671 136.062  0.00  0.00    +0.000 C 
ATOM      9  C   UNL     1     126.731 119.964 137.110  0.00  0.00    +0.000 C 
ATOM     10  C   UNL     1     134.592 121.885 135.807  0.00  0.00    +0.000 C 
ATOM     11  C   UNL     1     130.928 122.703 136.671  0.00  0.00    +0.000 C 
ATOM     12  C   UNL     1     128.064 122.287 136.674  0.00  0.00    +0.000 C 
ATOM     13  C   UNL     1     133.645 119.452 136.940  0.00  0.00    +0.000 C 
ATOM     14  C   UNL     1     135.779 121.029 136.570  0.00  0.00    +0.000 C 
ATOM     15  C   UNL     1     132.018 120.852 139.080  0.00  0.00    +0.000 C 
ATOM     16  C   UNL     1     135.122 119.775 136.940  0.00  0.00    +0.000 C 
ATOM     17  C   UNL     1     126.072 121.133 136.334  0.00  0.00    +0.000 C 
ATOM     18  C   UNL     1     128.576 122.057 139.072  0.00  0.00    +0.000 C 
ATOM     19  C   UNL     1     126.852 122.276 135.993  0.00  0.00    +0.000 C 
ATOM     20  C   UNL     1     132.314 122.670 136.093  0.00  0.00    +0.000 C 
ATOM     21  C   UNL     1     131.865 119.647 135.186  0.00  0.00    +0.000 C 
ATOM     22  C   UNL     1     134.986 122.455 134.520  0.00  0.00    +0.000 C 
ATOM     23  C   UNL     1     136.857 120.920 135.551  0.00  0.00    +0.000 C 
ATOM     24  C   UNL     1     136.064 122.483 133.460  0.00  0.00    +0.000 C 
ATOM     25  C   UNL     1     126.651 118.752 136.116  0.00  0.00    +0.000 C 
ATOM     26  C   UNL     1     125.827 119.653 138.337  0.00  0.00    +0.000 C 
ATOM     27  C   UNL     1     137.030 121.572 134.155  0.00  0.00    +0.000 C 
ATOM     28  C   UNL     1     136.639 123.899 133.278  0.00  0.00    +0.000 C 
ATOM     29  C   UNL     1     135.559 121.878 132.137  0.00  0.00    +0.000 C 
ENDROOT
BRANCH  17  30
ATOM     30  O   UNL     1     124.731 121.152 135.959  0.00  0.00    +0.000 OA
ATOM     31  H   UNL     1     124.200 120.545 136.516  0.00  0.00    +0.000 HD
ENDBRANCH  17  30
BRANCH  19  32
ATOM     32  O   UNL     1     126.265 123.392 135.480  0.00  0.00    +0.000 OA
ATOM     33  H   UNL     1     125.754 123.182 134.674  0.00  0.00    +0.000 HD
ENDBRANCH  19  32
BRANCH  14  35
ATOM     34  O   UNL     1     135.585 122.691 138.378  0.00  0.00    +0.000 OA
ATOM     35  C   UNL     1     136.243 121.852 137.777  0.00  0.00    +0.000 C 
BRANCH  35  36
ATOM     36  O   UNL     1     137.531 121.643 138.131  0.00  0.00    +0.000 OA
ATOM     37  H   UNL     1     137.490 121.283 139.044  0.00  0.00    +0.000 HD
ENDBRANCH  35  36
ENDBRANCH  14  35
TORSDOF 4
ENDMDL
MODEL 7
REMARK VINA RESULT:      -6.4     15.327     19.802
REMARK  Name = 73659_MaslinicAcid.pdbqt.pdb
REMARK  4 active torsions:
REMARK  status: ('A' for Active; 'I' for Inactive)
REMARK    1  A    between atoms: C_14  and  C_35
REMARK    2  A    between atoms: C_17  and  O_30
REMARK    3  A    between atoms: C_19  and  O_32
REMARK    4  A    between atoms: C_35  and  O_36
REMARK                            x       y       z     vdW  Elec       q    Type
REMARK                         _______ _______ _______ _____ _____    ______ ____
ROOT
ATOM      1  C   UNL     1     140.582 114.353 113.644  0.00  0.00    +0.000 C 
ATOM      2  C   UNL     1     139.564 115.572 113.616  0.00  0.00    +0.000 C 
ATOM      3  C   UNL     1     138.261 115.601 114.420  0.00  0.00    +0.000 C 
ATOM      4  C   UNL     1     141.211 114.028 112.148  0.00  0.00    +0.000 C 
ATOM      5  C   UNL     1     137.548 114.265 114.656  0.00  0.00    +0.000 C 
ATOM      6  C   UNL     1     139.806 113.218 114.157  0.00  0.00    +0.000 C 
ATOM      7  C   UNL     1     138.396 113.125 114.639  0.00  0.00    +0.000 C 
ATOM      8  C   UNL     1     141.761 115.367 111.411  0.00  0.00    +0.000 C 
ATOM      9  C   UNL     1     136.030 114.216 114.736  0.00  0.00    +0.000 C 
ATOM     10  C   UNL     1     143.030 115.457 110.656  0.00  0.00    +0.000 C 
ATOM     11  C   UNL     1     139.968 116.593 112.699  0.00  0.00    +0.000 C 
ATOM     12  C   UNL     1     137.270 116.409 113.728  0.00  0.00    +0.000 C 
ATOM     13  C   UNL     1     142.391 113.144 112.187  0.00  0.00    +0.000 C 
ATOM     14  C   UNL     1     144.352 114.532 111.004  0.00  0.00    +0.000 C 
ATOM     15  C   UNL     1     141.717 114.737 114.677  0.00  0.00    +0.000 C 
ATOM     16  C   UNL     1     143.790 113.348 111.652  0.00  0.00    +0.000 C 
ATOM     17  C   UNL     1     135.216 115.409 114.174  0.00  0.00    +0.000 C 
ATOM     18  C   UNL     1     138.580 116.215 115.804  0.00  0.00    +0.000 C 
ATOM     19  C   UNL     1     135.897 116.474 113.517  0.00  0.00    +0.000 C 
ATOM     20  C   UNL     1     141.055 116.430 111.675  0.00  0.00    +0.000 C 
ATOM     21  C   UNL     1     140.122 113.426 111.160  0.00  0.00    +0.000 C 
ATOM     22  C   UNL     1     142.979 115.952 109.281  0.00  0.00    +0.000 C 
ATOM     23  C   UNL     1     144.991 114.305 109.680  0.00  0.00    +0.000 C 
ATOM     24  C   UNL     1     143.613 115.860 107.911  0.00  0.00    +0.000 C 
ATOM     25  C   UNL     1     135.527 112.983 113.905  0.00  0.00    +0.000 C 
ATOM     26  C   UNL     1     135.600 114.017 116.218  0.00  0.00    +0.000 C 
ATOM     27  C   UNL     1     144.701 114.897 108.277  0.00  0.00    +0.000 C 
ATOM     28  C   UNL     1     144.176 117.219 107.458  0.00  0.00    +0.000 C 
ATOM     29  C   UNL     1     142.635 115.256 106.886  0.00  0.00    +0.000 C 
ENDROOT
BRANCH  17  30
ATOM     30  O   UNL     1     133.833 115.524 114.292  0.00  0.00    +0.000 OA
ATOM     31  H   UNL     1     133.545 115.389 115.218  0.00  0.00    +0.000 HD
ENDBRANCH  17  30
BRANCH  19  32
ATOM     32  O   UNL     1     135.239 117.617 113.177  0.00  0.00    +0.000 OA
ATOM     33  H   UNL     1     135.184 118.229 113.937  0.00  0.00    +0.000 HD
ENDBRANCH  19  32
BRANCH  14  35
ATOM     34  O   UNL     1     146.477 115.481 111.814  0.00  0.00    +0.000 OA
ATOM     35  C   UNL     1     145.265 115.353 111.922  0.00  0.00    +0.000 C 
BRANCH  35  36
ATOM     36  O   UNL     1     144.630 115.917 112.975  0.00  0.00    +0.000 OA
ATOM     37  H   UNL     1     143.912 115.288 113.206  0.00  0.00    +0.000 HD
ENDBRANCH  35  36
ENDBRANCH  14  35
TORSDOF 4
ENDMDL
MODEL 8
REMARK VINA RESULT:      -6.3     14.567     18.167
REMARK  Name = 73659_MaslinicAcid.pdbqt.pdb
REMARK  4 active torsions:
REMARK  status: ('A' for Active; 'I' for Inactive)
REMARK    1  A    between atoms: C_14  and  C_35
REMARK    2  A    between atoms: C_17  and  O_30
REMARK    3  A    between atoms: C_19  and  O_32
REMARK    4  A    between atoms: C_35  and  O_36
REMARK                            x       y       z     vdW  Elec       q    Type
REMARK                         _______ _______ _______ _____ _____    ______ ____
ROOT
ATOM      1  C   UNL     1     144.977 114.376 111.597  0.00  0.00    +0.000 C 
ATOM      2  C   UNL     1     143.765 115.396 111.475  0.00  0.00    +0.000 C 
ATOM      3  C   UNL     1     142.792 115.691 112.620  0.00  0.00    +0.000 C 
ATOM      4  C   UNL     1     145.176 113.474 110.224  0.00  0.00    +0.000 C 
ATOM      5  C   UNL     1     142.483 114.547 113.594  0.00  0.00    +0.000 C 
ATOM      6  C   UNL     1     144.651 113.530 112.750  0.00  0.00    +0.000 C 
ATOM      7  C   UNL     1     143.507 113.569 113.709  0.00  0.00    +0.000 C 
ATOM      8  C   UNL     1     145.181 114.392 108.883  0.00  0.00    +0.000 C 
ATOM      9  C   UNL     1     141.107 114.443 114.234  0.00  0.00    +0.000 C 
ATOM     10  C   UNL     1     146.113 114.224 107.746  0.00  0.00    +0.000 C 
ATOM     11  C   UNL     1     143.647 115.941 110.157  0.00  0.00    +0.000 C 
ATOM     12  C   UNL     1     141.491 116.054 112.083  0.00  0.00    +0.000 C 
ATOM     13  C   UNL     1     146.471 112.770 110.167  0.00  0.00    +0.000 C 
ATOM     14  C   UNL     1     147.642 113.626 107.915  0.00  0.00    +0.000 C 
ATOM     15  C   UNL     1     146.264 115.241 111.912  0.00  0.00    +0.000 C 
ATOM     16  C   UNL     1     147.566 112.808 109.125  0.00  0.00    +0.000 C 
ATOM     17  C   UNL     1     139.929 115.221 113.594  0.00  0.00    +0.000 C 
ATOM     18  C   UNL     1     143.379 116.862 113.442  0.00  0.00    +0.000 C 
ATOM     19  C   UNL     1     140.137 115.935 112.379  0.00  0.00    +0.000 C 
ATOM     20  C   UNL     1     144.381 115.418 108.955  0.00  0.00    +0.000 C 
ATOM     21  C   UNL     1     143.991 112.437 110.013  0.00  0.00    +0.000 C 
ATOM     22  C   UNL     1     145.544 114.069 106.408  0.00  0.00    +0.000 C 
ATOM     23  C   UNL     1     147.882 112.887 106.647  0.00  0.00    +0.000 C 
ATOM     24  C   UNL     1     145.737 113.431 105.051  0.00  0.00    +0.000 C 
ATOM     25  C   UNL     1     140.648 112.944 114.185  0.00  0.00    +0.000 C 
ATOM     26  C   UNL     1     141.199 114.881 115.723  0.00  0.00    +0.000 C 
ATOM     27  C   UNL     1     147.062 112.792 105.334  0.00  0.00    +0.000 C 
ATOM     28  C   UNL     1     145.836 114.491 103.939  0.00  0.00    +0.000 C 
ATOM     29  C   UNL     1     144.645 112.383 104.769  0.00  0.00    +0.000 C 
ENDROOT
BRANCH  17  30
ATOM     30  O   UNL     1     138.655 115.289 114.153  0.00  0.00    +0.000 OA
ATOM     31  H   UNL     1     138.408 114.439 114.573  0.00  0.00    +0.000 HD
ENDBRANCH  17  30
BRANCH  19  32
ATOM     32  O   UNL     1     139.182 116.774 111.891  0.00  0.00    +0.000 OA
ATOM     33  H   UNL     1     138.919 117.435 112.561  0.00  0.00    +0.000 HD
ENDBRANCH  19  32
BRANCH  14  35
ATOM     34  O   UNL     1     148.325 115.992 107.818  0.00  0.00    +0.000 OA
ATOM     35  C   UNL     1     148.595 114.820 108.046  0.00  0.00    +0.000 C 
BRANCH  35  36
ATOM     36  O   UNL     1     149.861 114.486 108.385  0.00  0.00    +0.000 OA
ATOM     37  H   UNL     1     150.131 113.809 107.726  0.00  0.00    +0.000 HD
ENDBRANCH  35  36
ENDBRANCH  14  35
TORSDOF 4
ENDMDL
MODEL 9
REMARK VINA RESULT:      -6.3     26.130     30.379
REMARK  Name = 73659_MaslinicAcid.pdbqt.pdb
REMARK  4 active torsions:
REMARK  status: ('A' for Active; 'I' for Inactive)
REMARK    1  A    between atoms: C_14  and  C_35
REMARK    2  A    between atoms: C_17  and  O_30
REMARK    3  A    between atoms: C_19  and  O_32
REMARK    4  A    between atoms: C_35  and  O_36
REMARK                            x       y       z     vdW  Elec       q    Type
REMARK                         _______ _______ _______ _____ _____    ______ ____
ROOT
ATOM      1  C   UNL     1     156.585 131.901 123.780  0.00  0.00    +0.000 C 
ATOM      2  C   UNL     1     156.334 130.772 122.691  0.00  0.00    +0.000 C 
ATOM      3  C   UNL     1     157.368 130.377 121.631  0.00  0.00    +0.000 C 
ATOM      4  C   UNL     1     155.240 132.829 124.040  0.00  0.00    +0.000 C 
ATOM      5  C   UNL     1     158.299 131.478 121.111  0.00  0.00    +0.000 C 
ATOM      6  C   UNL     1     157.695 132.702 123.252  0.00  0.00    +0.000 C 
ATOM      7  C   UNL     1     158.523 132.548 122.019  0.00  0.00    +0.000 C 
ATOM      8  C   UNL     1     153.911 131.927 124.278  0.00  0.00    +0.000 C 
ATOM      9  C   UNL     1     158.785 131.446 119.670  0.00  0.00    +0.000 C 
ATOM     10  C   UNL     1     152.881 132.192 125.307  0.00  0.00    +0.000 C 
ATOM     11  C   UNL     1     155.013 130.230 122.769  0.00  0.00    +0.000 C 
ATOM     12  C   UNL     1     156.693 129.896 120.436  0.00  0.00    +0.000 C 
ATOM     13  C   UNL     1     155.323 133.653 125.260  0.00  0.00    +0.000 C 
ATOM     14  C   UNL     1     153.214 132.931 126.746  0.00  0.00    +0.000 C 
ATOM     15  C   UNL     1     157.040 131.159 125.102  0.00  0.00    +0.000 C 
ATOM     16  C   UNL     1     154.408 133.727 126.461  0.00  0.00    +0.000 C 
ATOM     17  C   UNL     1     158.023 130.565 118.648  0.00  0.00    +0.000 C 
ATOM     18  C   UNL     1     158.251 129.259 122.234  0.00  0.00    +0.000 C 
ATOM     19  C   UNL     1     156.839 129.884 119.054  0.00  0.00    +0.000 C 
ATOM     20  C   UNL     1     153.897 130.829 123.576  0.00  0.00    +0.000 C 
ATOM     21  C   UNL     1     154.900 133.752 122.792  0.00  0.00    +0.000 C 
ATOM     22  C   UNL     1     151.489 132.304 124.875  0.00  0.00    +0.000 C 
ATOM     23  C   UNL     1     151.978 133.699 127.051  0.00  0.00    +0.000 C 
ATOM     24  C   UNL     1     150.159 132.968 125.153  0.00  0.00    +0.000 C 
ATOM     25  C   UNL     1     158.684 132.895 119.079  0.00  0.00    +0.000 C 
ATOM     26  C   UNL     1     160.277 131.006 119.641  0.00  0.00    +0.000 C 
ATOM     27  C   UNL     1     150.584 133.728 126.373  0.00  0.00    +0.000 C 
ATOM     28  C   UNL     1     149.067 131.932 125.472  0.00  0.00    +0.000 C 
ATOM     29  C   UNL     1     149.758 133.911 124.003  0.00  0.00    +0.000 C 
ENDROOT
BRANCH  17  30
ATOM     30  O   UNL     1     158.440 130.372 117.333  0.00  0.00    +0.000 OA
ATOM     31  H   UNL     1     157.783 129.849 116.827  0.00  0.00    +0.000 HD
ENDBRANCH  17  30
BRANCH  19  32
ATOM     32  O   UNL     1     156.252 128.962 118.241  0.00  0.00    +0.000 OA
ATOM     33  H   UNL     1     156.426 128.054 118.557  0.00  0.00    +0.000 HD
ENDBRANCH  19  32
BRANCH  14  35
ATOM     34  O   UNL     1     154.525 131.526 128.287  0.00  0.00    +0.000 OA
ATOM     35  C   UNL     1     153.451 131.831 127.788  0.00  0.00    +0.000 C 
BRANCH  35  36
ATOM     36  O   UNL     1     152.347 131.117 128.101  0.00  0.00    +0.000 OA
ATOM     37  H   UNL     1     152.406 130.968 129.071  0.00  0.00    +0.000 HD
ENDBRANCH  35  36
ENDBRANCH  14  35
TORSDOF 4
ENDMDL
