MODEL 1
REMARK VINA RESULT:      -5.0      0.000      0.000
REMARK  Name = 76617_Cardol.pdbqt.pdb
REMARK  10 active torsions:
REMARK  status: ('A' for Active; 'I' for Inactive)
REMARK    1  A    between atoms: C_1  and  C_2
REMARK    2  A    between atoms: C_3  and  C_4
REMARK    3  A    between atoms: C_5  and  C_6
REMARK    4  A    between atoms: C_7  and  C_8
REMARK    5  A    between atoms: C_8  and  C_9
REMARK    6  A    between atoms: C_10  and  C_11
REMARK    7  A    between atoms: C_14  and  C_15
REMARK    8  A    between atoms: C_15  and  C_16
REMARK    9  A    between atoms: C_19  and  O_24
REMARK   10  A    between atoms: C_20  and  O_22
REMARK                            x       y       z     vdW  Elec       q    Type
REMARK                         _______ _______ _______ _____ _____    ______ ____
ROOT
ATOM      1  C   UNL     1     135.702 123.473 140.063  0.00  0.00    +0.000 C 
ATOM      2  C   UNL     1     135.525 122.780 139.099  0.00  0.00    +0.000 C 
ENDROOT
BRANCH   1   3
ATOM      3  C   UNL     1     135.928 124.357 141.293  0.00  0.00    +0.000 C 
ATOM      4  C   UNL     1     136.154 125.243 142.522  0.00  0.00    +0.000 C 
BRANCH   4   5
ATOM      5  C   UNL     1     136.379 126.128 143.752  0.00  0.00    +0.000 C 
ATOM      6  C   UNL     1     136.602 127.013 144.982  0.00  0.00    +0.000 C 
BRANCH   6   7
ATOM      7  C   UNL     1     136.826 127.898 146.212  0.00  0.00    +0.000 C 
ATOM      8  C   UNL     1     137.050 128.783 147.441  0.00  0.00    +0.000 C 
BRANCH   8   9
ATOM      9  C   UNL     1     137.274 129.668 148.671  0.00  0.00    +0.000 C 
BRANCH   9  10
ATOM     10  C   UNL     1     137.498 130.553 149.901  0.00  0.00    +0.000 C 
ATOM     11  C   UNL     1     137.719 131.437 151.132  0.00  0.00    +0.000 C 
BRANCH  11  12
ATOM     12  C   UNL     1     137.941 132.322 152.362  0.00  0.00    +0.000 C 
ATOM     13  C   UNL     1     138.164 133.207 153.592  0.00  0.00    +0.000 C 
ATOM     14  C   UNL     1     138.387 134.092 154.822  0.00  0.00    +0.000 C 
ENDBRANCH  11  12
ENDBRANCH   9  10
ENDBRANCH   8   9
ENDBRANCH   6   7
ENDBRANCH   4   5
ENDBRANCH   1   3
BRANCH   2  15
ATOM     15  C   UNL     1     135.297 121.895 137.870  0.00  0.00    +0.000 C 
BRANCH  15  16
ATOM     16  C   UNL     1     135.086 121.073 136.726  0.00  0.00    +0.000 A 
ATOM     17  C   UNL     1     136.123 120.280 136.240  0.00  0.00    +0.000 A 
ATOM     18  C   UNL     1     133.842 121.065 136.099  0.00  0.00    +0.000 A 
ATOM     19  C   UNL     1     133.644 120.257 134.981  0.00  0.00    +0.000 A 
ATOM     20  C   UNL     1     135.906 119.479 135.121  0.00  0.00    +0.000 A 
ATOM     21  C   UNL     1     134.670 119.460 134.483  0.00  0.00    +0.000 A 
BRANCH  20  22
ATOM     22  O   UNL     1     136.906 118.693 134.626  0.00  0.00    +0.000 OA
ATOM     23  H   UNL     1     136.874 118.730 133.654  0.00  0.00    +0.000 HD
ENDBRANCH  20  22
BRANCH  19  24
ATOM     24  O   UNL     1     132.435 120.232 134.347  0.00  0.00    +0.000 OA
ATOM     25  H   UNL     1     132.078 119.329 134.407  0.00  0.00    +0.000 HD
ENDBRANCH  19  24
ENDBRANCH  15  16
ENDBRANCH   2  15
TORSDOF 10
ENDMDL
MODEL 2
REMARK VINA RESULT:      -4.4     11.822     14.328
REMARK  Name = 76617_Cardol.pdbqt.pdb
REMARK  10 active torsions:
REMARK  status: ('A' for Active; 'I' for Inactive)
REMARK    1  A    between atoms: C_1  and  C_2
REMARK    2  A    between atoms: C_3  and  C_4
REMARK    3  A    between atoms: C_5  and  C_6
REMARK    4  A    between atoms: C_7  and  C_8
REMARK    5  A    between atoms: C_8  and  C_9
REMARK    6  A    between atoms: C_10  and  C_11
REMARK    7  A    between atoms: C_14  and  C_15
REMARK    8  A    between atoms: C_15  and  C_16
REMARK    9  A    between atoms: C_19  and  O_24
REMARK   10  A    between atoms: C_20  and  O_22
REMARK                            x       y       z     vdW  Elec       q    Type
REMARK                         _______ _______ _______ _____ _____    ______ ____
ROOT
ATOM      1  C   UNL     1     136.077 123.900 134.201  0.00  0.00    +0.000 C 
ATOM      2  C   UNL     1     136.990 124.464 133.665  0.00  0.00    +0.000 C 
ENDROOT
BRANCH   1   3
ATOM      3  C   UNL     1     134.911 123.181 134.886  0.00  0.00    +0.000 C 
ATOM      4  C   UNL     1     133.745 122.462 135.573  0.00  0.00    +0.000 C 
BRANCH   4   5
ATOM      5  C   UNL     1     132.580 121.744 136.259  0.00  0.00    +0.000 C 
ATOM      6  C   UNL     1     131.413 121.027 136.945  0.00  0.00    +0.000 C 
BRANCH   6   7
ATOM      7  C   UNL     1     130.247 120.308 137.631  0.00  0.00    +0.000 C 
ATOM      8  C   UNL     1     129.080 119.591 138.316  0.00  0.00    +0.000 C 
BRANCH   8   9
ATOM      9  C   UNL     1     127.913 118.875 139.001  0.00  0.00    +0.000 C 
BRANCH   9  10
ATOM     10  C   UNL     1     126.747 118.156 139.687  0.00  0.00    +0.000 C 
ATOM     11  C   UNL     1     125.581 117.439 140.373  0.00  0.00    +0.000 C 
BRANCH  11  12
ATOM     12  C   UNL     1     124.415 116.721 141.060  0.00  0.00    +0.000 C 
ATOM     13  C   UNL     1     123.249 116.002 141.745  0.00  0.00    +0.000 C 
ATOM     14  C   UNL     1     122.083 115.284 142.432  0.00  0.00    +0.000 C 
ENDBRANCH  11  12
ENDBRANCH   9  10
ENDBRANCH   8   9
ENDBRANCH   6   7
ENDBRANCH   4   5
ENDBRANCH   1   3
BRANCH   2  15
ATOM     15  C   UNL     1     138.156 125.184 132.979  0.00  0.00    +0.000 C 
BRANCH  15  16
ATOM     16  C   UNL     1     139.239 125.853 132.341  0.00  0.00    +0.000 A 
ATOM     17  C   UNL     1     139.956 125.211 131.333  0.00  0.00    +0.000 A 
ATOM     18  C   UNL     1     139.577 127.149 132.727  0.00  0.00    +0.000 A 
ATOM     19  C   UNL     1     140.638 127.795 132.097  0.00  0.00    +0.000 A 
ATOM     20  C   UNL     1     141.012 125.875 130.715  0.00  0.00    +0.000 A 
ATOM     21  C   UNL     1     141.363 127.167 131.089  0.00  0.00    +0.000 A 
BRANCH  20  22
ATOM     22  O   UNL     1     141.729 125.266 129.725  0.00  0.00    +0.000 OA
ATOM     23  H   UNL     1     142.196 124.503 130.108  0.00  0.00    +0.000 HD
ENDBRANCH  20  22
BRANCH  19  24
ATOM     24  O   UNL     1     140.990 129.065 132.457  0.00  0.00    +0.000 OA
ATOM     25  H   UNL     1     141.737 129.345 131.899  0.00  0.00    +0.000 HD
ENDBRANCH  19  24
ENDBRANCH  15  16
ENDBRANCH   2  15
TORSDOF 10
ENDMDL
MODEL 3
REMARK VINA RESULT:      -4.3     12.051     15.088
REMARK  Name = 76617_Cardol.pdbqt.pdb
REMARK  10 active torsions:
REMARK  status: ('A' for Active; 'I' for Inactive)
REMARK    1  A    between atoms: C_1  and  C_2
REMARK    2  A    between atoms: C_3  and  C_4
REMARK    3  A    between atoms: C_5  and  C_6
REMARK    4  A    between atoms: C_7  and  C_8
REMARK    5  A    between atoms: C_8  and  C_9
REMARK    6  A    between atoms: C_10  and  C_11
REMARK    7  A    between atoms: C_14  and  C_15
REMARK    8  A    between atoms: C_15  and  C_16
REMARK    9  A    between atoms: C_19  and  O_24
REMARK   10  A    between atoms: C_20  and  O_22
REMARK                            x       y       z     vdW  Elec       q    Type
REMARK                         _______ _______ _______ _____ _____    ______ ____
ROOT
ATOM      1  C   UNL     1     135.938 123.632 134.073  0.00  0.00    +0.000 C 
ATOM      2  C   UNL     1     136.848 124.270 133.620  0.00  0.00    +0.000 C 
ENDROOT
BRANCH   1   3
ATOM      3  C   UNL     1     134.776 122.817 134.650  0.00  0.00    +0.000 C 
ATOM      4  C   UNL     1     133.615 122.001 135.227  0.00  0.00    +0.000 C 
BRANCH   4   5
ATOM      5  C   UNL     1     132.455 121.186 135.806  0.00  0.00    +0.000 C 
ATOM      6  C   UNL     1     131.296 120.370 136.385  0.00  0.00    +0.000 C 
BRANCH   6   7
ATOM      7  C   UNL     1     130.136 119.554 136.965  0.00  0.00    +0.000 C 
ATOM      8  C   UNL     1     128.977 118.738 137.543  0.00  0.00    +0.000 C 
BRANCH   8   9
ATOM      9  C   UNL     1     127.818 117.921 138.122  0.00  0.00    +0.000 C 
BRANCH   9  10
ATOM     10  C   UNL     1     126.659 117.104 138.702  0.00  0.00    +0.000 C 
ATOM     11  C   UNL     1     125.502 116.285 139.281  0.00  0.00    +0.000 C 
BRANCH  11  12
ATOM     12  C   UNL     1     124.344 115.467 139.861  0.00  0.00    +0.000 C 
ATOM     13  C   UNL     1     123.186 114.648 140.439  0.00  0.00    +0.000 C 
ATOM     14  C   UNL     1     122.028 113.829 141.018  0.00  0.00    +0.000 C 
ENDBRANCH  11  12
ENDBRANCH   9  10
ENDBRANCH   8   9
ENDBRANCH   6   7
ENDBRANCH   4   5
ENDBRANCH   1   3
BRANCH   2  15
ATOM     15  C   UNL     1     138.009 125.086 133.044  0.00  0.00    +0.000 C 
BRANCH  15  16
ATOM     16  C   UNL     1     139.089 125.845 132.508  0.00  0.00    +0.000 A 
ATOM     17  C   UNL     1     139.251 127.179 132.877  0.00  0.00    +0.000 A 
ATOM     18  C   UNL     1     139.981 125.248 131.619  0.00  0.00    +0.000 A 
ATOM     19  C   UNL     1     141.034 125.998 131.101  0.00  0.00    +0.000 A 
ATOM     20  C   UNL     1     140.310 127.911 132.348  0.00  0.00    +0.000 A 
ATOM     21  C   UNL     1     141.208 127.332 131.459  0.00  0.00    +0.000 A 
BRANCH  20  22
ATOM     22  O   UNL     1     140.489 129.220 132.694  0.00  0.00    +0.000 OA
ATOM     23  H   UNL     1     139.944 129.408 133.478  0.00  0.00    +0.000 HD
ENDBRANCH  20  22
BRANCH  19  24
ATOM     24  O   UNL     1     141.922 125.439 130.227  0.00  0.00    +0.000 OA
ATOM     25  H   UNL     1     142.809 125.782 130.430  0.00  0.00    +0.000 HD
ENDBRANCH  19  24
ENDBRANCH  15  16
ENDBRANCH   2  15
TORSDOF 10
ENDMDL
MODEL 4
REMARK VINA RESULT:      -4.2     31.445     37.997
REMARK  Name = 76617_Cardol.pdbqt.pdb
REMARK  10 active torsions:
REMARK  status: ('A' for Active; 'I' for Inactive)
REMARK    1  A    between atoms: C_1  and  C_2
REMARK    2  A    between atoms: C_3  and  C_4
REMARK    3  A    between atoms: C_5  and  C_6
REMARK    4  A    between atoms: C_7  and  C_8
REMARK    5  A    between atoms: C_8  and  C_9
REMARK    6  A    between atoms: C_10  and  C_11
REMARK    7  A    between atoms: C_14  and  C_15
REMARK    8  A    between atoms: C_15  and  C_16
REMARK    9  A    between atoms: C_19  and  O_24
REMARK   10  A    between atoms: C_20  and  O_22
REMARK                            x       y       z     vdW  Elec       q    Type
REMARK                         _______ _______ _______ _____ _____    ______ ____
ROOT
ATOM      1  C   UNL     1     142.698 112.617 105.276  0.00  0.00    +0.000 C 
ATOM      2  C   UNL     1     142.039 112.402 104.297  0.00  0.00    +0.000 C 
ENDROOT
BRANCH   1   3
ATOM      3  C   UNL     1     143.541 112.893 106.525  0.00  0.00    +0.000 C 
ATOM      4  C   UNL     1     144.384 113.167 107.775  0.00  0.00    +0.000 C 
BRANCH   4   5
ATOM      5  C   UNL     1     145.227 113.441 109.024  0.00  0.00    +0.000 C 
ATOM      6  C   UNL     1     146.070 113.713 110.273  0.00  0.00    +0.000 C 
BRANCH   6   7
ATOM      7  C   UNL     1     146.913 113.986 111.522  0.00  0.00    +0.000 C 
ATOM      8  C   UNL     1     147.757 114.258 112.771  0.00  0.00    +0.000 C 
BRANCH   8   9
ATOM      9  C   UNL     1     148.601 114.530 114.019  0.00  0.00    +0.000 C 
BRANCH   9  10
ATOM     10  C   UNL     1     149.445 114.801 115.269  0.00  0.00    +0.000 C 
ATOM     11  C   UNL     1     150.288 115.072 116.518  0.00  0.00    +0.000 C 
BRANCH  11  12
ATOM     12  C   UNL     1     151.131 115.344 117.768  0.00  0.00    +0.000 C 
ATOM     13  C   UNL     1     151.975 115.616 119.016  0.00  0.00    +0.000 C 
ATOM     14  C   UNL     1     152.819 115.888 120.266  0.00  0.00    +0.000 C 
ENDBRANCH  11  12
ENDBRANCH   9  10
ENDBRANCH   8   9
ENDBRANCH   6   7
ENDBRANCH   4   5
ENDBRANCH   1   3
BRANCH   2  15
ATOM     15  C   UNL     1     141.195 112.126 103.048  0.00  0.00    +0.000 C 
BRANCH  15  16
ATOM     16  C   UNL     1     140.411 111.870 101.887  0.00  0.00    +0.000 A 
ATOM     17  C   UNL     1     140.622 112.616 100.729  0.00  0.00    +0.000 A 
ATOM     18  C   UNL     1     139.438 110.874 101.914  0.00  0.00    +0.000 A 
ATOM     19  C   UNL     1     138.677 110.630 100.773  0.00  0.00    +0.000 A 
ATOM     20  C   UNL     1     139.851 112.357  99.599  0.00  0.00    +0.000 A 
ATOM     21  C   UNL     1     138.874 111.366  99.609  0.00  0.00    +0.000 A 
BRANCH  20  22
ATOM     22  O   UNL     1     140.038 113.074  98.452  0.00  0.00    +0.000 OA
ATOM     23  H   UNL     1     139.360 113.771  98.411  0.00  0.00    +0.000 HD
ENDBRANCH  20  22
BRANCH  19  24
ATOM     24  O   UNL     1     137.715 109.660 100.773  0.00  0.00    +0.000 OA
ATOM     25  H   UNL     1     137.078 109.861 101.481  0.00  0.00    +0.000 HD
ENDBRANCH  19  24
ENDBRANCH  15  16
ENDBRANCH   2  15
TORSDOF 10
ENDMDL
MODEL 5
REMARK VINA RESULT:      -4.2     32.511     34.983
REMARK  Name = 76617_Cardol.pdbqt.pdb
REMARK  10 active torsions:
REMARK  status: ('A' for Active; 'I' for Inactive)
REMARK    1  A    between atoms: C_1  and  C_2
REMARK    2  A    between atoms: C_3  and  C_4
REMARK    3  A    between atoms: C_5  and  C_6
REMARK    4  A    between atoms: C_7  and  C_8
REMARK    5  A    between atoms: C_8  and  C_9
REMARK    6  A    between atoms: C_10  and  C_11
REMARK    7  A    between atoms: C_14  and  C_15
REMARK    8  A    between atoms: C_15  and  C_16
REMARK    9  A    between atoms: C_19  and  O_24
REMARK   10  A    between atoms: C_20  and  O_22
REMARK                            x       y       z     vdW  Elec       q    Type
REMARK                         _______ _______ _______ _____ _____    ______ ____
ROOT
ATOM      1  C   UNL     1     154.327 121.798 116.866  0.00  0.00    +0.000 C 
ATOM      2  C   UNL     1     154.355 122.992 116.755  0.00  0.00    +0.000 C 
ENDROOT
BRANCH   1   3
ATOM      3  C   UNL     1     154.290 120.273 117.006  0.00  0.00    +0.000 C 
ATOM      4  C   UNL     1     154.252 118.748 117.147  0.00  0.00    +0.000 C 
BRANCH   4   5
ATOM      5  C   UNL     1     154.214 117.224 117.286  0.00  0.00    +0.000 C 
ATOM      6  C   UNL     1     154.174 115.699 117.426  0.00  0.00    +0.000 C 
BRANCH   6   7
ATOM      7  C   UNL     1     154.135 114.174 117.566  0.00  0.00    +0.000 C 
ATOM      8  C   UNL     1     154.095 112.650 117.705  0.00  0.00    +0.000 C 
BRANCH   8   9
ATOM      9  C   UNL     1     154.055 111.125 117.845  0.00  0.00    +0.000 C 
BRANCH   9  10
ATOM     10  C   UNL     1     154.014 109.600 117.983  0.00  0.00    +0.000 C 
ATOM     11  C   UNL     1     153.974 108.075 118.121  0.00  0.00    +0.000 C 
BRANCH  11  12
ATOM     12  C   UNL     1     153.932 106.550 118.258  0.00  0.00    +0.000 C 
ATOM     13  C   UNL     1     153.890 105.026 118.396  0.00  0.00    +0.000 C 
ATOM     14  C   UNL     1     153.848 103.500 118.533  0.00  0.00    +0.000 C 
ENDBRANCH  11  12
ENDBRANCH   9  10
ENDBRANCH   8   9
ENDBRANCH   6   7
ENDBRANCH   4   5
ENDBRANCH   1   3
BRANCH   2  15
ATOM     15  C   UNL     1     154.392 124.518 116.616  0.00  0.00    +0.000 C 
BRANCH  15  16
ATOM     16  C   UNL     1     154.427 125.936 116.485  0.00  0.00    +0.000 A 
ATOM     17  C   UNL     1     153.389 126.599 115.833  0.00  0.00    +0.000 A 
ATOM     18  C   UNL     1     155.499 126.654 117.012  0.00  0.00    +0.000 A 
ATOM     19  C   UNL     1     155.524 128.040 116.880  0.00  0.00    +0.000 A 
ATOM     20  C   UNL     1     153.433 127.985 115.712  0.00  0.00    +0.000 A 
ATOM     21  C   UNL     1     154.496 128.717 116.231  0.00  0.00    +0.000 A 
BRANCH  20  22
ATOM     22  O   UNL     1     152.429 128.658 115.077  0.00  0.00    +0.000 OA
ATOM     23  H   UNL     1     152.800 129.467 114.685  0.00  0.00    +0.000 HD
ENDBRANCH  20  22
BRANCH  19  24
ATOM     24  O   UNL     1     156.563 128.767 117.386  0.00  0.00    +0.000 OA
ATOM     25  H   UNL     1     156.735 128.465 118.295  0.00  0.00    +0.000 HD
ENDBRANCH  19  24
ENDBRANCH  15  16
ENDBRANCH   2  15
TORSDOF 10
ENDMDL
MODEL 6
REMARK VINA RESULT:      -4.1     21.840     22.054
REMARK  Name = 76617_Cardol.pdbqt.pdb
REMARK  10 active torsions:
REMARK  status: ('A' for Active; 'I' for Inactive)
REMARK    1  A    between atoms: C_1  and  C_2
REMARK    2  A    between atoms: C_3  and  C_4
REMARK    3  A    between atoms: C_5  and  C_6
REMARK    4  A    between atoms: C_7  and  C_8
REMARK    5  A    between atoms: C_8  and  C_9
REMARK    6  A    between atoms: C_10  and  C_11
REMARK    7  A    between atoms: C_14  and  C_15
REMARK    8  A    between atoms: C_15  and  C_16
REMARK    9  A    between atoms: C_19  and  O_24
REMARK   10  A    between atoms: C_20  and  O_22
REMARK                            x       y       z     vdW  Elec       q    Type
REMARK                         _______ _______ _______ _____ _____    ______ ____
ROOT
ATOM      1  C   UNL     1     147.771 138.424 128.439  0.00  0.00    +0.000 C 
ATOM      2  C   UNL     1     148.171 137.796 127.498  0.00  0.00    +0.000 C 
ENDROOT
BRANCH   1   3
ATOM      3  C   UNL     1     147.262 139.227 129.640  0.00  0.00    +0.000 C 
ATOM      4  C   UNL     1     146.751 140.030 130.840  0.00  0.00    +0.000 C 
BRANCH   4   5
ATOM      5  C   UNL     1     146.240 140.832 132.040  0.00  0.00    +0.000 C 
ATOM      6  C   UNL     1     145.729 141.635 133.240  0.00  0.00    +0.000 C 
BRANCH   6   7
ATOM      7  C   UNL     1     145.217 142.438 134.440  0.00  0.00    +0.000 C 
ATOM      8  C   UNL     1     144.707 143.241 135.640  0.00  0.00    +0.000 C 
BRANCH   8   9
ATOM      9  C   UNL     1     144.196 144.044 136.840  0.00  0.00    +0.000 C 
BRANCH   9  10
ATOM     10  C   UNL     1     143.684 144.847 138.040  0.00  0.00    +0.000 C 
ATOM     11  C   UNL     1     143.172 145.648 139.240  0.00  0.00    +0.000 C 
BRANCH  11  12
ATOM     12  C   UNL     1     142.659 146.450 140.441  0.00  0.00    +0.000 C 
ATOM     13  C   UNL     1     142.146 147.251 141.641  0.00  0.00    +0.000 C 
ATOM     14  C   UNL     1     141.633 148.054 142.841  0.00  0.00    +0.000 C 
ENDBRANCH  11  12
ENDBRANCH   9  10
ENDBRANCH   8   9
ENDBRANCH   6   7
ENDBRANCH   4   5
ENDBRANCH   1   3
BRANCH   2  15
ATOM     15  C   UNL     1     148.679 136.992 126.297  0.00  0.00    +0.000 C 
BRANCH  15  16
ATOM     16  C   UNL     1     149.152 136.246 125.179  0.00  0.00    +0.000 A 
ATOM     17  C   UNL     1     149.827 136.895 124.147  0.00  0.00    +0.000 A 
ATOM     18  C   UNL     1     148.937 134.871 125.123  0.00  0.00    +0.000 A 
ATOM     19  C   UNL     1     149.402 134.150 124.026  0.00  0.00    +0.000 A 
ATOM     20  C   UNL     1     150.286 136.156 123.059  0.00  0.00    +0.000 A 
ATOM     21  C   UNL     1     150.078 134.783 122.988  0.00  0.00    +0.000 A 
BRANCH  20  22
ATOM     22  O   UNL     1     150.950 136.768 122.036  0.00  0.00    +0.000 OA
ATOM     23  H   UNL     1     151.546 136.118 121.624  0.00  0.00    +0.000 HD
ENDBRANCH  20  22
BRANCH  19  24
ATOM     24  O   UNL     1     149.204 132.801 123.946  0.00  0.00    +0.000 OA
ATOM     25  H   UNL     1     148.271 132.642 123.723  0.00  0.00    +0.000 HD
ENDBRANCH  19  24
ENDBRANCH  15  16
ENDBRANCH   2  15
TORSDOF 10
ENDMDL
MODEL 7
REMARK VINA RESULT:      -4.0     28.779     35.971
REMARK  Name = 76617_Cardol.pdbqt.pdb
REMARK  10 active torsions:
REMARK  status: ('A' for Active; 'I' for Inactive)
REMARK    1  A    between atoms: C_1  and  C_2
REMARK    2  A    between atoms: C_3  and  C_4
REMARK    3  A    between atoms: C_5  and  C_6
REMARK    4  A    between atoms: C_7  and  C_8
REMARK    5  A    between atoms: C_8  and  C_9
REMARK    6  A    between atoms: C_10  and  C_11
REMARK    7  A    between atoms: C_14  and  C_15
REMARK    8  A    between atoms: C_15  and  C_16
REMARK    9  A    between atoms: C_19  and  O_24
REMARK   10  A    between atoms: C_20  and  O_22
REMARK                            x       y       z     vdW  Elec       q    Type
REMARK                         _______ _______ _______ _____ _____    ______ ____
ROOT
ATOM      1  C   UNL     1     145.744 114.920 108.305  0.00  0.00    +0.000 C 
ATOM      2  C   UNL     1     146.743 114.681 107.685  0.00  0.00    +0.000 C 
ENDROOT
BRANCH   1   3
ATOM      3  C   UNL     1     144.470 115.227 109.097  0.00  0.00    +0.000 C 
ATOM      4  C   UNL     1     143.194 115.534 109.888  0.00  0.00    +0.000 C 
BRANCH   4   5
ATOM      5  C   UNL     1     141.919 115.840 110.678  0.00  0.00    +0.000 C 
ATOM      6  C   UNL     1     140.643 116.146 111.467  0.00  0.00    +0.000 C 
BRANCH   6   7
ATOM      7  C   UNL     1     139.366 116.452 112.257  0.00  0.00    +0.000 C 
ATOM      8  C   UNL     1     138.090 116.759 113.046  0.00  0.00    +0.000 C 
BRANCH   8   9
ATOM      9  C   UNL     1     136.814 117.066 113.835  0.00  0.00    +0.000 C 
BRANCH   9  10
ATOM     10  C   UNL     1     135.537 117.371 114.624  0.00  0.00    +0.000 C 
ATOM     11  C   UNL     1     134.261 117.677 115.414  0.00  0.00    +0.000 C 
BRANCH  11  12
ATOM     12  C   UNL     1     132.985 117.982 116.205  0.00  0.00    +0.000 C 
ATOM     13  C   UNL     1     131.709 118.286 116.995  0.00  0.00    +0.000 C 
ATOM     14  C   UNL     1     130.433 118.591 117.786  0.00  0.00    +0.000 C 
ENDBRANCH  11  12
ENDBRANCH   9  10
ENDBRANCH   8   9
ENDBRANCH   6   7
ENDBRANCH   4   5
ENDBRANCH   1   3
BRANCH   2  15
ATOM     15  C   UNL     1     148.018 114.373 106.892  0.00  0.00    +0.000 C 
BRANCH  15  16
ATOM     16  C   UNL     1     149.202 114.087 106.155  0.00  0.00    +0.000 A 
ATOM     17  C   UNL     1     149.197 114.187 104.765  0.00  0.00    +0.000 A 
ATOM     18  C   UNL     1     150.362 113.707 106.828  0.00  0.00    +0.000 A 
ATOM     19  C   UNL     1     151.516 113.429 106.098  0.00  0.00    +0.000 A 
ATOM     20  C   UNL     1     150.361 113.905 104.054  0.00  0.00    +0.000 A 
ATOM     21  C   UNL     1     151.526 113.525 104.710  0.00  0.00    +0.000 A 
BRANCH  20  22
ATOM     22  O   UNL     1     150.381 113.996 102.692  0.00  0.00    +0.000 OA
ATOM     23  H   UNL     1     151.208 114.433 102.425  0.00  0.00    +0.000 HD
ENDBRANCH  20  22
BRANCH  19  24
ATOM     24  O   UNL     1     152.666 113.055 106.733  0.00  0.00    +0.000 OA
ATOM     25  H   UNL     1     152.426 112.631 107.575  0.00  0.00    +0.000 HD
ENDBRANCH  19  24
ENDBRANCH  15  16
ENDBRANCH   2  15
TORSDOF 10
ENDMDL
MODEL 8
REMARK VINA RESULT:      -4.0     11.298     14.858
REMARK  Name = 76617_Cardol.pdbqt.pdb
REMARK  10 active torsions:
REMARK  status: ('A' for Active; 'I' for Inactive)
REMARK    1  A    between atoms: C_1  and  C_2
REMARK    2  A    between atoms: C_3  and  C_4
REMARK    3  A    between atoms: C_5  and  C_6
REMARK    4  A    between atoms: C_7  and  C_8
REMARK    5  A    between atoms: C_8  and  C_9
REMARK    6  A    between atoms: C_10  and  C_11
REMARK    7  A    between atoms: C_14  and  C_15
REMARK    8  A    between atoms: C_15  and  C_16
REMARK    9  A    between atoms: C_19  and  O_24
REMARK   10  A    between atoms: C_20  and  O_22
REMARK                            x       y       z     vdW  Elec       q    Type
REMARK                         _______ _______ _______ _____ _____    ______ ____
ROOT
ATOM      1  C   UNL     1     132.270 122.416 136.178  0.00  0.00    +0.000 C 
ATOM      2  C   UNL     1     133.387 122.617 135.790  0.00  0.00    +0.000 C 
ENDROOT
BRANCH   1   3
ATOM      3  C   UNL     1     130.844 122.159 136.673  0.00  0.00    +0.000 C 
ATOM      4  C   UNL     1     129.416 121.902 137.167  0.00  0.00    +0.000 C 
BRANCH   4   5
ATOM      5  C   UNL     1     127.989 121.645 137.660  0.00  0.00    +0.000 C 
ATOM      6  C   UNL     1     126.563 121.387 138.153  0.00  0.00    +0.000 C 
BRANCH   6   7
ATOM      7  C   UNL     1     125.135 121.128 138.647  0.00  0.00    +0.000 C 
ATOM      8  C   UNL     1     123.709 120.870 139.141  0.00  0.00    +0.000 C 
BRANCH   8   9
ATOM      9  C   UNL     1     122.283 120.612 139.635  0.00  0.00    +0.000 C 
BRANCH   9  10
ATOM     10  C   UNL     1     120.856 120.353 140.128  0.00  0.00    +0.000 C 
ATOM     11  C   UNL     1     119.429 120.095 140.621  0.00  0.00    +0.000 C 
BRANCH  11  12
ATOM     12  C   UNL     1     118.002 119.837 141.114  0.00  0.00    +0.000 C 
ATOM     13  C   UNL     1     116.576 119.579 141.608  0.00  0.00    +0.000 C 
ATOM     14  C   UNL     1     115.148 119.321 142.101  0.00  0.00    +0.000 C 
ENDBRANCH  11  12
ENDBRANCH   9  10
ENDBRANCH   8   9
ENDBRANCH   6   7
ENDBRANCH   4   5
ENDBRANCH   1   3
BRANCH   2  15
ATOM     15  C   UNL     1     134.815 122.875 135.296  0.00  0.00    +0.000 C 
BRANCH  15  16
ATOM     16  C   UNL     1     136.141 123.115 134.836  0.00  0.00    +0.000 A 
ATOM     17  C   UNL     1     137.221 122.529 135.495  0.00  0.00    +0.000 A 
ATOM     18  C   UNL     1     136.353 123.934 133.729  0.00  0.00    +0.000 A 
ATOM     19  C   UNL     1     137.654 124.163 133.287  0.00  0.00    +0.000 A 
ATOM     20  C   UNL     1     138.514 122.770 135.037  0.00  0.00    +0.000 A 
ATOM     21  C   UNL     1     138.743 123.586 133.934  0.00  0.00    +0.000 A 
BRANCH  20  22
ATOM     22  O   UNL     1     139.588 122.208 135.665  0.00  0.00    +0.000 OA
ATOM     23  H   UNL     1     139.762 121.342 135.259  0.00  0.00    +0.000 HD
ENDBRANCH  20  22
BRANCH  19  24
ATOM     24  O   UNL     1     137.890 124.962 132.206  0.00  0.00    +0.000 OA
ATOM     25  H   UNL     1     137.902 125.888 132.506  0.00  0.00    +0.000 HD
ENDBRANCH  19  24
ENDBRANCH  15  16
ENDBRANCH   2  15
TORSDOF 10
ENDMDL
MODEL 9
REMARK VINA RESULT:      -3.9     20.391     25.907
REMARK  Name = 76617_Cardol.pdbqt.pdb
REMARK  10 active torsions:
REMARK  status: ('A' for Active; 'I' for Inactive)
REMARK    1  A    between atoms: C_1  and  C_2
REMARK    2  A    between atoms: C_3  and  C_4
REMARK    3  A    between atoms: C_5  and  C_6
REMARK    4  A    between atoms: C_7  and  C_8
REMARK    5  A    between atoms: C_8  and  C_9
REMARK    6  A    between atoms: C_10  and  C_11
REMARK    7  A    between atoms: C_14  and  C_15
REMARK    8  A    between atoms: C_15  and  C_16
REMARK    9  A    between atoms: C_19  and  O_24
REMARK   10  A    between atoms: C_20  and  O_22
REMARK                            x       y       z     vdW  Elec       q    Type
REMARK                         _______ _______ _______ _____ _____    ______ ____
ROOT
ATOM      1  C   UNL     1     150.203 115.057 120.191  0.00  0.00    +0.000 C 
ATOM      2  C   UNL     1     150.407 114.833 119.030  0.00  0.00    +0.000 C 
ENDROOT
BRANCH   1   3
ATOM      3  C   UNL     1     149.944 115.344 121.673  0.00  0.00    +0.000 C 
ATOM      4  C   UNL     1     149.685 115.632 123.156  0.00  0.00    +0.000 C 
BRANCH   4   5
ATOM      5  C   UNL     1     149.424 115.920 124.637  0.00  0.00    +0.000 C 
ATOM      6  C   UNL     1     149.163 116.209 126.118  0.00  0.00    +0.000 C 
BRANCH   6   7
ATOM      7  C   UNL     1     148.902 116.498 127.600  0.00  0.00    +0.000 C 
ATOM      8  C   UNL     1     148.642 116.786 129.081  0.00  0.00    +0.000 C 
BRANCH   8   9
ATOM      9  C   UNL     1     148.381 117.074 130.562  0.00  0.00    +0.000 C 
BRANCH   9  10
ATOM     10  C   UNL     1     148.120 117.361 132.044  0.00  0.00    +0.000 C 
ATOM     11  C   UNL     1     147.859 117.646 133.526  0.00  0.00    +0.000 C 
BRANCH  11  12
ATOM     12  C   UNL     1     147.597 117.933 135.008  0.00  0.00    +0.000 C 
ATOM     13  C   UNL     1     147.334 118.220 136.489  0.00  0.00    +0.000 C 
ATOM     14  C   UNL     1     147.072 118.507 137.971  0.00  0.00    +0.000 C 
ENDBRANCH  11  12
ENDBRANCH   9  10
ENDBRANCH   8   9
ENDBRANCH   6   7
ENDBRANCH   4   5
ENDBRANCH   1   3
BRANCH   2  15
ATOM     15  C   UNL     1     150.665 114.546 117.547  0.00  0.00    +0.000 C 
BRANCH  15  16
ATOM     16  C   UNL     1     150.906 114.280 116.169  0.00  0.00    +0.000 A 
ATOM     17  C   UNL     1     152.204 114.341 115.667  0.00  0.00    +0.000 A 
ATOM     18  C   UNL     1     149.841 113.959 115.329  0.00  0.00    +0.000 A 
ATOM     19  C   UNL     1     150.087 113.700 113.983  0.00  0.00    +0.000 A 
ATOM     20  C   UNL     1     152.429 114.079 114.317  0.00  0.00    +0.000 A 
ATOM     21  C   UNL     1     151.377 113.758 113.466  0.00  0.00    +0.000 A 
BRANCH  20  22
ATOM     22  O   UNL     1     153.691 114.132 113.801  0.00  0.00    +0.000 OA
ATOM     23  H   UNL     1     153.629 114.370 112.860  0.00  0.00    +0.000 HD
ENDBRANCH  20  22
BRANCH  19  24
ATOM     24  O   UNL     1     149.062 113.384 113.138  0.00  0.00    +0.000 OA
ATOM     25  H   UNL     1     148.641 114.211 112.844  0.00  0.00    +0.000 HD
ENDBRANCH  19  24
ENDBRANCH  15  16
ENDBRANCH   2  15
TORSDOF 10
ENDMDL
