MODEL 1
REMARK VINA RESULT:      -5.7      0.000      0.000
REMARK  Name = 85668777_Hyaluronidase.pdbqt.pdb
REMARK  5 active torsions:
REMARK  status: ('A' for Active; 'I' for Inactive)
REMARK    1  A    between atoms: N_1  and  C_13
REMARK    2  A    between atoms: C_14  and  C_15
REMARK    3  A    between atoms: C_15  and  C_16
REMARK    4  A    between atoms: C_17  and  C_19
REMARK    5  A    between atoms: C_19  and  O_20
REMARK                            x       y       z     vdW  Elec       q    Type
REMARK                         _______ _______ _______ _____ _____    ______ ____
ROOT
ATOM      1  N   UNL     1     135.686 122.065 135.159  0.00  0.00    +0.000 N 
ATOM      2  C   UNL     1     133.846 121.604 136.663  0.00  0.00    +0.000 C 
ATOM      3  C   UNL     1     134.569 120.334 136.216  0.00  0.00    +0.000 A 
ATOM      4  C   UNL     1     134.682 122.699 135.893  0.00  0.00    +0.000 C 
ATOM      5  C   UNL     1     135.624 120.673 135.344  0.00  0.00    +0.000 A 
ATOM      6  C   UNL     1     132.361 121.545 136.185  0.00  0.00    +0.000 C 
ATOM      7  C   UNL     1     133.972 121.744 138.214  0.00  0.00    +0.000 C 
ATOM      8  C   UNL     1     134.313 119.011 136.548  0.00  0.00    +0.000 A 
ATOM      9  C   UNL     1     136.436 119.696 134.796  0.00  0.00    +0.000 A 
ATOM     10  C   UNL     1     134.541 124.040 135.874  0.00  0.00    +0.000 C 
ATOM     11  C   UNL     1     135.132 118.027 135.995  0.00  0.00    +0.000 A 
ATOM     12  C   UNL     1     136.182 118.366 135.130  0.00  0.00    +0.000 A 
ENDROOT
BRANCH   1  13
ATOM     13  C   UNL     1     136.663 122.715 134.320  0.00  0.00    +0.000 C 
ATOM     14  C   UNL     1     137.702 123.410 133.434  0.00  0.00    +0.000 C 
BRANCH  14  15
ATOM     15  C   UNL     1     138.740 124.106 132.549  0.00  0.00    +0.000 C 
BRANCH  15  16
ATOM     16  C   UNL     1     139.777 124.801 131.663  0.00  0.00    +0.000 C 
ATOM     17  C   UNL     1     140.815 125.497 130.776  0.00  0.00    +0.000 C 
BRANCH  17  19
ATOM     18  O   UNL     1     142.474 127.080 130.329  0.00  0.00    +0.000 OA
ATOM     19  C   UNL     1     141.784 126.150 129.949  0.00  0.00    +0.000 C 
BRANCH  19  20
ATOM     20  O   UNL     1     141.870 125.646 128.705  0.00  0.00    +0.000 OA
ATOM     21  H   UNL     1     142.830 125.664 128.515  0.00  0.00    +0.000 HD
ENDBRANCH  19  20
ENDBRANCH  17  19
ENDBRANCH  15  16
ENDBRANCH  14  15
ENDBRANCH   1  13
TORSDOF 5
ENDMDL
MODEL 2
REMARK VINA RESULT:      -5.7     36.582     39.857
REMARK  Name = 85668777_Hyaluronidase.pdbqt.pdb
REMARK  5 active torsions:
REMARK  status: ('A' for Active; 'I' for Inactive)
REMARK    1  A    between atoms: N_1  and  C_13
REMARK    2  A    between atoms: C_14  and  C_15
REMARK    3  A    between atoms: C_15  and  C_16
REMARK    4  A    between atoms: C_17  and  C_19
REMARK    5  A    between atoms: C_19  and  O_20
REMARK                            x       y       z     vdW  Elec       q    Type
REMARK                         _______ _______ _______ _____ _____    ______ ____
ROOT
ATOM      1  N   UNL     1     144.979 124.427  95.918  0.00  0.00    +0.000 N 
ATOM      2  C   UNL     1     142.960 123.125  96.214  0.00  0.00    +0.000 C 
ATOM      3  C   UNL     1     143.804 123.193  97.487  0.00  0.00    +0.000 A 
ATOM      4  C   UNL     1     143.845 123.987  95.233  0.00  0.00    +0.000 C 
ATOM      5  C   UNL     1     144.961 123.963  97.245  0.00  0.00    +0.000 A 
ATOM      6  C   UNL     1     142.843 121.636  95.757  0.00  0.00    +0.000 C 
ATOM      7  C   UNL     1     141.568 123.779  96.489  0.00  0.00    +0.000 C 
ATOM      8  C   UNL     1     143.570 122.628  98.733  0.00  0.00    +0.000 A 
ATOM      9  C   UNL     1     145.894 124.177  98.243  0.00  0.00    +0.000 A 
ATOM     10  C   UNL     1     143.640 124.308  93.939  0.00  0.00    +0.000 C 
ATOM     11  C   UNL     1     144.512 122.845  99.738  0.00  0.00    +0.000 A 
ATOM     12  C   UNL     1     145.660 123.611  99.496  0.00  0.00    +0.000 A 
ENDROOT
BRANCH   1  13
ATOM     13  C   UNL     1     146.036 125.243  95.373  0.00  0.00    +0.000 C 
ATOM     14  C   UNL     1     147.160 126.106  94.791  0.00  0.00    +0.000 C 
BRANCH  14  15
ATOM     15  C   UNL     1     148.284 126.968  94.208  0.00  0.00    +0.000 C 
BRANCH  15  16
ATOM     16  C   UNL     1     149.407 127.831  93.626  0.00  0.00    +0.000 C 
ATOM     17  C   UNL     1     150.531 128.694  93.044  0.00  0.00    +0.000 C 
BRANCH  17  19
ATOM     18  O   UNL     1     151.699 130.692  92.731  0.00  0.00    +0.000 OA
ATOM     19  C   UNL     1     151.580 129.501  92.499  0.00  0.00    +0.000 C 
BRANCH  19  20
ATOM     20  O   UNL     1     152.430 128.831  91.702  0.00  0.00    +0.000 OA
ATOM     21  H   UNL     1     152.062 128.966  90.805  0.00  0.00    +0.000 HD
ENDBRANCH  19  20
ENDBRANCH  17  19
ENDBRANCH  15  16
ENDBRANCH  14  15
ENDBRANCH   1  13
TORSDOF 5
ENDMDL
MODEL 3
REMARK VINA RESULT:      -5.6      5.874      8.274
REMARK  Name = 85668777_Hyaluronidase.pdbqt.pdb
REMARK  5 active torsions:
REMARK  status: ('A' for Active; 'I' for Inactive)
REMARK    1  A    between atoms: N_1  and  C_13
REMARK    2  A    between atoms: C_14  and  C_15
REMARK    3  A    between atoms: C_15  and  C_16
REMARK    4  A    between atoms: C_17  and  C_19
REMARK    5  A    between atoms: C_19  and  O_20
REMARK                            x       y       z     vdW  Elec       q    Type
REMARK                         _______ _______ _______ _____ _____    ______ ____
ROOT
ATOM      1  N   UNL     1     134.654 121.762 137.060  0.00  0.00    +0.000 N 
ATOM      2  C   UNL     1     133.838 120.096 135.507  0.00  0.00    +0.000 C 
ATOM      3  C   UNL     1     134.556 121.247 134.804  0.00  0.00    +0.000 A 
ATOM      4  C   UNL     1     133.967 120.548 137.013  0.00  0.00    +0.000 C 
ATOM      5  C   UNL     1     135.004 122.179 135.764  0.00  0.00    +0.000 A 
ATOM      6  C   UNL     1     132.353 120.048 135.025  0.00  0.00    +0.000 C 
ATOM      7  C   UNL     1     134.604 118.764 135.219  0.00  0.00    +0.000 C 
ATOM      8  C   UNL     1     134.788 121.449 133.451  0.00  0.00    +0.000 A 
ATOM      9  C   UNL     1     135.688 123.320 135.383  0.00  0.00    +0.000 A 
ATOM     10  C   UNL     1     133.527 119.947 138.138  0.00  0.00    +0.000 C 
ATOM     11  C   UNL     1     135.477 122.599 133.068  0.00  0.00    +0.000 A 
ATOM     12  C   UNL     1     135.922 123.523 134.024  0.00  0.00    +0.000 A 
ENDROOT
BRANCH   1  13
ATOM     13  C   UNL     1     134.978 122.508 138.252  0.00  0.00    +0.000 C 
ATOM     14  C   UNL     1     135.316 123.301 139.519  0.00  0.00    +0.000 C 
BRANCH  14  15
ATOM     15  C   UNL     1     135.654 124.094 140.785  0.00  0.00    +0.000 C 
BRANCH  15  16
ATOM     16  C   UNL     1     135.991 124.887 142.050  0.00  0.00    +0.000 C 
ATOM     17  C   UNL     1     136.328 125.681 143.316  0.00  0.00    +0.000 C 
BRANCH  17  19
ATOM     18  O   UNL     1     136.821 125.904 145.589  0.00  0.00    +0.000 OA
ATOM     19  C   UNL     1     136.645 126.422 144.499  0.00  0.00    +0.000 C 
BRANCH  19  20
ATOM     20  O   UNL     1     136.732 127.750 144.307  0.00  0.00    +0.000 OA
ATOM     21  H   UNL     1     136.656 128.120 145.210  0.00  0.00    +0.000 HD
ENDBRANCH  19  20
ENDBRANCH  17  19
ENDBRANCH  15  16
ENDBRANCH  14  15
ENDBRANCH   1  13
TORSDOF 5
ENDMDL
MODEL 4
REMARK VINA RESULT:      -5.4     30.752     35.835
REMARK  Name = 85668777_Hyaluronidase.pdbqt.pdb
REMARK  5 active torsions:
REMARK  status: ('A' for Active; 'I' for Inactive)
REMARK    1  A    between atoms: N_1  and  C_13
REMARK    2  A    between atoms: C_14  and  C_15
REMARK    3  A    between atoms: C_15  and  C_16
REMARK    4  A    between atoms: C_17  and  C_19
REMARK    5  A    between atoms: C_19  and  O_20
REMARK                            x       y       z     vdW  Elec       q    Type
REMARK                         _______ _______ _______ _____ _____    ______ ____
ROOT
ATOM      1  N   UNL     1     143.095 125.644  98.344  0.00  0.00    +0.000 N 
ATOM      2  C   UNL     1     142.661 126.199  96.029  0.00  0.00    +0.000 C 
ATOM      3  C   UNL     1     142.615 124.693  96.288  0.00  0.00    +0.000 A 
ATOM      4  C   UNL     1     142.989 126.732  97.477  0.00  0.00    +0.000 C 
ATOM      5  C   UNL     1     142.876 124.441  97.651  0.00  0.00    +0.000 A 
ATOM      6  C   UNL     1     143.801 126.508  95.008  0.00  0.00    +0.000 C 
ATOM      7  C   UNL     1     141.260 126.673  95.525  0.00  0.00    +0.000 C 
ATOM      8  C   UNL     1     142.368 123.652  95.404  0.00  0.00    +0.000 A 
ATOM      9  C   UNL     1     142.893 123.149  98.144  0.00  0.00    +0.000 A 
ATOM     10  C   UNL     1     143.160 127.997  97.915  0.00  0.00    +0.000 C 
ATOM     11  C   UNL     1     142.385 122.351  95.902  0.00  0.00    +0.000 A 
ATOM     12  C   UNL     1     142.644 122.102  97.257  0.00  0.00    +0.000 A 
ENDROOT
BRANCH   1  13
ATOM     13  C   UNL     1     143.385 125.709  99.756  0.00  0.00    +0.000 C 
ATOM     14  C   UNL     1     143.697 125.775 101.254  0.00  0.00    +0.000 C 
BRANCH  14  15
ATOM     15  C   UNL     1     144.008 125.840 102.753  0.00  0.00    +0.000 C 
BRANCH  15  16
ATOM     16  C   UNL     1     144.321 125.903 104.250  0.00  0.00    +0.000 C 
ATOM     17  C   UNL     1     144.633 125.966 105.749  0.00  0.00    +0.000 C 
BRANCH  17  19
ATOM     18  O   UNL     1     145.950 125.581 107.639  0.00  0.00    +0.000 OA
ATOM     19  C   UNL     1     144.925 126.024 107.149  0.00  0.00    +0.000 C 
BRANCH  19  20
ATOM     20  O   UNL     1     143.966 126.612 107.885  0.00  0.00    +0.000 OA
ATOM     21  H   UNL     1     143.678 125.905 108.497  0.00  0.00    +0.000 HD
ENDBRANCH  19  20
ENDBRANCH  17  19
ENDBRANCH  15  16
ENDBRANCH  14  15
ENDBRANCH   1  13
TORSDOF 5
ENDMDL
MODEL 5
REMARK VINA RESULT:      -5.3     33.678     37.219
REMARK  Name = 85668777_Hyaluronidase.pdbqt.pdb
REMARK  5 active torsions:
REMARK  status: ('A' for Active; 'I' for Inactive)
REMARK    1  A    between atoms: N_1  and  C_13
REMARK    2  A    between atoms: C_14  and  C_15
REMARK    3  A    between atoms: C_15  and  C_16
REMARK    4  A    between atoms: C_17  and  C_19
REMARK    5  A    between atoms: C_19  and  O_20
REMARK                            x       y       z     vdW  Elec       q    Type
REMARK                         _______ _______ _______ _____ _____    ______ ____
ROOT
ATOM      1  N   UNL     1     143.197 127.213  99.644  0.00  0.00    +0.000 N 
ATOM      2  C   UNL     1     143.733 126.104 101.727  0.00  0.00    +0.000 C 
ATOM      3  C   UNL     1     144.919 126.882 101.157  0.00  0.00    +0.000 A 
ATOM      4  C   UNL     1     142.637 126.400 100.631  0.00  0.00    +0.000 C 
ATOM      5  C   UNL     1     144.539 127.500  99.947  0.00  0.00    +0.000 A 
ATOM      6  C   UNL     1     144.103 124.589 101.804  0.00  0.00    +0.000 C 
ATOM      7  C   UNL     1     143.354 126.700 103.121  0.00  0.00    +0.000 C 
ATOM      8  C   UNL     1     146.204 127.024 101.659  0.00  0.00    +0.000 A 
ATOM      9  C   UNL     1     145.438 128.268  99.228  0.00  0.00    +0.000 A 
ATOM     10  C   UNL     1     141.354 125.991 100.557  0.00  0.00    +0.000 C 
ATOM     11  C   UNL     1     147.109 127.798 100.933  0.00  0.00    +0.000 A 
ATOM     12  C   UNL     1     146.730 128.413  99.732  0.00  0.00    +0.000 A 
ENDROOT
BRANCH   1  13
ATOM     13  C   UNL     1     142.521 127.708  98.469  0.00  0.00    +0.000 C 
ATOM     14  C   UNL     1     141.802 128.237  97.224  0.00  0.00    +0.000 C 
BRANCH  14  15
ATOM     15  C   UNL     1     141.082 128.767  95.980  0.00  0.00    +0.000 C 
BRANCH  15  16
ATOM     16  C   UNL     1     140.363 129.296  94.737  0.00  0.00    +0.000 C 
ATOM     17  C   UNL     1     139.644 129.826  93.492  0.00  0.00    +0.000 C 
BRANCH  17  19
ATOM     18  O   UNL     1     139.181 131.422  91.849  0.00  0.00    +0.000 OA
ATOM     19  C   UNL     1     138.973 130.320  92.327  0.00  0.00    +0.000 C 
BRANCH  19  20
ATOM     20  O   UNL     1     138.085 129.459  91.801  0.00  0.00    +0.000 OA
ATOM     21  H   UNL     1     138.643 128.733  91.456  0.00  0.00    +0.000 HD
ENDBRANCH  19  20
ENDBRANCH  17  19
ENDBRANCH  15  16
ENDBRANCH  14  15
ENDBRANCH   1  13
TORSDOF 5
ENDMDL
MODEL 6
REMARK VINA RESULT:      -5.2      6.321      8.444
REMARK  Name = 85668777_Hyaluronidase.pdbqt.pdb
REMARK  5 active torsions:
REMARK  status: ('A' for Active; 'I' for Inactive)
REMARK    1  A    between atoms: N_1  and  C_13
REMARK    2  A    between atoms: C_14  and  C_15
REMARK    3  A    between atoms: C_15  and  C_16
REMARK    4  A    between atoms: C_17  and  C_19
REMARK    5  A    between atoms: C_19  and  O_20
REMARK                            x       y       z     vdW  Elec       q    Type
REMARK                         _______ _______ _______ _____ _____    ______ ____
ROOT
ATOM      1  N   UNL     1     134.631 121.982 138.675  0.00  0.00    +0.000 N 
ATOM      2  C   UNL     1     133.345 120.440 137.323  0.00  0.00    +0.000 C 
ATOM      3  C   UNL     1     134.761 120.646 136.788  0.00  0.00    +0.000 A 
ATOM      4  C   UNL     1     133.373 121.383 138.589  0.00  0.00    +0.000 C 
ATOM      5  C   UNL     1     135.452 121.553 137.618  0.00  0.00    +0.000 A 
ATOM      6  C   UNL     1     132.316 120.917 136.249  0.00  0.00    +0.000 C 
ATOM      7  C   UNL     1     133.158 118.937 137.707  0.00  0.00    +0.000 C 
ATOM      8  C   UNL     1     135.374 120.088 135.674  0.00  0.00    +0.000 A 
ATOM      9  C   UNL     1     136.761 121.910 137.348  0.00  0.00    +0.000 A 
ATOM     10  C   UNL     1     132.410 121.641 139.496  0.00  0.00    +0.000 C 
ATOM     11  C   UNL     1     136.693 120.449 135.403  0.00  0.00    +0.000 A 
ATOM     12  C   UNL     1     137.379 121.349 136.230  0.00  0.00    +0.000 A 
ENDROOT
BRANCH   1  13
ATOM     13  C   UNL     1     135.060 122.911 139.692  0.00  0.00    +0.000 C 
ATOM     14  C   UNL     1     135.510 123.900 140.772  0.00  0.00    +0.000 C 
BRANCH  14  15
ATOM     15  C   UNL     1     135.959 124.889 141.852  0.00  0.00    +0.000 C 
BRANCH  15  16
ATOM     16  C   UNL     1     136.407 125.877 142.932  0.00  0.00    +0.000 C 
ATOM     17  C   UNL     1     136.857 126.866 144.012  0.00  0.00    +0.000 C 
BRANCH  17  19
ATOM     18  O   UNL     1     136.676 127.961 146.068  0.00  0.00    +0.000 OA
ATOM     19  C   UNL     1     137.276 127.792 145.020  0.00  0.00    +0.000 C 
BRANCH  19  20
ATOM     20  O   UNL     1     138.397 128.467 144.712  0.00  0.00    +0.000 OA
ATOM     21  H   UNL     1     138.193 129.387 144.974  0.00  0.00    +0.000 HD
ENDBRANCH  19  20
ENDBRANCH  17  19
ENDBRANCH  15  16
ENDBRANCH  14  15
ENDBRANCH   1  13
TORSDOF 5
ENDMDL
MODEL 7
REMARK VINA RESULT:      -5.0     14.762     17.712
REMARK  Name = 85668777_Hyaluronidase.pdbqt.pdb
REMARK  5 active torsions:
REMARK  status: ('A' for Active; 'I' for Inactive)
REMARK    1  A    between atoms: N_1  and  C_13
REMARK    2  A    between atoms: C_14  and  C_15
REMARK    3  A    between atoms: C_15  and  C_16
REMARK    4  A    between atoms: C_17  and  C_19
REMARK    5  A    between atoms: C_19  and  O_20
REMARK                            x       y       z     vdW  Elec       q    Type
REMARK                         _______ _______ _______ _____ _____    ______ ____
ROOT
ATOM      1  N   UNL     1     140.710 138.775 138.797  0.00  0.00    +0.000 N 
ATOM      2  C   UNL     1     141.016 140.539 140.425  0.00  0.00    +0.000 C 
ATOM      3  C   UNL     1     141.900 140.722 139.191  0.00  0.00    +0.000 A 
ATOM      4  C   UNL     1     140.264 139.205 140.048  0.00  0.00    +0.000 C 
ATOM      5  C   UNL     1     141.672 139.663 138.288  0.00  0.00    +0.000 A 
ATOM      6  C   UNL     1     141.924 140.375 141.685  0.00  0.00    +0.000 C 
ATOM      7  C   UNL     1     140.044 141.757 140.542  0.00  0.00    +0.000 C 
ATOM      8  C   UNL     1     142.814 141.725 138.901  0.00  0.00    +0.000 A 
ATOM      9  C   UNL     1     142.353 139.596 137.085  0.00  0.00    +0.000 A 
ATOM     10  C   UNL     1     139.335 138.511 140.738  0.00  0.00    +0.000 C 
ATOM     11  C   UNL     1     143.500 141.655 137.689  0.00  0.00    +0.000 A 
ATOM     12  C   UNL     1     143.271 140.603 136.791  0.00  0.00    +0.000 A 
ENDROOT
BRANCH   1  13
ATOM     13  C   UNL     1     140.265 137.593 138.098  0.00  0.00    +0.000 C 
ATOM     14  C   UNL     1     139.788 136.339 137.360  0.00  0.00    +0.000 C 
BRANCH  14  15
ATOM     15  C   UNL     1     139.311 135.084 136.622  0.00  0.00    +0.000 C 
BRANCH  15  16
ATOM     16  C   UNL     1     138.835 133.830 135.884  0.00  0.00    +0.000 C 
ATOM     17  C   UNL     1     138.358 132.576 135.145  0.00  0.00    +0.000 C 
BRANCH  17  19
ATOM     18  O   UNL     1     138.245 131.131 133.312  0.00  0.00    +0.000 OA
ATOM     19  C   UNL     1     137.913 131.405 134.453  0.00  0.00    +0.000 C 
BRANCH  19  20
ATOM     20  O   UNL     1     137.087 130.624 135.172  0.00  0.00    +0.000 OA
ATOM     21  H   UNL     1     137.580 130.470 136.003  0.00  0.00    +0.000 HD
ENDBRANCH  19  20
ENDBRANCH  17  19
ENDBRANCH  15  16
ENDBRANCH  14  15
ENDBRANCH   1  13
TORSDOF 5
ENDMDL
MODEL 8
REMARK VINA RESULT:      -5.0      7.609     10.119
REMARK  Name = 85668777_Hyaluronidase.pdbqt.pdb
REMARK  5 active torsions:
REMARK  status: ('A' for Active; 'I' for Inactive)
REMARK    1  A    between atoms: N_1  and  C_13
REMARK    2  A    between atoms: C_14  and  C_15
REMARK    3  A    between atoms: C_15  and  C_16
REMARK    4  A    between atoms: C_17  and  C_19
REMARK    5  A    between atoms: C_19  and  O_20
REMARK                            x       y       z     vdW  Elec       q    Type
REMARK                         _______ _______ _______ _____ _____    ______ ____
ROOT
ATOM      1  N   UNL     1     135.137 125.154 143.591  0.00  0.00    +0.000 N 
ATOM      2  C   UNL     1     134.079 125.953 145.615  0.00  0.00    +0.000 C 
ATOM      3  C   UNL     1     135.445 126.594 145.377  0.00  0.00    +0.000 A 
ATOM      4  C   UNL     1     133.978 125.008 144.355  0.00  0.00    +0.000 C 
ATOM      5  C   UNL     1     136.004 126.085 144.186  0.00  0.00    +0.000 A 
ATOM      6  C   UNL     1     134.114 125.154 146.957  0.00  0.00    +0.000 C 
ATOM      7  C   UNL     1     132.983 127.067 145.610  0.00  0.00    +0.000 C 
ATOM      8  C   UNL     1     136.125 127.532 146.141  0.00  0.00    +0.000 A 
ATOM      9  C   UNL     1     137.245 126.509 143.745  0.00  0.00    +0.000 A 
ATOM     10  C   UNL     1     132.994 124.164 143.983  0.00  0.00    +0.000 C 
ATOM     11  C   UNL     1     137.376 127.958 145.696  0.00  0.00    +0.000 A 
ATOM     12  C   UNL     1     137.929 127.453 144.511  0.00  0.00    +0.000 A 
ENDROOT
BRANCH   1  13
ATOM     13  C   UNL     1     135.432 124.463 142.359  0.00  0.00    +0.000 C 
ATOM     14  C   UNL     1     135.740 123.729 141.050  0.00  0.00    +0.000 C 
BRANCH  14  15
ATOM     15  C   UNL     1     136.047 122.995 139.741  0.00  0.00    +0.000 C 
BRANCH  15  16
ATOM     16  C   UNL     1     136.354 122.262 138.433  0.00  0.00    +0.000 C 
ATOM     17  C   UNL     1     136.662 121.527 137.124  0.00  0.00    +0.000 C 
BRANCH  17  19
ATOM     18  O   UNL     1     136.355 119.838 135.539  0.00  0.00    +0.000 OA
ATOM     19  C   UNL     1     136.948 120.840 135.901  0.00  0.00    +0.000 C 
BRANCH  19  20
ATOM     20  O   UNL     1     137.937 121.396 135.179  0.00  0.00    +0.000 OA
ATOM     21  H   UNL     1     138.446 120.626 134.853  0.00  0.00    +0.000 HD
ENDBRANCH  19  20
ENDBRANCH  17  19
ENDBRANCH  15  16
ENDBRANCH  14  15
ENDBRANCH   1  13
TORSDOF 5
ENDMDL
MODEL 9
REMARK VINA RESULT:      -4.9     26.463     29.356
REMARK  Name = 85668777_Hyaluronidase.pdbqt.pdb
REMARK  5 active torsions:
REMARK  status: ('A' for Active; 'I' for Inactive)
REMARK    1  A    between atoms: N_1  and  C_13
REMARK    2  A    between atoms: C_14  and  C_15
REMARK    3  A    between atoms: C_15  and  C_16
REMARK    4  A    between atoms: C_17  and  C_19
REMARK    5  A    between atoms: C_19  and  O_20
REMARK                            x       y       z     vdW  Elec       q    Type
REMARK                         _______ _______ _______ _____ _____    ______ ____
ROOT
ATOM      1  N   UNL     1     154.978 126.584 113.301  0.00  0.00    +0.000 N 
ATOM      2  C   UNL     1     154.665 127.912 115.300  0.00  0.00    +0.000 C 
ATOM      3  C   UNL     1     154.667 126.411 115.590  0.00  0.00    +0.000 A 
ATOM      4  C   UNL     1     154.882 127.907 113.737  0.00  0.00    +0.000 C 
ATOM      5  C   UNL     1     154.852 125.700 114.386  0.00  0.00    +0.000 A 
ATOM      6  C   UNL     1     153.281 128.511 115.707  0.00  0.00    +0.000 C 
ATOM      7  C   UNL     1     155.855 128.580 116.062  0.00  0.00    +0.000 C 
ATOM      8  C   UNL     1     154.517 125.745 116.798  0.00  0.00    +0.000 A 
ATOM      9  C   UNL     1     154.890 124.317 114.377  0.00  0.00    +0.000 A 
ATOM     10  C   UNL     1     154.974 128.938 112.873  0.00  0.00    +0.000 C 
ATOM     11  C   UNL     1     154.556 124.352 116.787  0.00  0.00    +0.000 A 
ATOM     12  C   UNL     1     154.741 123.646 115.590  0.00  0.00    +0.000 A 
ENDROOT
BRANCH   1  13
ATOM     13  C   UNL     1     155.179 126.152 111.939  0.00  0.00    +0.000 C 
ATOM     14  C   UNL     1     155.394 125.690 110.495  0.00  0.00    +0.000 C 
BRANCH  14  15
ATOM     15  C   UNL     1     155.610 125.226 109.051  0.00  0.00    +0.000 C 
BRANCH  15  16
ATOM     16  C   UNL     1     155.826 124.764 107.608  0.00  0.00    +0.000 C 
ATOM     17  C   UNL     1     156.041 124.301 106.163  0.00  0.00    +0.000 C 
BRANCH  17  19
ATOM     18  O   UNL     1     157.280 123.370 104.415  0.00  0.00    +0.000 OA
ATOM     19  C   UNL     1     156.242 123.871 104.812  0.00  0.00    +0.000 C 
BRANCH  19  20
ATOM     20  O   UNL     1     155.181 124.068 104.011  0.00  0.00    +0.000 OA
ATOM     21  H   UNL     1     155.534 124.632 103.293  0.00  0.00    +0.000 HD
ENDBRANCH  19  20
ENDBRANCH  17  19
ENDBRANCH  15  16
ENDBRANCH  14  15
ENDBRANCH   1  13
TORSDOF 5
ENDMDL
