REMARK  Name = 86311066_OplopantriolA.pdbqt.pdb
REMARK  12 active torsions:
REMARK  status: ('A' for Active; 'I' for Inactive)
REMARK    1  A    between atoms: C_1  and  C_3
REMARK    2  A    between atoms: C_2  and  C_13
REMARK    3  A    between atoms: C_4  and  C_5
REMARK    4  A    between atoms: C_6  and  C_7
REMARK    5  A    between atoms: C_8  and  C_9
REMARK    6  A    between atoms: C_10  and  O_11
REMARK    7  A    between atoms: C_13  and  O_14
REMARK    8  A    between atoms: C_13  and  C_16
REMARK    9  A    between atoms: C_17  and  C_18
REMARK   10  A    between atoms: C_19  and  C_20
REMARK   11  A    between atoms: C_20  and  C_21
REMARK   12  A    between atoms: C_20  and  O_23
REMARK                            x       y       z     vdW  Elec       q    Type
REMARK                         _______ _______ _______ _____ _____    ______ ____
ROOT
ATOM      1  C   UNL     1      -1.198   1.055   0.354  0.00  0.00    +0.000 C 
ATOM      2  C   UNL     1      -1.077   2.250   0.370  0.00  0.00    +0.000 C 
ENDROOT
BRANCH   1   3
ATOM      3  C   UNL     1      -1.352  -0.468   0.335  0.00  0.00    +0.000 C 
ATOM      4  C   UNL     1      -1.505  -1.992   0.316  0.00  0.00    +0.000 C 
BRANCH   4   5
ATOM      5  C   UNL     1      -1.658  -3.516   0.296  0.00  0.00    +0.000 C 
ATOM      6  C   UNL     1      -1.810  -5.040   0.278  0.00  0.00    +0.000 C 
BRANCH   6   7
ATOM      7  C   UNL     1      -1.962  -6.564   0.259  0.00  0.00    +0.000 C 
ATOM      8  C   UNL     1      -2.114  -8.088   0.240  0.00  0.00    +0.000 C 
BRANCH   8   9
ATOM      9  C   UNL     1      -2.265  -9.612   0.222  0.00  0.00    +0.000 C 
ATOM     10  C   UNL     1      -2.417 -11.136   0.204  0.00  0.00    +0.000 C 
BRANCH  10  11
ATOM     11  O   UNL     1      -2.548 -12.457   0.188  0.00  0.00    +0.000 OA
ATOM     12  H   UNL     1      -3.402 -12.717   0.573  0.00  0.00    +0.000 HD
ENDBRANCH  10  11
ENDBRANCH   8   9
ENDBRANCH   6   7
ENDBRANCH   4   5
ENDBRANCH   1   3
BRANCH   2  13
ATOM     13  C   UNL     1      -0.933   3.659   0.388  0.00  0.00    +0.000 C 
BRANCH  13  14
ATOM     14  O   UNL     1      -2.046   4.408   0.695  0.00  0.00    +0.000 OA
ATOM     15  H   UNL     1      -1.851   5.360   0.684  0.00  0.00    +0.000 HD
ENDBRANCH  13  14
BRANCH  13  16
ATOM     16  C   UNL     1       0.286   4.329   0.109  0.00  0.00    +0.000 C 
ATOM     17  C   UNL     1       1.318   4.895  -0.127  0.00  0.00    +0.000 C 
BRANCH  17  18
ATOM     18  C   UNL     1       2.635   5.615  -0.428  0.00  0.00    +0.000 C 
ATOM     19  C   UNL     1       3.668   6.180  -0.664  0.00  0.00    +0.000 C 
BRANCH  19  20
ATOM     20  C   UNL     1       4.889   6.849  -0.943  0.00  0.00    +0.000 C 
BRANCH  20  21
ATOM     21  C   UNL     1       5.049   8.259  -0.839  0.00  0.00    +0.000 C 
ATOM     22  C   UNL     1       5.184   9.583  -0.737  0.00  0.00    +0.000 C 
ENDBRANCH  20  21
BRANCH  20  23
ATOM     23  O   UNL     1       5.975   6.093  -1.336  0.00  0.00    +0.000 OA
ATOM     24  H   UNL     1       5.761   5.145  -1.375  0.00  0.00    +0.000 HD
ENDBRANCH  20  23
ENDBRANCH  19  20
ENDBRANCH  17  18
ENDBRANCH  13  16
ENDBRANCH   2  13
TORSDOF 12
