MODEL 1
REMARK VINA RESULT:      -5.8      0.000      0.000
REMARK  Name = 86311066_OplopantriolA.pdbqt.pdb
REMARK  12 active torsions:
REMARK  status: ('A' for Active; 'I' for Inactive)
REMARK    1  A    between atoms: C_1  and  C_3
REMARK    2  A    between atoms: C_2  and  C_13
REMARK    3  A    between atoms: C_4  and  C_5
REMARK    4  A    between atoms: C_6  and  C_7
REMARK    5  A    between atoms: C_8  and  C_9
REMARK    6  A    between atoms: C_10  and  O_11
REMARK    7  A    between atoms: C_13  and  O_14
REMARK    8  A    between atoms: C_13  and  C_16
REMARK    9  A    between atoms: C_17  and  C_18
REMARK   10  A    between atoms: C_19  and  C_20
REMARK   11  A    between atoms: C_20  and  C_21
REMARK   12  A    between atoms: C_20  and  O_23
REMARK                            x       y       z     vdW  Elec       q    Type
REMARK                         _______ _______ _______ _____ _____    ______ ____
ROOT
ATOM      1  C   UNL     1     139.703 128.062 132.247  0.00  0.00    +0.000 C 
ATOM      2  C   UNL     1     139.898 127.092 131.565  0.00  0.00    +0.000 C 
ENDROOT
BRANCH   1   3
ATOM      3  C   UNL     1     139.454 129.298 133.115  0.00  0.00    +0.000 C 
ATOM      4  C   UNL     1     139.206 130.535 133.983  0.00  0.00    +0.000 C 
BRANCH   4   5
ATOM      5  C   UNL     1     138.957 131.771 134.853  0.00  0.00    +0.000 C 
ATOM      6  C   UNL     1     138.707 133.007 135.723  0.00  0.00    +0.000 C 
BRANCH   6   7
ATOM      7  C   UNL     1     138.457 134.242 136.593  0.00  0.00    +0.000 C 
ATOM      8  C   UNL     1     138.207 135.478 137.463  0.00  0.00    +0.000 C 
BRANCH   8   9
ATOM      9  C   UNL     1     137.959 136.713 138.333  0.00  0.00    +0.000 C 
ATOM     10  C   UNL     1     137.709 137.949 139.204  0.00  0.00    +0.000 C 
BRANCH  10  11
ATOM     11  O   UNL     1     137.493 139.019 139.959  0.00  0.00    +0.000 OA
ATOM     12  H   UNL     1     136.588 139.349 139.827  0.00  0.00    +0.000 HD
ENDBRANCH  10  11
ENDBRANCH   8   9
ENDBRANCH   6   7
ENDBRANCH   4   5
ENDBRANCH   1   3
BRANCH   2  13
ATOM     13  C   UNL     1     140.129 125.948 130.762  0.00  0.00    +0.000 C 
BRANCH  13  14
ATOM     14  O   UNL     1     139.700 124.734 131.246  0.00  0.00    +0.000 OA
ATOM     15  H   UNL     1     139.056 124.843 131.966  0.00  0.00    +0.000 HD
ENDBRANCH  13  14
BRANCH  13  16
ATOM     16  C   UNL     1     140.774 125.992 129.499  0.00  0.00    +0.000 C 
ATOM     17  C   UNL     1     141.320 126.029 128.430  0.00  0.00    +0.000 C 
BRANCH  17  18
ATOM     18  C   UNL     1     142.017 126.078 127.068  0.00  0.00    +0.000 C 
ATOM     19  C   UNL     1     142.564 126.117 126.000  0.00  0.00    +0.000 C 
BRANCH  19  20
ATOM     20  C   UNL     1     143.210 126.163 124.736  0.00  0.00    +0.000 C 
BRANCH  20  21
ATOM     21  C   UNL     1     142.510 126.306 123.506  0.00  0.00    +0.000 C 
ATOM     22  C   UNL     1     141.864 126.431 122.345  0.00  0.00    +0.000 C 
ENDBRANCH  20  21
BRANCH  20  23
ATOM     23  O   UNL     1     144.586 126.063 124.700  0.00  0.00    +0.000 OA
ATOM     24  H   UNL     1     144.915 125.927 123.795  0.00  0.00    +0.000 HD
ENDBRANCH  20  23
ENDBRANCH  19  20
ENDBRANCH  17  18
ENDBRANCH  13  16
ENDBRANCH   2  13
TORSDOF 12
ENDMDL
MODEL 2
REMARK VINA RESULT:      -5.7      6.910      9.708
REMARK  Name = 86311066_OplopantriolA.pdbqt.pdb
REMARK  12 active torsions:
REMARK  status: ('A' for Active; 'I' for Inactive)
REMARK    1  A    between atoms: C_1  and  C_3
REMARK    2  A    between atoms: C_2  and  C_13
REMARK    3  A    between atoms: C_4  and  C_5
REMARK    4  A    between atoms: C_6  and  C_7
REMARK    5  A    between atoms: C_8  and  C_9
REMARK    6  A    between atoms: C_10  and  O_11
REMARK    7  A    between atoms: C_13  and  O_14
REMARK    8  A    between atoms: C_13  and  C_16
REMARK    9  A    between atoms: C_17  and  C_18
REMARK   10  A    between atoms: C_19  and  C_20
REMARK   11  A    between atoms: C_20  and  C_21
REMARK   12  A    between atoms: C_20  and  O_23
REMARK                            x       y       z     vdW  Elec       q    Type
REMARK                         _______ _______ _______ _____ _____    ______ ____
ROOT
ATOM      1  C   UNL     1     139.015 125.376 131.993  0.00  0.00    +0.000 C 
ATOM      2  C   UNL     1     139.920 125.957 131.457  0.00  0.00    +0.000 C 
ENDROOT
BRANCH   1   3
ATOM      3  C   UNL     1     137.861 124.636 132.675  0.00  0.00    +0.000 C 
ATOM      4  C   UNL     1     136.706 123.896 133.356  0.00  0.00    +0.000 C 
BRANCH   4   5
ATOM      5  C   UNL     1     135.550 123.157 134.038  0.00  0.00    +0.000 C 
ATOM      6  C   UNL     1     134.394 122.417 134.718  0.00  0.00    +0.000 C 
BRANCH   6   7
ATOM      7  C   UNL     1     133.238 121.677 135.398  0.00  0.00    +0.000 C 
ATOM      8  C   UNL     1     132.082 120.938 136.079  0.00  0.00    +0.000 C 
BRANCH   8   9
ATOM      9  C   UNL     1     130.926 120.200 136.760  0.00  0.00    +0.000 C 
ATOM     10  C   UNL     1     129.770 119.461 137.440  0.00  0.00    +0.000 C 
BRANCH  10  11
ATOM     11  O   UNL     1     128.768 118.821 138.031  0.00  0.00    +0.000 OA
ATOM     12  H   UNL     1     127.971 118.852 137.474  0.00  0.00    +0.000 HD
ENDBRANCH  10  11
ENDBRANCH   8   9
ENDBRANCH   6   7
ENDBRANCH   4   5
ENDBRANCH   1   3
BRANCH   2  13
ATOM     13  C   UNL     1     140.987 126.642 130.826  0.00  0.00    +0.000 C 
BRANCH  13  14
ATOM     14  O   UNL     1     141.647 127.602 131.559  0.00  0.00    +0.000 OA
ATOM     15  H   UNL     1     142.217 128.153 130.997  0.00  0.00    +0.000 HD
ENDBRANCH  13  14
BRANCH  13  16
ATOM     16  C   UNL     1     141.404 126.393 129.494  0.00  0.00    +0.000 C 
ATOM     17  C   UNL     1     141.757 126.183 128.366  0.00  0.00    +0.000 C 
BRANCH  17  18
ATOM     18  C   UNL     1     142.208 125.917 126.927  0.00  0.00    +0.000 C 
ATOM     19  C   UNL     1     142.563 125.709 125.799  0.00  0.00    +0.000 C 
BRANCH  19  20
ATOM     20  C   UNL     1     142.983 125.462 124.465  0.00  0.00    +0.000 C 
BRANCH  20  21
ATOM     21  C   UNL     1     142.533 126.224 123.351  0.00  0.00    +0.000 C 
ATOM     22  C   UNL     1     142.105 126.949 122.315  0.00  0.00    +0.000 C 
ENDBRANCH  20  21
BRANCH  20  23
ATOM     23  O   UNL     1     143.871 124.430 124.239  0.00  0.00    +0.000 OA
ATOM     24  H   UNL     1     143.948 123.843 125.010  0.00  0.00    +0.000 HD
ENDBRANCH  20  23
ENDBRANCH  19  20
ENDBRANCH  17  18
ENDBRANCH  13  16
ENDBRANCH   2  13
TORSDOF 12
ENDMDL
MODEL 3
REMARK VINA RESULT:      -5.1      4.906      6.657
REMARK  Name = 86311066_OplopantriolA.pdbqt.pdb
REMARK  12 active torsions:
REMARK  status: ('A' for Active; 'I' for Inactive)
REMARK    1  A    between atoms: C_1  and  C_3
REMARK    2  A    between atoms: C_2  and  C_13
REMARK    3  A    between atoms: C_4  and  C_5
REMARK    4  A    between atoms: C_6  and  C_7
REMARK    5  A    between atoms: C_8  and  C_9
REMARK    6  A    between atoms: C_10  and  O_11
REMARK    7  A    between atoms: C_13  and  O_14
REMARK    8  A    between atoms: C_13  and  C_16
REMARK    9  A    between atoms: C_17  and  C_18
REMARK   10  A    between atoms: C_19  and  C_20
REMARK   11  A    between atoms: C_20  and  C_21
REMARK   12  A    between atoms: C_20  and  O_23
REMARK                            x       y       z     vdW  Elec       q    Type
REMARK                         _______ _______ _______ _____ _____    ______ ____
ROOT
ATOM      1  C   UNL     1     139.333 129.547 133.177  0.00  0.00    +0.000 C 
ATOM      2  C   UNL     1     139.364 128.426 132.746  0.00  0.00    +0.000 C 
ENDROOT
BRANCH   1   3
ATOM      3  C   UNL     1     139.296 130.976 133.725  0.00  0.00    +0.000 C 
ATOM      4  C   UNL     1     139.259 132.406 134.273  0.00  0.00    +0.000 C 
BRANCH   4   5
ATOM      5  C   UNL     1     139.222 133.835 134.823  0.00  0.00    +0.000 C 
ATOM      6  C   UNL     1     139.187 135.265 135.371  0.00  0.00    +0.000 C 
BRANCH   6   7
ATOM      7  C   UNL     1     139.151 136.694 135.920  0.00  0.00    +0.000 C 
ATOM      8  C   UNL     1     139.115 138.123 136.469  0.00  0.00    +0.000 C 
BRANCH   8   9
ATOM      9  C   UNL     1     139.079 139.552 137.020  0.00  0.00    +0.000 C 
ATOM     10  C   UNL     1     139.043 140.981 137.570  0.00  0.00    +0.000 C 
BRANCH  10  11
ATOM     11  O   UNL     1     139.012 142.220 138.047  0.00  0.00    +0.000 OA
ATOM     12  H   UNL     1     138.526 142.246 138.889  0.00  0.00    +0.000 HD
ENDBRANCH  10  11
ENDBRANCH   8   9
ENDBRANCH   6   7
ENDBRANCH   4   5
ENDBRANCH   1   3
BRANCH   2  13
ATOM     13  C   UNL     1     139.400 127.104 132.239  0.00  0.00    +0.000 C 
BRANCH  13  14
ATOM     14  O   UNL     1     138.775 126.866 131.037  0.00  0.00    +0.000 OA
ATOM     15  H   UNL     1     139.172 126.112 130.570  0.00  0.00    +0.000 HD
ENDBRANCH  13  14
BRANCH  13  16
ATOM     16  C   UNL     1     140.040 126.025 132.901  0.00  0.00    +0.000 C 
ATOM     17  C   UNL     1     140.583 125.112 133.461  0.00  0.00    +0.000 C 
BRANCH  17  18
ATOM     18  C   UNL     1     141.278 123.949 134.174  0.00  0.00    +0.000 C 
ATOM     19  C   UNL     1     141.822 123.036 134.733  0.00  0.00    +0.000 C 
BRANCH  19  20
ATOM     20  C   UNL     1     142.465 121.956 135.395  0.00  0.00    +0.000 C 
BRANCH  20  21
ATOM     21  C   UNL     1     143.864 121.711 135.313  0.00  0.00    +0.000 C 
ATOM     22  C   UNL     1     145.176 121.473 135.249  0.00  0.00    +0.000 C 
ENDBRANCH  20  21
BRANCH  20  23
ATOM     23  O   UNL     1     141.692 121.101 136.154  0.00  0.00    +0.000 OA
ATOM     24  H   UNL     1     141.959 121.107 137.090  0.00  0.00    +0.000 HD
ENDBRANCH  20  23
ENDBRANCH  19  20
ENDBRANCH  17  18
ENDBRANCH  13  16
ENDBRANCH   2  13
TORSDOF 12
ENDMDL
MODEL 4
REMARK VINA RESULT:      -4.9      7.733     14.577
REMARK  Name = 86311066_OplopantriolA.pdbqt.pdb
REMARK  12 active torsions:
REMARK  status: ('A' for Active; 'I' for Inactive)
REMARK    1  A    between atoms: C_1  and  C_3
REMARK    2  A    between atoms: C_2  and  C_13
REMARK    3  A    between atoms: C_4  and  C_5
REMARK    4  A    between atoms: C_6  and  C_7
REMARK    5  A    between atoms: C_8  and  C_9
REMARK    6  A    between atoms: C_10  and  O_11
REMARK    7  A    between atoms: C_13  and  O_14
REMARK    8  A    between atoms: C_13  and  C_16
REMARK    9  A    between atoms: C_17  and  C_18
REMARK   10  A    between atoms: C_19  and  C_20
REMARK   11  A    between atoms: C_20  and  C_21
REMARK   12  A    between atoms: C_20  and  O_23
REMARK                            x       y       z     vdW  Elec       q    Type
REMARK                         _______ _______ _______ _____ _____    ______ ____
ROOT
ATOM      1  C   UNL     1     137.585 123.050 135.766  0.00  0.00    +0.000 C 
ATOM      2  C   UNL     1     137.051 122.598 136.742  0.00  0.00    +0.000 C 
ENDROOT
BRANCH   1   3
ATOM      3  C   UNL     1     138.266 123.624 134.521  0.00  0.00    +0.000 C 
ATOM      4  C   UNL     1     138.948 124.198 133.275  0.00  0.00    +0.000 C 
BRANCH   4   5
ATOM      5  C   UNL     1     139.630 124.772 132.029  0.00  0.00    +0.000 C 
ATOM      6  C   UNL     1     140.315 125.345 130.785  0.00  0.00    +0.000 C 
BRANCH   6   7
ATOM      7  C   UNL     1     140.998 125.919 129.540  0.00  0.00    +0.000 C 
ATOM      8  C   UNL     1     141.682 126.493 128.295  0.00  0.00    +0.000 C 
BRANCH   8   9
ATOM      9  C   UNL     1     142.366 127.065 127.050  0.00  0.00    +0.000 C 
ATOM     10  C   UNL     1     143.050 127.639 125.805  0.00  0.00    +0.000 C 
BRANCH  10  11
ATOM     11  O   UNL     1     143.643 128.135 124.726  0.00  0.00    +0.000 OA
ATOM     12  H   UNL     1     144.602 127.984 124.768  0.00  0.00    +0.000 HD
ENDBRANCH  10  11
ENDBRANCH   8   9
ENDBRANCH   6   7
ENDBRANCH   4   5
ENDBRANCH   1   3
BRANCH   2  13
ATOM     13  C   UNL     1     136.422 122.066 137.895  0.00  0.00    +0.000 C 
BRANCH  13  14
ATOM     14  O   UNL     1     135.983 120.763 137.835  0.00  0.00    +0.000 OA
ATOM     15  H   UNL     1     135.931 120.362 138.718  0.00  0.00    +0.000 HD
ENDBRANCH  13  14
BRANCH  13  16
ATOM     16  C   UNL     1     136.226 122.799 139.093  0.00  0.00    +0.000 C 
ATOM     17  C   UNL     1     136.058 123.420 140.107  0.00  0.00    +0.000 C 
BRANCH  17  18
ATOM     18  C   UNL     1     135.842 124.212 141.399  0.00  0.00    +0.000 C 
ATOM     19  C   UNL     1     135.673 124.833 142.412  0.00  0.00    +0.000 C 
BRANCH  19  20
ATOM     20  C   UNL     1     135.473 125.569 143.610  0.00  0.00    +0.000 C 
BRANCH  20  21
ATOM     21  C   UNL     1     136.436 126.469 144.145  0.00  0.00    +0.000 C 
ATOM     22  C   UNL     1     137.338 127.307 144.661  0.00  0.00    +0.000 C 
ENDBRANCH  20  21
BRANCH  20  23
ATOM     23  O   UNL     1     134.283 125.401 144.291  0.00  0.00    +0.000 OA
ATOM     24  H   UNL     1     134.398 125.507 145.251  0.00  0.00    +0.000 HD
ENDBRANCH  20  23
ENDBRANCH  19  20
ENDBRANCH  17  18
ENDBRANCH  13  16
ENDBRANCH   2  13
TORSDOF 12
ENDMDL
MODEL 5
REMARK VINA RESULT:      -4.7      8.043     13.278
REMARK  Name = 86311066_OplopantriolA.pdbqt.pdb
REMARK  12 active torsions:
REMARK  status: ('A' for Active; 'I' for Inactive)
REMARK    1  A    between atoms: C_1  and  C_3
REMARK    2  A    between atoms: C_2  and  C_13
REMARK    3  A    between atoms: C_4  and  C_5
REMARK    4  A    between atoms: C_6  and  C_7
REMARK    5  A    between atoms: C_8  and  C_9
REMARK    6  A    between atoms: C_10  and  O_11
REMARK    7  A    between atoms: C_13  and  O_14
REMARK    8  A    between atoms: C_13  and  C_16
REMARK    9  A    between atoms: C_17  and  C_18
REMARK   10  A    between atoms: C_19  and  C_20
REMARK   11  A    between atoms: C_20  and  C_21
REMARK   12  A    between atoms: C_20  and  O_23
REMARK                            x       y       z     vdW  Elec       q    Type
REMARK                         _______ _______ _______ _____ _____    ______ ____
ROOT
ATOM      1  C   UNL     1     137.414 124.251 132.976  0.00  0.00    +0.000 C 
ATOM      2  C   UNL     1     138.297 125.024 132.720  0.00  0.00    +0.000 C 
ENDROOT
BRANCH   1   3
ATOM      3  C   UNL     1     136.287 123.268 133.302  0.00  0.00    +0.000 C 
ATOM      4  C   UNL     1     135.159 122.284 133.628  0.00  0.00    +0.000 C 
BRANCH   4   5
ATOM      5  C   UNL     1     134.031 121.301 133.954  0.00  0.00    +0.000 C 
ATOM      6  C   UNL     1     132.901 120.318 134.279  0.00  0.00    +0.000 C 
BRANCH   6   7
ATOM      7  C   UNL     1     131.772 119.336 134.604  0.00  0.00    +0.000 C 
ATOM      8  C   UNL     1     130.643 118.354 134.929  0.00  0.00    +0.000 C 
BRANCH   8   9
ATOM      9  C   UNL     1     129.514 117.371 135.256  0.00  0.00    +0.000 C 
ATOM     10  C   UNL     1     128.386 116.388 135.583  0.00  0.00    +0.000 C 
BRANCH  10  11
ATOM     11  O   UNL     1     127.408 115.537 135.866  0.00  0.00    +0.000 OA
ATOM     12  H   UNL     1     127.762 114.752 136.319  0.00  0.00    +0.000 HD
ENDBRANCH  10  11
ENDBRANCH   8   9
ENDBRANCH   6   7
ENDBRANCH   4   5
ENDBRANCH   1   3
BRANCH   2  13
ATOM     13  C   UNL     1     139.340 125.935 132.419  0.00  0.00    +0.000 C 
BRANCH  13  14
ATOM     14  O   UNL     1     140.406 125.462 131.689  0.00  0.00    +0.000 OA
ATOM     15  H   UNL     1     141.225 125.942 131.900  0.00  0.00    +0.000 HD
ENDBRANCH  13  14
BRANCH  13  16
ATOM     16  C   UNL     1     139.339 127.293 132.827  0.00  0.00    +0.000 C 
ATOM     17  C   UNL     1     139.338 128.443 133.173  0.00  0.00    +0.000 C 
BRANCH  17  18
ATOM     18  C   UNL     1     139.334 129.909 133.614  0.00  0.00    +0.000 C 
ATOM     19  C   UNL     1     139.331 131.059 133.961  0.00  0.00    +0.000 C 
BRANCH  19  20
ATOM     20  C   UNL     1     139.327 132.418 134.372  0.00  0.00    +0.000 C 
BRANCH  20  21
ATOM     21  C   UNL     1     139.752 133.488 133.536  0.00  0.00    +0.000 C 
ATOM     22  C   UNL     1     140.165 134.487 132.753  0.00  0.00    +0.000 C 
ENDBRANCH  20  21
BRANCH  20  23
ATOM     23  O   UNL     1     138.890 132.715 135.647  0.00  0.00    +0.000 OA
ATOM     24  H   UNL     1     138.192 133.393 135.641  0.00  0.00    +0.000 HD
ENDBRANCH  20  23
ENDBRANCH  19  20
ENDBRANCH  17  18
ENDBRANCH  13  16
ENDBRANCH   2  13
TORSDOF 12
ENDMDL
MODEL 6
REMARK VINA RESULT:      -4.6      4.429     16.540
REMARK  Name = 86311066_OplopantriolA.pdbqt.pdb
REMARK  12 active torsions:
REMARK  status: ('A' for Active; 'I' for Inactive)
REMARK    1  A    between atoms: C_1  and  C_3
REMARK    2  A    between atoms: C_2  and  C_13
REMARK    3  A    between atoms: C_4  and  C_5
REMARK    4  A    between atoms: C_6  and  C_7
REMARK    5  A    between atoms: C_8  and  C_9
REMARK    6  A    between atoms: C_10  and  O_11
REMARK    7  A    between atoms: C_13  and  O_14
REMARK    8  A    between atoms: C_13  and  C_16
REMARK    9  A    between atoms: C_17  and  C_18
REMARK   10  A    between atoms: C_19  and  C_20
REMARK   11  A    between atoms: C_20  and  C_21
REMARK   12  A    between atoms: C_20  and  O_23
REMARK                            x       y       z     vdW  Elec       q    Type
REMARK                         _______ _______ _______ _____ _____    ______ ____
ROOT
ATOM      1  C   UNL     1     138.484 134.811 138.562  0.00  0.00    +0.000 C 
ATOM      2  C   UNL     1     138.334 135.619 139.438  0.00  0.00    +0.000 C 
ENDROOT
BRANCH   1   3
ATOM      3  C   UNL     1     138.675 133.782 137.445  0.00  0.00    +0.000 C 
ATOM      4  C   UNL     1     138.866 132.752 136.327  0.00  0.00    +0.000 C 
BRANCH   4   5
ATOM      5  C   UNL     1     139.056 131.721 135.210  0.00  0.00    +0.000 C 
ATOM      6  C   UNL     1     139.245 130.689 134.095  0.00  0.00    +0.000 C 
BRANCH   6   7
ATOM      7  C   UNL     1     139.436 129.657 132.979  0.00  0.00    +0.000 C 
ATOM      8  C   UNL     1     139.626 128.625 131.863  0.00  0.00    +0.000 C 
BRANCH   8   9
ATOM      9  C   UNL     1     139.817 127.594 130.746  0.00  0.00    +0.000 C 
ATOM     10  C   UNL     1     140.009 126.563 129.630  0.00  0.00    +0.000 C 
BRANCH  10  11
ATOM     11  O   UNL     1     140.174 125.669 128.663  0.00  0.00    +0.000 OA
ATOM     12  H   UNL     1     139.325 125.478 128.230  0.00  0.00    +0.000 HD
ENDBRANCH  10  11
ENDBRANCH   8   9
ENDBRANCH   6   7
ENDBRANCH   4   5
ENDBRANCH   1   3
BRANCH   2  13
ATOM     13  C   UNL     1     138.159 136.572 140.472  0.00  0.00    +0.000 C 
BRANCH  13  14
ATOM     14  O   UNL     1     138.876 137.743 140.385  0.00  0.00    +0.000 OA
ATOM     15  H   UNL     1     139.792 137.624 140.686  0.00  0.00    +0.000 HD
ENDBRANCH  13  14
BRANCH  13  16
ATOM     16  C   UNL     1     137.291 136.382 141.578  0.00  0.00    +0.000 C 
ATOM     17  C   UNL     1     136.557 136.223 142.514  0.00  0.00    +0.000 C 
BRANCH  17  18
ATOM     18  C   UNL     1     135.622 136.021 143.709  0.00  0.00    +0.000 C 
ATOM     19  C   UNL     1     134.889 135.862 144.647  0.00  0.00    +0.000 C 
BRANCH  19  20
ATOM     20  C   UNL     1     134.022 135.676 145.756  0.00  0.00    +0.000 C 
BRANCH  20  21
ATOM     21  C   UNL     1     132.774 134.999 145.668  0.00  0.00    +0.000 C 
ATOM     22  C   UNL     1     131.602 134.363 145.600  0.00  0.00    +0.000 C 
ENDBRANCH  20  21
BRANCH  20  23
ATOM     23  O   UNL     1     134.410 136.178 146.982  0.00  0.00    +0.000 OA
ATOM     24  H   UNL     1     133.803 135.907 147.693  0.00  0.00    +0.000 HD
ENDBRANCH  20  23
ENDBRANCH  19  20
ENDBRANCH  17  18
ENDBRANCH  13  16
ENDBRANCH   2  13
TORSDOF 12
ENDMDL
MODEL 7
REMARK VINA RESULT:      -4.6     10.215     11.541
REMARK  Name = 86311066_OplopantriolA.pdbqt.pdb
REMARK  12 active torsions:
REMARK  status: ('A' for Active; 'I' for Inactive)
REMARK    1  A    between atoms: C_1  and  C_3
REMARK    2  A    between atoms: C_2  and  C_13
REMARK    3  A    between atoms: C_4  and  C_5
REMARK    4  A    between atoms: C_6  and  C_7
REMARK    5  A    between atoms: C_8  and  C_9
REMARK    6  A    between atoms: C_10  and  O_11
REMARK    7  A    between atoms: C_13  and  O_14
REMARK    8  A    between atoms: C_13  and  C_16
REMARK    9  A    between atoms: C_17  and  C_18
REMARK   10  A    between atoms: C_19  and  C_20
REMARK   11  A    between atoms: C_20  and  C_21
REMARK   12  A    between atoms: C_20  and  O_23
REMARK                            x       y       z     vdW  Elec       q    Type
REMARK                         _______ _______ _______ _____ _____    ______ ____
ROOT
ATOM      1  C   UNL     1     135.709 123.776 140.741  0.00  0.00    +0.000 C 
ATOM      2  C   UNL     1     135.609 123.225 139.678  0.00  0.00    +0.000 C 
ENDROOT
BRANCH   1   3
ATOM      3  C   UNL     1     135.837 124.477 142.096  0.00  0.00    +0.000 C 
ATOM      4  C   UNL     1     135.964 125.179 143.451  0.00  0.00    +0.000 C 
BRANCH   4   5
ATOM      5  C   UNL     1     136.093 125.881 144.807  0.00  0.00    +0.000 C 
ATOM      6  C   UNL     1     136.224 126.582 146.162  0.00  0.00    +0.000 C 
BRANCH   6   7
ATOM      7  C   UNL     1     136.353 127.284 147.518  0.00  0.00    +0.000 C 
ATOM      8  C   UNL     1     136.483 127.985 148.873  0.00  0.00    +0.000 C 
BRANCH   8   9
ATOM      9  C   UNL     1     136.614 128.686 150.228  0.00  0.00    +0.000 C 
ATOM     10  C   UNL     1     136.745 129.388 151.583  0.00  0.00    +0.000 C 
BRANCH  10  11
ATOM     11  O   UNL     1     136.858 129.996 152.758  0.00  0.00    +0.000 OA
ATOM     12  H   UNL     1     136.592 129.396 153.476  0.00  0.00    +0.000 HD
ENDBRANCH  10  11
ENDBRANCH   8   9
ENDBRANCH   6   7
ENDBRANCH   4   5
ENDBRANCH   1   3
BRANCH   2  13
ATOM     13  C   UNL     1     135.490 122.576 138.425  0.00  0.00    +0.000 C 
BRANCH  13  14
ATOM     14  O   UNL     1     134.360 121.822 138.204  0.00  0.00    +0.000 OA
ATOM     15  H   UNL     1     133.730 121.897 138.941  0.00  0.00    +0.000 HD
ENDBRANCH  13  14
BRANCH  13  16
ATOM     16  C   UNL     1     136.465 122.662 137.398  0.00  0.00    +0.000 C 
ATOM     17  C   UNL     1     137.290 122.737 136.529  0.00  0.00    +0.000 C 
BRANCH  17  18
ATOM     18  C   UNL     1     138.343 122.833 135.422  0.00  0.00    +0.000 C 
ATOM     19  C   UNL     1     139.169 122.908 134.554  0.00  0.00    +0.000 C 
BRANCH  19  20
ATOM     20  C   UNL     1     140.147 122.997 133.528  0.00  0.00    +0.000 C 
BRANCH  20  21
ATOM     21  C   UNL     1     141.527 122.720 133.738  0.00  0.00    +0.000 C 
ATOM     22  C   UNL     1     142.824 122.476 133.937  0.00  0.00    +0.000 C 
ENDBRANCH  20  21
BRANCH  20  23
ATOM     23  O   UNL     1     139.738 123.372 132.264  0.00  0.00    +0.000 OA
ATOM     24  H   UNL     1     138.770 123.447 132.205  0.00  0.00    +0.000 HD
ENDBRANCH  20  23
ENDBRANCH  19  20
ENDBRANCH  17  18
ENDBRANCH  13  16
ENDBRANCH   2  13
TORSDOF 12
ENDMDL
MODEL 8
REMARK VINA RESULT:      -4.4     29.340     38.092
REMARK  Name = 86311066_OplopantriolA.pdbqt.pdb
REMARK  12 active torsions:
REMARK  status: ('A' for Active; 'I' for Inactive)
REMARK    1  A    between atoms: C_1  and  C_3
REMARK    2  A    between atoms: C_2  and  C_13
REMARK    3  A    between atoms: C_4  and  C_5
REMARK    4  A    between atoms: C_6  and  C_7
REMARK    5  A    between atoms: C_8  and  C_9
REMARK    6  A    between atoms: C_10  and  O_11
REMARK    7  A    between atoms: C_13  and  O_14
REMARK    8  A    between atoms: C_13  and  C_16
REMARK    9  A    between atoms: C_17  and  C_18
REMARK   10  A    between atoms: C_19  and  C_20
REMARK   11  A    between atoms: C_20  and  C_21
REMARK   12  A    between atoms: C_20  and  O_23
REMARK                            x       y       z     vdW  Elec       q    Type
REMARK                         _______ _______ _______ _____ _____    ______ ____
ROOT
ATOM      1  C   UNL     1     142.492 122.357  97.328  0.00  0.00    +0.000 C 
ATOM      2  C   UNL     1     142.047 122.951  98.272  0.00  0.00    +0.000 C 
ENDROOT
BRANCH   1   3
ATOM      3  C   UNL     1     143.058 121.598  96.125  0.00  0.00    +0.000 C 
ATOM      4  C   UNL     1     143.627 120.838  94.922  0.00  0.00    +0.000 C 
BRANCH   4   5
ATOM      5  C   UNL     1     144.195 120.080  93.719  0.00  0.00    +0.000 C 
ATOM      6  C   UNL     1     144.762 119.322  92.514  0.00  0.00    +0.000 C 
BRANCH   6   7
ATOM      7  C   UNL     1     145.329 118.563  91.311  0.00  0.00    +0.000 C 
ATOM      8  C   UNL     1     145.896 117.805  90.107  0.00  0.00    +0.000 C 
BRANCH   8   9
ATOM      9  C   UNL     1     146.464 117.046  88.904  0.00  0.00    +0.000 C 
ATOM     10  C   UNL     1     147.033 116.287  87.701  0.00  0.00    +0.000 C 
BRANCH  10  11
ATOM     11  O   UNL     1     147.525 115.629  86.659  0.00  0.00    +0.000 OA
ATOM     12  H   UNL     1     146.809 115.358  86.061  0.00  0.00    +0.000 HD
ENDBRANCH  10  11
ENDBRANCH   8   9
ENDBRANCH   6   7
ENDBRANCH   4   5
ENDBRANCH   1   3
BRANCH   2  13
ATOM     13  C   UNL     1     141.524 123.653  99.385  0.00  0.00    +0.000 C 
BRANCH  13  14
ATOM     14  O   UNL     1     140.187 123.490  99.669  0.00  0.00    +0.000 OA
ATOM     15  H   UNL     1     139.624 123.895  98.989  0.00  0.00    +0.000 HD
ENDBRANCH  13  14
BRANCH  13  16
ATOM     16  C   UNL     1     142.299 124.506 100.213  0.00  0.00    +0.000 C 
ATOM     17  C   UNL     1     142.954 125.228 100.913  0.00  0.00    +0.000 C 
BRANCH  17  18
ATOM     18  C   UNL     1     143.788 126.151 101.805  0.00  0.00    +0.000 C 
ATOM     19  C   UNL     1     144.442 126.875 102.505  0.00  0.00    +0.000 C 
BRANCH  19  20
ATOM     20  C   UNL     1     145.216 127.732 103.332  0.00  0.00    +0.000 C 
BRANCH  20  21
ATOM     21  C   UNL     1     146.543 127.428 103.747  0.00  0.00    +0.000 C 
ATOM     22  C   UNL     1     147.787 127.132 104.126  0.00  0.00    +0.000 C 
ENDBRANCH  20  21
BRANCH  20  23
ATOM     23  O   UNL     1     144.651 128.918 103.755  0.00  0.00    +0.000 OA
ATOM     24  H   UNL     1     145.188 129.687 103.497  0.00  0.00    +0.000 HD
ENDBRANCH  20  23
ENDBRANCH  19  20
ENDBRANCH  17  18
ENDBRANCH  13  16
ENDBRANCH   2  13
TORSDOF 12
ENDMDL
MODEL 9
REMARK VINA RESULT:      -4.4     16.323     20.923
REMARK  Name = 86311066_OplopantriolA.pdbqt.pdb
REMARK  12 active torsions:
REMARK  status: ('A' for Active; 'I' for Inactive)
REMARK    1  A    between atoms: C_1  and  C_3
REMARK    2  A    between atoms: C_2  and  C_13
REMARK    3  A    between atoms: C_4  and  C_5
REMARK    4  A    between atoms: C_6  and  C_7
REMARK    5  A    between atoms: C_8  and  C_9
REMARK    6  A    between atoms: C_10  and  O_11
REMARK    7  A    between atoms: C_13  and  O_14
REMARK    8  A    between atoms: C_13  and  C_16
REMARK    9  A    between atoms: C_17  and  C_18
REMARK   10  A    between atoms: C_19  and  C_20
REMARK   11  A    between atoms: C_20  and  C_21
REMARK   12  A    between atoms: C_20  and  O_23
REMARK                            x       y       z     vdW  Elec       q    Type
REMARK                         _______ _______ _______ _____ _____    ______ ____
ROOT
ATOM      1  C   UNL     1     150.476 114.965 119.308  0.00  0.00    +0.000 C 
ATOM      2  C   UNL     1     150.691 114.743 118.147  0.00  0.00    +0.000 C 
ENDROOT
BRANCH   1   3
ATOM      3  C   UNL     1     150.201 115.248 120.787  0.00  0.00    +0.000 C 
ATOM      4  C   UNL     1     149.926 115.532 122.267  0.00  0.00    +0.000 C 
BRANCH   4   5
ATOM      5  C   UNL     1     149.651 115.816 123.747  0.00  0.00    +0.000 C 
ATOM      6  C   UNL     1     149.375 116.099 125.227  0.00  0.00    +0.000 C 
BRANCH   6   7
ATOM      7  C   UNL     1     149.099 116.383 126.706  0.00  0.00    +0.000 C 
ATOM      8  C   UNL     1     148.823 116.667 128.186  0.00  0.00    +0.000 C 
BRANCH   8   9
ATOM      9  C   UNL     1     148.547 116.949 129.666  0.00  0.00    +0.000 C 
ATOM     10  C   UNL     1     148.272 117.231 131.146  0.00  0.00    +0.000 C 
BRANCH  10  11
ATOM     11  O   UNL     1     148.033 117.475 132.429  0.00  0.00    +0.000 OA
ATOM     12  H   UNL     1     148.052 116.649 132.940  0.00  0.00    +0.000 HD
ENDBRANCH  10  11
ENDBRANCH   8   9
ENDBRANCH   6   7
ENDBRANCH   4   5
ENDBRANCH   1   3
BRANCH   2  13
ATOM     13  C   UNL     1     150.945 114.483 116.778  0.00  0.00    +0.000 C 
BRANCH  13  14
ATOM     14  O   UNL     1     152.212 114.069 116.434  0.00  0.00    +0.000 OA
ATOM     15  H   UNL     1     152.669 114.731 115.889  0.00  0.00    +0.000 HD
ENDBRANCH  13  14
BRANCH  13  16
ATOM     16  C   UNL     1     149.971 114.626 115.756  0.00  0.00    +0.000 C 
ATOM     17  C   UNL     1     149.147 114.748 114.892  0.00  0.00    +0.000 C 
BRANCH  17  18
ATOM     18  C   UNL     1     148.095 114.905 113.791  0.00  0.00    +0.000 C 
ATOM     19  C   UNL     1     147.270 115.029 112.927  0.00  0.00    +0.000 C 
BRANCH  19  20
ATOM     20  C   UNL     1     146.294 115.174 111.907  0.00  0.00    +0.000 C 
BRANCH  20  21
ATOM     21  C   UNL     1     144.946 115.553 112.162  0.00  0.00    +0.000 C 
ATOM     22  C   UNL     1     143.687 115.915 112.416  0.00  0.00    +0.000 C 
ENDBRANCH  20  21
BRANCH  20  23
ATOM     23  O   UNL     1     146.671 114.933 110.601  0.00  0.00    +0.000 OA
ATOM     24  H   UNL     1     146.446 115.677 110.016  0.00  0.00    +0.000 HD
ENDBRANCH  20  23
ENDBRANCH  19  20
ENDBRANCH  17  18
ENDBRANCH  13  16
ENDBRANCH   2  13
TORSDOF 12
ENDMDL
