MODEL 1
REMARK VINA RESULT:      -8.4      0.000      0.000
REMARK  Name = 91746246_sitosterol.pdbqt.pdb
REMARK  10 active torsions:
REMARK  status: ('A' for Active; 'I' for Inactive)
REMARK    1  A    between atoms: C_5  and  C_20
REMARK    2  A    between atoms: C_19  and  O_30
REMARK    3  A    between atoms: C_20  and  C_22
REMARK    4  A    between atoms: C_23  and  C_24
REMARK    5  A    between atoms: C_24  and  C_28
REMARK    6  A    between atoms: O_30  and  C_32
REMARK    7  A    between atoms: C_32  and  C_33
REMARK    8  A    between atoms: C_34  and  C_35
REMARK    9  A    between atoms: C_38  and  O_41
REMARK   10  A    between atoms: C_40  and  O_43
REMARK                            x       y       z     vdW  Elec       q    Type
REMARK                         _______ _______ _______ _____ _____    ______ ____
ROOT
ATOM      1  C   UNL     1     136.273 122.063 136.583  0.00  0.00    +0.000 C 
ATOM      2  C   UNL     1     134.784 122.054 137.222  0.00  0.00    +0.000 C 
ATOM      3  C   UNL     1     134.550 122.154 138.677  0.00  0.00    +0.000 C 
ATOM      4  C   UNL     1     135.578 122.526 139.716  0.00  0.00    +0.000 C 
ATOM      5  C   UNL     1     136.125 122.986 135.379  0.00  0.00    +0.000 C 
ATOM      6  C   UNL     1     137.130 122.575 137.651  0.00  0.00    +0.000 C 
ATOM      7  C   UNL     1     135.288 122.562 141.239  0.00  0.00    +0.000 C 
ATOM      8  C   UNL     1     133.924 122.738 136.306  0.00  0.00    +0.000 C 
ATOM      9  C   UNL     1     136.842 122.774 139.119  0.00  0.00    +0.000 C 
ATOM     10  C   UNL     1     134.752 123.328 135.198  0.00  0.00    +0.000 C 
ATOM     11  C   UNL     1     133.243 122.049 139.215  0.00  0.00    +0.000 C 
ATOM     12  C   UNL     1     136.585 120.609 136.141  0.00  0.00    +0.000 C 
ATOM     13  C   UNL     1     133.681 122.611 141.616  0.00  0.00    +0.000 C 
ATOM     14  C   UNL     1     135.830 123.815 141.843  0.00  0.00    +0.000 C 
ATOM     15  C   UNL     1     132.878 122.284 140.650  0.00  0.00    +0.000 C 
ATOM     16  C   UNL     1     135.879 121.285 141.906  0.00  0.00    +0.000 C 
ATOM     17  C   UNL     1     133.281 123.698 142.481  0.00  0.00    +0.000 C 
ATOM     18  C   UNL     1     135.225 124.924 142.720  0.00  0.00    +0.000 C 
ATOM     19  C   UNL     1     133.839 124.876 143.092  0.00  0.00    +0.000 C 
ENDROOT
BRANCH   5  20
ATOM     20  C   UNL     1     137.162 123.245 134.433  0.00  0.00    +0.000 C 
ATOM     21  C   UNL     1     137.027 122.897 132.975  0.00  0.00    +0.000 C 
BRANCH  20  22
ATOM     22  C   UNL     1     138.468 123.614 134.861  0.00  0.00    +0.000 C 
ATOM     23  C   UNL     1     139.879 124.013 135.320  0.00  0.00    +0.000 C 
BRANCH  23  24
ATOM     24  C   UNL     1     141.197 124.374 135.733  0.00  0.00    +0.000 C 
ATOM     25  C   UNL     1     142.281 123.416 135.704  0.00  0.00    +0.000 C 
ATOM     26  C   UNL     1     143.685 123.734 136.169  0.00  0.00    +0.000 C 
ATOM     27  C   UNL     1     142.106 121.998 135.199  0.00  0.00    +0.000 C 
BRANCH  24  28
ATOM     28  C   UNL     1     141.450 125.698 136.182  0.00  0.00    +0.000 C 
ATOM     29  C   UNL     1     141.780 127.128 136.627  0.00  0.00    +0.000 C 
ENDBRANCH  24  28
ENDBRANCH  23  24
ENDBRANCH  20  22
ENDBRANCH   5  20
BRANCH  19  30
ATOM     30  O   UNL     1     133.437 125.205 144.383  0.00  0.00    +0.000 OA
BRANCH  30  32
ATOM     31  O   UNL     1     131.172 125.118 144.902  0.00  0.00    +0.000 OA
ATOM     32  C   UNL     1     132.150 125.659 144.409  0.00  0.00    +0.000 C 
BRANCH  32  33
ATOM     33  C   UNL     1     132.034 126.953 143.782  0.00  0.00    +0.000 C 
ATOM     34  C   UNL     1     131.920 128.033 143.269  0.00  0.00    +0.000 C 
BRANCH  34  35
ATOM     35  C   UNL     1     131.769 129.318 142.669  0.00  0.00    +0.000 A 
ATOM     36  C   UNL     1     131.524 129.417 141.300  0.00  0.00    +0.000 A 
ATOM     37  C   UNL     1     131.872 130.468 143.446  0.00  0.00    +0.000 A 
ATOM     38  C   UNL     1     131.378 130.667 140.692  0.00  0.00    +0.000 A 
ATOM     39  C   UNL     1     131.729 131.721 142.854  0.00  0.00    +0.000 A 
ATOM     40  C   UNL     1     131.485 131.814 141.484  0.00  0.00    +0.000 A 
BRANCH  38  41
ATOM     41  O   UNL     1     131.137 130.854 139.353  0.00  0.00    +0.000 OA
ATOM     42  C   UNL     1     130.010 130.189 138.843  0.00  0.00    +0.000 C 
ENDBRANCH  38  41
BRANCH  40  43
ATOM     43  O   UNL     1     131.347 133.047 140.908  0.00  0.00    +0.000 OA
ATOM     44  H   UNL     1     132.171 133.263 140.432  0.00  0.00    +0.000 HD
ENDBRANCH  40  43
ENDBRANCH  34  35
ENDBRANCH  32  33
ENDBRANCH  30  32
ENDBRANCH  19  30
TORSDOF 10
ENDMDL
MODEL 2
REMARK VINA RESULT:      -8.1      4.045      5.548
REMARK  Name = 91746246_sitosterol.pdbqt.pdb
REMARK  10 active torsions:
REMARK  status: ('A' for Active; 'I' for Inactive)
REMARK    1  A    between atoms: C_5  and  C_20
REMARK    2  A    between atoms: C_19  and  O_30
REMARK    3  A    between atoms: C_20  and  C_22
REMARK    4  A    between atoms: C_23  and  C_24
REMARK    5  A    between atoms: C_24  and  C_28
REMARK    6  A    between atoms: O_30  and  C_32
REMARK    7  A    between atoms: C_32  and  C_33
REMARK    8  A    between atoms: C_34  and  C_35
REMARK    9  A    between atoms: C_38  and  O_41
REMARK   10  A    between atoms: C_40  and  O_43
REMARK                            x       y       z     vdW  Elec       q    Type
REMARK                         _______ _______ _______ _____ _____    ______ ____
ROOT
ATOM      1  C   UNL     1     135.781 121.600 136.748  0.00  0.00    +0.000 C 
ATOM      2  C   UNL     1     134.429 121.794 137.621  0.00  0.00    +0.000 C 
ATOM      3  C   UNL     1     134.460 122.137 139.057  0.00  0.00    +0.000 C 
ATOM      4  C   UNL     1     135.670 122.597 139.832  0.00  0.00    +0.000 C 
ATOM      5  C   UNL     1     135.459 122.330 135.450  0.00  0.00    +0.000 C 
ATOM      6  C   UNL     1     136.833 122.214 137.557  0.00  0.00    +0.000 C 
ATOM      7  C   UNL     1     135.655 122.892 141.355  0.00  0.00    +0.000 C 
ATOM      8  C   UNL     1     133.449 122.383 136.761  0.00  0.00    +0.000 C 
ATOM      9  C   UNL     1     136.818 122.661 138.998  0.00  0.00    +0.000 C 
ATOM     10  C   UNL     1     134.091 122.733 135.447  0.00  0.00    +0.000 C 
ATOM     11  C   UNL     1     133.266 122.208 139.817  0.00  0.00    +0.000 C 
ATOM     12  C   UNL     1     135.951 120.076 136.509  0.00  0.00    +0.000 C 
ATOM     13  C   UNL     1     134.144 123.109 141.982  0.00  0.00    +0.000 C 
ATOM     14  C   UNL     1     136.346 124.184 141.641  0.00  0.00    +0.000 C 
ATOM     15  C   UNL     1     133.170 122.690 141.233  0.00  0.00    +0.000 C 
ATOM     16  C   UNL     1     136.303 121.698 142.116  0.00  0.00    +0.000 C 
ATOM     17  C   UNL     1     133.948 124.344 142.709  0.00  0.00    +0.000 C 
ATOM     18  C   UNL     1     135.951 125.456 142.410  0.00  0.00    +0.000 C 
ATOM     19  C   UNL     1     134.651 125.562 143.012  0.00  0.00    +0.000 C 
ENDROOT
BRANCH   5  20
ATOM     20  C   UNL     1     136.323 122.366 134.313  0.00  0.00    +0.000 C 
ATOM     21  C   UNL     1     136.312 121.290 133.260  0.00  0.00    +0.000 C 
BRANCH  20  22
ATOM     22  C   UNL     1     137.407 123.284 134.246  0.00  0.00    +0.000 C 
ATOM     23  C   UNL     1     138.580 124.274 134.175  0.00  0.00    +0.000 C 
BRANCH  23  24
ATOM     24  C   UNL     1     139.666 125.199 134.127  0.00  0.00    +0.000 C 
ATOM     25  C   UNL     1     139.846 126.086 132.997  0.00  0.00    +0.000 C 
ATOM     26  C   UNL     1     141.001 127.055 132.876  0.00  0.00    +0.000 C 
ATOM     27  C   UNL     1     138.883 126.127 131.828  0.00  0.00    +0.000 C 
BRANCH  24  28
ATOM     28  C   UNL     1     140.590 125.250 135.205  0.00  0.00    +0.000 C 
ATOM     29  C   UNL     1     141.587 125.374 136.362  0.00  0.00    +0.000 C 
ENDBRANCH  24  28
ENDBRANCH  23  24
ENDBRANCH  20  22
ENDBRANCH   5  20
BRANCH  19  30
ATOM     30  O   UNL     1     134.498 126.116 144.279  0.00  0.00    +0.000 OA
BRANCH  30  32
ATOM     31  O   UNL     1     134.469 128.340 143.599  0.00  0.00    +0.000 OA
ATOM     32  C   UNL     1     134.875 127.428 144.303  0.00  0.00    +0.000 C 
BRANCH  32  33
ATOM     33  C   UNL     1     135.853 127.678 145.334  0.00  0.00    +0.000 C 
ATOM     34  C   UNL     1     136.655 127.880 146.206  0.00  0.00    +0.000 C 
BRANCH  34  35
ATOM     35  C   UNL     1     137.593 128.114 147.253  0.00  0.00    +0.000 A 
ATOM     36  C   UNL     1     137.288 129.024 148.264  0.00  0.00    +0.000 A 
ATOM     37  C   UNL     1     138.812 127.441 147.263  0.00  0.00    +0.000 A 
ATOM     38  C   UNL     1     138.197 129.272 149.297  0.00  0.00    +0.000 A 
ATOM     39  C   UNL     1     139.727 127.678 148.285  0.00  0.00    +0.000 A 
ATOM     40  C   UNL     1     139.417 128.590 149.293  0.00  0.00    +0.000 A 
BRANCH  38  41
ATOM     41  O   UNL     1     137.977 130.152 150.328  0.00  0.00    +0.000 OA
ATOM     42  C   UNL     1     136.695 130.106 150.900  0.00  0.00    +0.000 C 
ENDBRANCH  38  41
BRANCH  40  43
ATOM     43  O   UNL     1     140.321 128.820 150.294  0.00  0.00    +0.000 OA
ATOM     44  H   UNL     1     140.359 129.780 150.466  0.00  0.00    +0.000 HD
ENDBRANCH  40  43
ENDBRANCH  34  35
ENDBRANCH  32  33
ENDBRANCH  30  32
ENDBRANCH  19  30
TORSDOF 10
ENDMDL
MODEL 3
REMARK VINA RESULT:      -7.9      1.718      2.292
REMARK  Name = 91746246_sitosterol.pdbqt.pdb
REMARK  10 active torsions:
REMARK  status: ('A' for Active; 'I' for Inactive)
REMARK    1  A    between atoms: C_5  and  C_20
REMARK    2  A    between atoms: C_19  and  O_30
REMARK    3  A    between atoms: C_20  and  C_22
REMARK    4  A    between atoms: C_23  and  C_24
REMARK    5  A    between atoms: C_24  and  C_28
REMARK    6  A    between atoms: O_30  and  C_32
REMARK    7  A    between atoms: C_32  and  C_33
REMARK    8  A    between atoms: C_34  and  C_35
REMARK    9  A    between atoms: C_38  and  O_41
REMARK   10  A    between atoms: C_40  and  O_43
REMARK                            x       y       z     vdW  Elec       q    Type
REMARK                         _______ _______ _______ _____ _____    ______ ____
ROOT
ATOM      1  C   UNL     1     135.052 121.643 136.581  0.00  0.00    +0.000 C 
ATOM      2  C   UNL     1     133.845 121.771 137.655  0.00  0.00    +0.000 C 
ATOM      3  C   UNL     1     134.084 122.098 139.076  0.00  0.00    +0.000 C 
ATOM      4  C   UNL     1     135.381 122.599 139.663  0.00  0.00    +0.000 C 
ATOM      5  C   UNL     1     134.505 122.374 135.361  0.00  0.00    +0.000 C 
ATOM      6  C   UNL     1     136.192 122.290 137.229  0.00  0.00    +0.000 C 
ATOM      7  C   UNL     1     135.590 122.875 141.175  0.00  0.00    +0.000 C 
ATOM      8  C   UNL     1     132.721 122.329 136.968  0.00  0.00    +0.000 C 
ATOM      9  C   UNL     1     136.382 122.720 138.663  0.00  0.00    +0.000 C 
ATOM     10  C   UNL     1     133.138 122.720 135.576  0.00  0.00    +0.000 C 
ATOM     11  C   UNL     1     133.021 122.111 140.012  0.00  0.00    +0.000 C 
ATOM     12  C   UNL     1     135.243 120.130 136.292  0.00  0.00    +0.000 C 
ATOM     13  C   UNL     1     134.187 123.023 142.031  0.00  0.00    +0.000 C 
ATOM     14  C   UNL     1     136.266 124.191 141.374  0.00  0.00    +0.000 C 
ATOM     15  C   UNL     1     133.126 122.573 141.434  0.00  0.00    +0.000 C 
ATOM     16  C   UNL     1     136.395 121.701 141.806  0.00  0.00    +0.000 C 
ATOM     17  C   UNL     1     134.057 124.240 142.801  0.00  0.00    +0.000 C 
ATOM     18  C   UNL     1     135.946 125.437 142.217  0.00  0.00    +0.000 C 
ATOM     19  C   UNL     1     134.752 125.482 143.014  0.00  0.00    +0.000 C 
ENDROOT
BRANCH   5  20
ATOM     20  C   UNL     1     135.180 122.458 134.106  0.00  0.00    +0.000 C 
ATOM     21  C   UNL     1     134.859 121.541 132.957  0.00  0.00    +0.000 C 
BRANCH  20  22
ATOM     22  C   UNL     1     136.358 123.242 133.959  0.00  0.00    +0.000 C 
ATOM     23  C   UNL     1     137.631 124.088 133.802  0.00  0.00    +0.000 C 
BRANCH  23  24
ATOM     24  C   UNL     1     138.813 124.879 133.674  0.00  0.00    +0.000 C 
ATOM     25  C   UNL     1     139.876 124.803 134.653  0.00  0.00    +0.000 C 
ATOM     26  C   UNL     1     141.129 125.647 134.587  0.00  0.00    +0.000 C 
ATOM     27  C   UNL     1     139.831 123.860 135.838  0.00  0.00    +0.000 C 
BRANCH  24  28
ATOM     28  C   UNL     1     138.948 125.758 132.566  0.00  0.00    +0.000 C 
ATOM     29  C   UNL     1     139.142 126.663 131.344  0.00  0.00    +0.000 C 
ENDBRANCH  24  28
ENDBRANCH  23  24
ENDBRANCH  20  22
ENDBRANCH   5  20
BRANCH  19  30
ATOM     30  O   UNL     1     134.774 126.016 144.299  0.00  0.00    +0.000 OA
BRANCH  30  32
ATOM     31  O   UNL     1     135.976 127.991 144.550  0.00  0.00    +0.000 OA
ATOM     32  C   UNL     1     134.960 127.368 144.279  0.00  0.00    +0.000 C 
BRANCH  32  33
ATOM     33  C   UNL     1     133.770 128.058 143.847  0.00  0.00    +0.000 C 
ATOM     34  C   UNL     1     132.781 128.627 143.470  0.00  0.00    +0.000 C 
BRANCH  34  35
ATOM     35  C   UNL     1     131.610 129.294 143.004  0.00  0.00    +0.000 A 
ATOM     36  C   UNL     1     131.440 129.522 141.640  0.00  0.00    +0.000 A 
ATOM     37  C   UNL     1     130.643 129.722 143.910  0.00  0.00    +0.000 A 
ATOM     38  C   UNL     1     130.302 130.179 141.164  0.00  0.00    +0.000 A 
ATOM     39  C   UNL     1     129.505 130.379 143.450  0.00  0.00    +0.000 A 
ATOM     40  C   UNL     1     129.341 130.604 142.084  0.00  0.00    +0.000 A 
BRANCH  38  41
ATOM     41  O   UNL     1     130.059 130.444 139.838  0.00  0.00    +0.000 OA
ATOM     42  C   UNL     1     130.941 131.353 139.231  0.00  0.00    +0.000 C 
ENDBRANCH  38  41
BRANCH  40  43
ATOM     43  O   UNL     1     128.221 131.251 141.638  0.00  0.00    +0.000 OA
ATOM     44  H   UNL     1     127.847 130.749 140.889  0.00  0.00    +0.000 HD
ENDBRANCH  40  43
ENDBRANCH  34  35
ENDBRANCH  32  33
ENDBRANCH  30  32
ENDBRANCH  19  30
TORSDOF 10
ENDMDL
MODEL 4
REMARK VINA RESULT:      -7.9      6.989     14.623
REMARK  Name = 91746246_sitosterol.pdbqt.pdb
REMARK  10 active torsions:
REMARK  status: ('A' for Active; 'I' for Inactive)
REMARK    1  A    between atoms: C_5  and  C_20
REMARK    2  A    between atoms: C_19  and  O_30
REMARK    3  A    between atoms: C_20  and  C_22
REMARK    4  A    between atoms: C_23  and  C_24
REMARK    5  A    between atoms: C_24  and  C_28
REMARK    6  A    between atoms: O_30  and  C_32
REMARK    7  A    between atoms: C_32  and  C_33
REMARK    8  A    between atoms: C_34  and  C_35
REMARK    9  A    between atoms: C_38  and  O_41
REMARK   10  A    between atoms: C_40  and  O_43
REMARK                            x       y       z     vdW  Elec       q    Type
REMARK                         _______ _______ _______ _____ _____    ______ ____
ROOT
ATOM      1  C   UNL     1     136.668 136.847 141.887  0.00  0.00    +0.000 C 
ATOM      2  C   UNL     1     137.725 137.536 140.870  0.00  0.00    +0.000 C 
ATOM      3  C   UNL     1     138.477 136.757 139.866  0.00  0.00    +0.000 C 
ATOM      4  C   UNL     1     138.203 135.328 139.467  0.00  0.00    +0.000 C 
ATOM      5  C   UNL     1     135.494 137.818 141.872  0.00  0.00    +0.000 C 
ATOM      6  C   UNL     1     136.393 135.536 141.300  0.00  0.00    +0.000 C 
ATOM      7  C   UNL     1     139.061 134.541 138.443  0.00  0.00    +0.000 C 
ATOM      8  C   UNL     1     137.217 138.832 140.542  0.00  0.00    +0.000 C 
ATOM      9  C   UNL     1     137.106 134.795 140.195  0.00  0.00    +0.000 C 
ATOM     10  C   UNL     1     135.842 138.987 141.133  0.00  0.00    +0.000 C 
ATOM     11  C   UNL     1     139.463 137.370 139.054  0.00  0.00    +0.000 C 
ATOM     12  C   UNL     1     137.345 136.803 143.283  0.00  0.00    +0.000 C 
ATOM     13  C   UNL     1     140.007 135.495 137.485  0.00  0.00    +0.000 C 
ATOM     14  C   UNL     1     138.184 133.824 137.471  0.00  0.00    +0.000 C 
ATOM     15  C   UNL     1     140.173 136.711 137.909  0.00  0.00    +0.000 C 
ATOM     16  C   UNL     1     140.009 133.569 139.205  0.00  0.00    +0.000 C 
ATOM     17  C   UNL     1     139.844 135.298 136.062  0.00  0.00    +0.000 C 
ATOM     18  C   UNL     1     138.113 133.774 135.935  0.00  0.00    +0.000 C 
ATOM     19  C   UNL     1     139.017 134.560 135.144  0.00  0.00    +0.000 C 
ENDROOT
BRANCH   5  20
ATOM     20  C   UNL     1     134.333 137.686 142.692  0.00  0.00    +0.000 C 
ATOM     21  C   UNL     1     133.912 138.751 143.669  0.00  0.00    +0.000 C 
BRANCH  20  22
ATOM     22  C   UNL     1     133.656 136.440 142.809  0.00  0.00    +0.000 C 
ATOM     23  C   UNL     1     132.926 135.094 142.938  0.00  0.00    +0.000 C 
BRANCH  23  24
ATOM     24  C   UNL     1     132.260 133.838 143.069  0.00  0.00    +0.000 C 
ATOM     25  C   UNL     1     131.766 133.382 144.351  0.00  0.00    +0.000 C 
ATOM     26  C   UNL     1     131.091 132.043 144.553  0.00  0.00    +0.000 C 
ATOM     27  C   UNL     1     131.880 134.210 145.614  0.00  0.00    +0.000 C 
BRANCH  24  28
ATOM     28  C   UNL     1     132.078 133.021 141.921  0.00  0.00    +0.000 C 
ATOM     29  C   UNL     1     131.899 132.083 140.722  0.00  0.00    +0.000 C 
ENDBRANCH  24  28
ENDBRANCH  23  24
ENDBRANCH  20  22
ENDBRANCH   5  20
BRANCH  19  30
ATOM     30  O   UNL     1     139.607 134.030 134.001  0.00  0.00    +0.000 OA
BRANCH  30  32
ATOM     31  O   UNL     1     137.777 133.430 132.698  0.00  0.00    +0.000 OA
ATOM     32  C   UNL     1     138.770 133.165 133.358  0.00  0.00    +0.000 C 
BRANCH  32  33
ATOM     33  C   UNL     1     139.207 131.799 133.506  0.00  0.00    +0.000 C 
ATOM     34  C   UNL     1     139.572 130.663 133.649  0.00  0.00    +0.000 C 
BRANCH  34  35
ATOM     35  C   UNL     1     140.006 129.317 133.837  0.00  0.00    +0.000 A 
ATOM     36  C   UNL     1     139.431 128.294 133.085  0.00  0.00    +0.000 A 
ATOM     37  C   UNL     1     140.995 129.027 134.773  0.00  0.00    +0.000 A 
ATOM     38  C   UNL     1     139.839 126.968 133.258  0.00  0.00    +0.000 A 
ATOM     39  C   UNL     1     141.410 127.710 134.956  0.00  0.00    +0.000 A 
ATOM     40  C   UNL     1     140.831 126.691 134.202  0.00  0.00    +0.000 A 
BRANCH  38  41
ATOM     41  O   UNL     1     139.324 125.902 132.561  0.00  0.00    +0.000 OA
ATOM     42  C   UNL     1     138.242 125.247 133.169  0.00  0.00    +0.000 C 
ENDBRANCH  38  41
BRANCH  40  43
ATOM     43  O   UNL     1     141.242 125.399 134.388  0.00  0.00    +0.000 OA
ATOM     44  H   UNL     1     142.091 125.271 133.924  0.00  0.00    +0.000 HD
ENDBRANCH  40  43
ENDBRANCH  34  35
ENDBRANCH  32  33
ENDBRANCH  30  32
ENDBRANCH  19  30
TORSDOF 10
ENDMDL
MODEL 5
REMARK VINA RESULT:      -7.8      1.772      2.605
REMARK  Name = 91746246_sitosterol.pdbqt.pdb
REMARK  10 active torsions:
REMARK  status: ('A' for Active; 'I' for Inactive)
REMARK    1  A    between atoms: C_5  and  C_20
REMARK    2  A    between atoms: C_19  and  O_30
REMARK    3  A    between atoms: C_20  and  C_22
REMARK    4  A    between atoms: C_23  and  C_24
REMARK    5  A    between atoms: C_24  and  C_28
REMARK    6  A    between atoms: O_30  and  C_32
REMARK    7  A    between atoms: C_32  and  C_33
REMARK    8  A    between atoms: C_34  and  C_35
REMARK    9  A    between atoms: C_38  and  O_41
REMARK   10  A    between atoms: C_40  and  O_43
REMARK                            x       y       z     vdW  Elec       q    Type
REMARK                         _______ _______ _______ _____ _____    ______ ____
ROOT
ATOM      1  C   UNL     1     135.917 121.728 136.790  0.00  0.00    +0.000 C 
ATOM      2  C   UNL     1     134.546 121.900 137.638  0.00  0.00    +0.000 C 
ATOM      3  C   UNL     1     134.545 122.219 139.080  0.00  0.00    +0.000 C 
ATOM      4  C   UNL     1     135.736 122.673 139.887  0.00  0.00    +0.000 C 
ATOM      5  C   UNL     1     135.617 122.477 135.498  0.00  0.00    +0.000 C 
ATOM      6  C   UNL     1     136.948 122.334 137.631  0.00  0.00    +0.000 C 
ATOM      7  C   UNL     1     135.688 122.942 141.414  0.00  0.00    +0.000 C 
ATOM      8  C   UNL     1     133.580 122.497 136.768  0.00  0.00    +0.000 C 
ATOM      9  C   UNL     1     136.900 122.757 139.079  0.00  0.00    +0.000 C 
ATOM     10  C   UNL     1     134.248 122.873 135.473  0.00  0.00    +0.000 C 
ATOM     11  C   UNL     1     133.336 122.271 139.816  0.00  0.00    +0.000 C 
ATOM     12  C   UNL     1     136.101 120.209 136.530  0.00  0.00    +0.000 C 
ATOM     13  C   UNL     1     134.163 123.141 142.013  0.00  0.00    +0.000 C 
ATOM     14  C   UNL     1     136.365 124.233 141.736  0.00  0.00    +0.000 C 
ATOM     15  C   UNL     1     133.207 122.728 141.238  0.00  0.00    +0.000 C 
ATOM     16  C   UNL     1     136.327 121.740 142.169  0.00  0.00    +0.000 C 
ATOM     17  C   UNL     1     133.944 124.362 142.756  0.00  0.00    +0.000 C 
ATOM     18  C   UNL     1     135.947 125.490 142.517  0.00  0.00    +0.000 C 
ATOM     19  C   UNL     1     134.634 125.578 143.094  0.00  0.00    +0.000 C 
ENDROOT
BRANCH   5  20
ATOM     20  C   UNL     1     136.504 122.537 134.380  0.00  0.00    +0.000 C 
ATOM     21  C   UNL     1     136.443 121.543 133.251  0.00  0.00    +0.000 C 
BRANCH  20  22
ATOM     22  C   UNL     1     137.648 123.382 134.397  0.00  0.00    +0.000 C 
ATOM     23  C   UNL     1     138.884 124.295 134.417  0.00  0.00    +0.000 C 
BRANCH  23  24
ATOM     24  C   UNL     1     140.027 125.149 134.452  0.00  0.00    +0.000 C 
ATOM     25  C   UNL     1     140.090 126.350 133.646  0.00  0.00    +0.000 C 
ATOM     26  C   UNL     1     141.292 127.268 133.613  0.00  0.00    +0.000 C 
ATOM     27  C   UNL     1     138.947 126.801 132.760  0.00  0.00    +0.000 C 
BRANCH  24  28
ATOM     28  C   UNL     1     141.124 124.816 135.290  0.00  0.00    +0.000 C 
ATOM     29  C   UNL     1     142.349 124.455 136.139  0.00  0.00    +0.000 C 
ENDBRANCH  24  28
ENDBRANCH  23  24
ENDBRANCH  20  22
ENDBRANCH   5  20
BRANCH  19  30
ATOM     30  O   UNL     1     134.451 126.111 144.367  0.00  0.00    +0.000 OA
BRANCH  30  32
ATOM     31  O   UNL     1     135.717 128.039 144.666  0.00  0.00    +0.000 OA
ATOM     32  C   UNL     1     134.680 127.457 144.386  0.00  0.00    +0.000 C 
BRANCH  32  33
ATOM     33  C   UNL     1     133.509 128.198 143.986  0.00  0.00    +0.000 C 
ATOM     34  C   UNL     1     132.534 128.825 143.669  0.00  0.00    +0.000 C 
BRANCH  34  35
ATOM     35  C   UNL     1     131.379 129.579 143.309  0.00  0.00    +0.000 A 
ATOM     36  C   UNL     1     131.156 130.824 143.893  0.00  0.00    +0.000 A 
ATOM     37  C   UNL     1     130.473 129.069 142.382  0.00  0.00    +0.000 A 
ATOM     38  C   UNL     1     130.027 131.576 143.558  0.00  0.00    +0.000 A 
ATOM     39  C   UNL     1     129.343 129.807 142.039  0.00  0.00    +0.000 A 
ATOM     40  C   UNL     1     129.125 131.052 142.628  0.00  0.00    +0.000 A 
BRANCH  38  41
ATOM     41  O   UNL     1     129.732 132.809 144.088  0.00  0.00    +0.000 OA
ATOM     42  C   UNL     1     129.492 132.831 145.471  0.00  0.00    +0.000 C 
ENDBRANCH  38  41
BRANCH  40  43
ATOM     43  O   UNL     1     128.012 131.772 142.288  0.00  0.00    +0.000 OA
ATOM     44  H   UNL     1     128.281 132.690 142.095  0.00  0.00    +0.000 HD
ENDBRANCH  40  43
ENDBRANCH  34  35
ENDBRANCH  32  33
ENDBRANCH  30  32
ENDBRANCH  19  30
TORSDOF 10
ENDMDL
MODEL 6
REMARK VINA RESULT:      -7.8     10.440     16.949
REMARK  Name = 91746246_sitosterol.pdbqt.pdb
REMARK  10 active torsions:
REMARK  status: ('A' for Active; 'I' for Inactive)
REMARK    1  A    between atoms: C_5  and  C_20
REMARK    2  A    between atoms: C_19  and  O_30
REMARK    3  A    between atoms: C_20  and  C_22
REMARK    4  A    between atoms: C_23  and  C_24
REMARK    5  A    between atoms: C_24  and  C_28
REMARK    6  A    between atoms: O_30  and  C_32
REMARK    7  A    between atoms: C_32  and  C_33
REMARK    8  A    between atoms: C_34  and  C_35
REMARK    9  A    between atoms: C_38  and  O_41
REMARK   10  A    between atoms: C_40  and  O_43
REMARK                            x       y       z     vdW  Elec       q    Type
REMARK                         _______ _______ _______ _____ _____    ______ ____
ROOT
ATOM      1  C   UNL     1     153.007 125.139 137.218  0.00  0.00    +0.000 C 
ATOM      2  C   UNL     1     151.702 124.908 136.285  0.00  0.00    +0.000 C 
ATOM      3  C   UNL     1     151.350 123.583 135.735  0.00  0.00    +0.000 C 
ATOM      4  C   UNL     1     151.957 122.264 136.146  0.00  0.00    +0.000 C 
ATOM      5  C   UNL     1     152.482 126.046 138.324  0.00  0.00    +0.000 C 
ATOM      6  C   UNL     1     153.393 123.796 137.651  0.00  0.00    +0.000 C 
ATOM      7  C   UNL     1     151.586 120.906 135.494  0.00  0.00    +0.000 C 
ATOM      8  C   UNL     1     150.678 125.784 136.762  0.00  0.00    +0.000 C 
ATOM      9  C   UNL     1     152.942 122.445 137.152  0.00  0.00    +0.000 C 
ATOM     10  C   UNL     1     151.150 126.455 138.024  0.00  0.00    +0.000 C 
ATOM     11  C   UNL     1     150.258 123.427 134.846  0.00  0.00    +0.000 C 
ATOM     12  C   UNL     1     154.064 125.869 136.347  0.00  0.00    +0.000 C 
ATOM     13  C   UNL     1     150.169 120.933 134.647  0.00  0.00    +0.000 C 
ATOM     14  C   UNL     1     151.349 119.872 136.545  0.00  0.00    +0.000 C 
ATOM     15  C   UNL     1     149.725 122.116 134.352  0.00  0.00    +0.000 C 
ATOM     16  C   UNL     1     152.709 120.488 134.501  0.00  0.00    +0.000 C 
ATOM     17  C   UNL     1     149.201 119.930 135.029  0.00  0.00    +0.000 C 
ATOM     18  C   UNL     1     150.194 118.902 136.844  0.00  0.00    +0.000 C 
ATOM     19  C   UNL     1     149.016 118.906 136.023  0.00  0.00    +0.000 C 
ENDROOT
BRANCH   5  20
ATOM     20  C   UNL     1     153.293 126.604 139.358  0.00  0.00    +0.000 C 
ATOM     21  C   UNL     1     153.599 125.861 140.631  0.00  0.00    +0.000 C 
BRANCH  20  22
ATOM     22  C   UNL     1     153.647 127.982 139.348  0.00  0.00    +0.000 C 
ATOM     23  C   UNL     1     154.030 129.470 139.339  0.00  0.00    +0.000 C 
BRANCH  23  24
ATOM     24  C   UNL     1     154.382 130.853 139.349  0.00  0.00    +0.000 C 
ATOM     25  C   UNL     1     155.425 131.356 140.218  0.00  0.00    +0.000 C 
ATOM     26  C   UNL     1     155.809 132.817 140.298  0.00  0.00    +0.000 C 
ATOM     27  C   UNL     1     156.232 130.456 141.131  0.00  0.00    +0.000 C 
BRANCH  24  28
ATOM     28  C   UNL     1     153.698 131.755 138.490  0.00  0.00    +0.000 C 
ATOM     29  C   UNL     1     153.020 132.741 137.532  0.00  0.00    +0.000 C 
ENDBRANCH  24  28
ENDBRANCH  23  24
ENDBRANCH  20  22
ENDBRANCH   5  20
BRANCH  19  30
ATOM     30  O   UNL     1     148.413 117.712 135.639  0.00  0.00    +0.000 OA
BRANCH  30  32
ATOM     31  O   UNL     1     146.811 116.669 136.963  0.00  0.00    +0.000 OA
ATOM     32  C   UNL     1     147.185 117.560 136.216  0.00  0.00    +0.000 C 
BRANCH  32  33
ATOM     33  C   UNL     1     146.301 118.645 135.869  0.00  0.00    +0.000 C 
ATOM     34  C   UNL     1     145.552 119.544 135.594  0.00  0.00    +0.000 C 
BRANCH  34  35
ATOM     35  C   UNL     1     144.651 120.604 135.282  0.00  0.00    +0.000 A 
ATOM     36  C   UNL     1     144.309 121.533 136.263  0.00  0.00    +0.000 A 
ATOM     37  C   UNL     1     144.111 120.708 134.003  0.00  0.00    +0.000 A 
ATOM     38  C   UNL     1     143.424 122.576 135.979  0.00  0.00    +0.000 A 
ATOM     39  C   UNL     1     143.227 121.742 133.705  0.00  0.00    +0.000 A 
ATOM     40  C   UNL     1     142.888 122.667 134.692  0.00  0.00    +0.000 A 
BRANCH  38  41
ATOM     41  O   UNL     1     143.034 123.530 136.887  0.00  0.00    +0.000 OA
ATOM     42  C   UNL     1     143.958 124.563 137.115  0.00  0.00    +0.000 C 
ENDBRANCH  38  41
BRANCH  40  43
ATOM     43  O   UNL     1     142.018 123.680 134.394  0.00  0.00    +0.000 OA
ATOM     44  H   UNL     1     142.345 124.504 134.803  0.00  0.00    +0.000 HD
ENDBRANCH  40  43
ENDBRANCH  34  35
ENDBRANCH  32  33
ENDBRANCH  30  32
ENDBRANCH  19  30
TORSDOF 10
ENDMDL
MODEL 7
REMARK VINA RESULT:      -7.7     23.440     29.798
REMARK  Name = 91746246_sitosterol.pdbqt.pdb
REMARK  10 active torsions:
REMARK  status: ('A' for Active; 'I' for Inactive)
REMARK    1  A    between atoms: C_5  and  C_20
REMARK    2  A    between atoms: C_19  and  O_30
REMARK    3  A    between atoms: C_20  and  C_22
REMARK    4  A    between atoms: C_23  and  C_24
REMARK    5  A    between atoms: C_24  and  C_28
REMARK    6  A    between atoms: O_30  and  C_32
REMARK    7  A    between atoms: C_32  and  C_33
REMARK    8  A    between atoms: C_34  and  C_35
REMARK    9  A    between atoms: C_38  and  O_41
REMARK   10  A    between atoms: C_40  and  O_43
REMARK                            x       y       z     vdW  Elec       q    Type
REMARK                         _______ _______ _______ _____ _____    ______ ____
ROOT
ATOM      1  C   UNL     1     146.160 114.270 112.293  0.00  0.00    +0.000 C 
ATOM      2  C   UNL     1     146.411 113.056 113.337  0.00  0.00    +0.000 C 
ATOM      3  C   UNL     1     147.638 112.958 114.153  0.00  0.00    +0.000 C 
ATOM      4  C   UNL     1     148.669 114.044 114.336  0.00  0.00    +0.000 C 
ATOM      5  C   UNL     1     144.702 114.638 112.538  0.00  0.00    +0.000 C 
ATOM      6  C   UNL     1     147.129 115.294 112.680  0.00  0.00    +0.000 C 
ATOM      7  C   UNL     1     149.968 113.866 115.164  0.00  0.00    +0.000 C 
ATOM      8  C   UNL     1     145.142 112.710 113.900  0.00  0.00    +0.000 C 
ATOM      9  C   UNL     1     148.319 115.210 113.604  0.00  0.00    +0.000 C 
ATOM     10  C   UNL     1     144.108 113.697 113.430  0.00  0.00    +0.000 C 
ATOM     11  C   UNL     1     147.873 111.838 114.988  0.00  0.00    +0.000 C 
ATOM     12  C   UNL     1     146.362 113.691 110.867  0.00  0.00    +0.000 C 
ATOM     13  C   UNL     1     149.934 112.581 116.199  0.00  0.00    +0.000 C 
ATOM     14  C   UNL     1     150.176 115.039 116.064  0.00  0.00    +0.000 C 
ATOM     15  C   UNL     1     149.003 111.708 115.965  0.00  0.00    +0.000 C 
ATOM     16  C   UNL     1     151.169 113.648 114.197  0.00  0.00    +0.000 C 
ATOM     17  C   UNL     1     150.230 112.891 117.580  0.00  0.00    +0.000 C 
ATOM     18  C   UNL     1     150.429 115.193 117.573  0.00  0.00    +0.000 C 
ATOM     19  C   UNL     1     150.475 114.034 118.419  0.00  0.00    +0.000 C 
ENDROOT
BRANCH   5  20
ATOM     20  C   UNL     1     143.982 115.614 111.784  0.00  0.00    +0.000 C 
ATOM     21  C   UNL     1     143.303 116.790 112.432  0.00  0.00    +0.000 C 
BRANCH  20  22
ATOM     22  C   UNL     1     143.659 115.391 110.417  0.00  0.00    +0.000 C 
ATOM     23  C   UNL     1     143.312 115.151 108.939  0.00  0.00    +0.000 C 
BRANCH  23  24
ATOM     24  C   UNL     1     142.994 114.945 107.563  0.00  0.00    +0.000 C 
ATOM     25  C   UNL     1     143.990 115.126 106.528  0.00  0.00    +0.000 C 
ATOM     26  C   UNL     1     143.696 114.961 105.053  0.00  0.00    +0.000 C 
ATOM     27  C   UNL     1     145.427 115.496 106.832  0.00  0.00    +0.000 C 
BRANCH  24  28
ATOM     28  C   UNL     1     141.676 114.556 107.201  0.00  0.00    +0.000 C 
ATOM     29  C   UNL     1     140.258 114.087 106.859  0.00  0.00    +0.000 C 
ENDBRANCH  24  28
ENDBRANCH  23  24
ENDBRANCH  20  22
ENDBRANCH   5  20
BRANCH  19  30
ATOM     30  O   UNL     1     151.433 113.924 119.423  0.00  0.00    +0.000 OA
BRANCH  30  32
ATOM     31  O   UNL     1     150.164 113.475 121.319  0.00  0.00    +0.000 OA
ATOM     32  C   UNL     1     150.903 114.184 120.654  0.00  0.00    +0.000 C 
BRANCH  32  33
ATOM     33  C   UNL     1     151.350 115.457 121.163  0.00  0.00    +0.000 C 
ATOM     34  C   UNL     1     151.704 116.526 121.584  0.00  0.00    +0.000 C 
BRANCH  34  35
ATOM     35  C   UNL     1     152.108 117.801 122.079  0.00  0.00    +0.000 A 
ATOM     36  C   UNL     1     151.361 118.423 123.077  0.00  0.00    +0.000 A 
ATOM     37  C   UNL     1     153.240 118.424 121.561  0.00  0.00    +0.000 A 
ATOM     38  C   UNL     1     151.736 119.675 123.571  0.00  0.00    +0.000 A 
ATOM     39  C   UNL     1     153.626 119.672 122.044  0.00  0.00    +0.000 A 
ATOM     40  C   UNL     1     152.874 120.290 123.042  0.00  0.00    +0.000 A 
BRANCH  38  41
ATOM     41  O   UNL     1     151.056 120.357 124.551  0.00  0.00    +0.000 OA
ATOM     42  C   UNL     1     151.178 119.834 125.848  0.00  0.00    +0.000 C 
ENDBRANCH  38  41
BRANCH  40  43
ATOM     43  O   UNL     1     153.257 121.517 123.511  0.00  0.00    +0.000 OA
ATOM     44  H   UNL     1     152.844 121.661 124.383  0.00  0.00    +0.000 HD
ENDBRANCH  40  43
ENDBRANCH  34  35
ENDBRANCH  32  33
ENDBRANCH  30  32
ENDBRANCH  19  30
TORSDOF 10
ENDMDL
MODEL 8
REMARK VINA RESULT:      -7.7     24.966     31.586
REMARK  Name = 91746246_sitosterol.pdbqt.pdb
REMARK  10 active torsions:
REMARK  status: ('A' for Active; 'I' for Inactive)
REMARK    1  A    between atoms: C_5  and  C_20
REMARK    2  A    between atoms: C_19  and  O_30
REMARK    3  A    between atoms: C_20  and  C_22
REMARK    4  A    between atoms: C_23  and  C_24
REMARK    5  A    between atoms: C_24  and  C_28
REMARK    6  A    between atoms: O_30  and  C_32
REMARK    7  A    between atoms: C_32  and  C_33
REMARK    8  A    between atoms: C_34  and  C_35
REMARK    9  A    between atoms: C_38  and  O_41
REMARK   10  A    between atoms: C_40  and  O_43
REMARK                            x       y       z     vdW  Elec       q    Type
REMARK                         _______ _______ _______ _____ _____    ______ ____
ROOT
ATOM      1  C   UNL     1     149.769 112.331 115.816  0.00  0.00    +0.000 C 
ATOM      2  C   UNL     1     149.577 113.669 114.922  0.00  0.00    +0.000 C 
ATOM      3  C   UNL     1     148.434 113.847 114.004  0.00  0.00    +0.000 C 
ATOM      4  C   UNL     1     147.198 112.984 113.951  0.00  0.00    +0.000 C 
ATOM      5  C   UNL     1     150.184 112.882 117.175  0.00  0.00    +0.000 C 
ATOM      6  C   UNL     1     148.461 111.678 115.788  0.00  0.00    +0.000 C 
ATOM      7  C   UNL     1     146.051 113.186 112.927  0.00  0.00    +0.000 C 
ATOM      8  C   UNL     1     150.054 114.772 115.699  0.00  0.00    +0.000 C 
ATOM      9  C   UNL     1     147.259 111.942 114.914  0.00  0.00    +0.000 C 
ATOM     10  C   UNL     1     150.397 114.289 117.082  0.00  0.00    +0.000 C 
ATOM     11  C   UNL     1     148.341 114.985 113.165  0.00  0.00    +0.000 C 
ATOM     12  C   UNL     1     150.917 111.513 115.167  0.00  0.00    +0.000 C 
ATOM     13  C   UNL     1     146.052 114.668 112.200  0.00  0.00    +0.000 C 
ATOM     14  C   UNL     1     144.725 113.129 113.611  0.00  0.00    +0.000 C 
ATOM     15  C   UNL     1     147.159 115.336 112.312  0.00  0.00    +0.000 C 
ATOM     16  C   UNL     1     146.175 112.119 111.799  0.00  0.00    +0.000 C 
ATOM     17  C   UNL     1     144.812 115.405 112.296  0.00  0.00    +0.000 C 
ATOM     18  C   UNL     1     143.504 114.063 113.648  0.00  0.00    +0.000 C 
ATOM     19  C   UNL     1     143.523 115.305 112.927  0.00  0.00    +0.000 C 
ENDROOT
BRANCH   5  20
ATOM     20  C   UNL     1     150.556 112.073 118.290  0.00  0.00    +0.000 C 
ATOM     21  C   UNL     1     151.458 110.875 118.151  0.00  0.00    +0.000 C 
BRANCH  20  22
ATOM     22  C   UNL     1     149.897 112.206 119.544  0.00  0.00    +0.000 C 
ATOM     23  C   UNL     1     149.186 112.351 120.898  0.00  0.00    +0.000 C 
BRANCH  23  24
ATOM     24  C   UNL     1     148.541 112.486 122.165  0.00  0.00    +0.000 C 
ATOM     25  C   UNL     1     147.328 111.758 122.469  0.00  0.00    +0.000 C 
ATOM     26  C   UNL     1     146.582 111.894 123.779  0.00  0.00    +0.000 C 
ATOM     27  C   UNL     1     146.692 110.783 121.499  0.00  0.00    +0.000 C 
BRANCH  24  28
ATOM     28  C   UNL     1     149.099 113.350 123.145  0.00  0.00    +0.000 C 
ATOM     29  C   UNL     1     149.677 114.337 124.165  0.00  0.00    +0.000 C 
ENDBRANCH  24  28
ENDBRANCH  23  24
ENDBRANCH  20  22
ENDBRANCH   5  20
BRANCH  19  30
ATOM     30  O   UNL     1     142.404 115.734 112.219  0.00  0.00    +0.000 OA
BRANCH  30  32
ATOM     31  O   UNL     1     142.721 117.979 111.704  0.00  0.00    +0.000 OA
ATOM     32  C   UNL     1     142.696 116.793 111.410  0.00  0.00    +0.000 C 
BRANCH  32  33
ATOM     33  C   UNL     1     143.033 116.363 110.076  0.00  0.00    +0.000 C 
ATOM     34  C   UNL     1     143.296 116.007 108.958  0.00  0.00    +0.000 C 
BRANCH  34  35
ATOM     35  C   UNL     1     143.590 115.587 107.628  0.00  0.00    +0.000 A 
ATOM     36  C   UNL     1     144.910 115.342 107.255  0.00  0.00    +0.000 A 
ATOM     37  C   UNL     1     142.561 115.429 106.703  0.00  0.00    +0.000 A 
ATOM     38  C   UNL     1     145.219 114.935 105.954  0.00  0.00    +0.000 A 
ATOM     39  C   UNL     1     142.854 115.024 105.403  0.00  0.00    +0.000 A 
ATOM     40  C   UNL     1     144.177 114.782 105.036  0.00  0.00    +0.000 A 
BRANCH  38  41
ATOM     41  O   UNL     1     146.491 114.676 105.505  0.00  0.00    +0.000 OA
ATOM     42  C   UNL     1     147.515 115.402 106.135  0.00  0.00    +0.000 C 
ENDBRANCH  38  41
BRANCH  40  43
ATOM     43  O   UNL     1     144.459 114.386 103.757  0.00  0.00    +0.000 OA
ATOM     44  H   UNL     1     145.149 114.973 103.393  0.00  0.00    +0.000 HD
ENDBRANCH  40  43
ENDBRANCH  34  35
ENDBRANCH  32  33
ENDBRANCH  30  32
ENDBRANCH  19  30
TORSDOF 10
ENDMDL
MODEL 9
REMARK VINA RESULT:      -7.7     21.861     27.899
REMARK  Name = 91746246_sitosterol.pdbqt.pdb
REMARK  10 active torsions:
REMARK  status: ('A' for Active; 'I' for Inactive)
REMARK    1  A    between atoms: C_5  and  C_20
REMARK    2  A    between atoms: C_19  and  O_30
REMARK    3  A    between atoms: C_20  and  C_22
REMARK    4  A    between atoms: C_23  and  C_24
REMARK    5  A    between atoms: C_24  and  C_28
REMARK    6  A    between atoms: O_30  and  C_32
REMARK    7  A    between atoms: C_32  and  C_33
REMARK    8  A    between atoms: C_34  and  C_35
REMARK    9  A    between atoms: C_38  and  O_41
REMARK   10  A    between atoms: C_40  and  O_43
REMARK                            x       y       z     vdW  Elec       q    Type
REMARK                         _______ _______ _______ _____ _____    ______ ____
ROOT
ATOM      1  C   UNL     1     149.429 113.736 114.538  0.00  0.00    +0.000 C 
ATOM      2  C   UNL     1     149.433 112.531 115.622  0.00  0.00    +0.000 C 
ATOM      3  C   UNL     1     150.093 112.656 116.938  0.00  0.00    +0.000 C 
ATOM      4  C   UNL     1     150.605 113.933 117.554  0.00  0.00    +0.000 C 
ATOM      5  C   UNL     1     147.995 113.730 114.024  0.00  0.00    +0.000 C 
ATOM      6  C   UNL     1     149.805 114.923 115.306  0.00  0.00    +0.000 C 
ATOM      7  C   UNL     1     151.341 113.996 118.918  0.00  0.00    +0.000 C 
ATOM      8  C   UNL     1     148.180 111.851 115.508  0.00  0.00    +0.000 C 
ATOM      9  C   UNL     1     150.379 115.042 116.696  0.00  0.00    +0.000 C 
ATOM     10  C   UNL     1     147.295 112.605 114.551  0.00  0.00    +0.000 C 
ATOM     11  C   UNL     1     150.162 111.555 117.827  0.00  0.00    +0.000 C 
ATOM     12  C   UNL     1     150.429 113.343 113.420  0.00  0.00    +0.000 C 
ATOM     13  C   UNL     1     151.127 112.657 119.858  0.00  0.00    +0.000 C 
ATOM     14  C   UNL     1     150.793 115.105 119.754  0.00  0.00    +0.000 C 
ATOM     15  C   UNL     1     150.672 111.613 119.236  0.00  0.00    +0.000 C 
ATOM     16  C   UNL     1     152.871 114.148 118.672  0.00  0.00    +0.000 C 
ATOM     17  C   UNL     1     150.632 112.910 121.193  0.00  0.00    +0.000 C 
ATOM     18  C   UNL     1     150.239 115.187 121.186  0.00  0.00    +0.000 C 
ATOM     19  C   UNL     1     150.153 114.004 121.996  0.00  0.00    +0.000 C 
ENDROOT
BRANCH   5  20
ATOM     20  C   UNL     1     147.515 114.570 112.974  0.00  0.00    +0.000 C 
ATOM     21  C   UNL     1     146.194 115.288 113.057  0.00  0.00    +0.000 C 
BRANCH  20  22
ATOM     22  C   UNL     1     148.138 114.573 111.695  0.00  0.00    +0.000 C 
ATOM     23  C   UNL     1     148.810 114.577 110.313  0.00  0.00    +0.000 C 
BRANCH  23  24
ATOM     24  C   UNL     1     149.421 114.570 109.023  0.00  0.00    +0.000 C 
ATOM     25  C   UNL     1     150.718 113.964 108.811  0.00  0.00    +0.000 C 
ATOM     26  C   UNL     1     151.429 113.965 107.475  0.00  0.00    +0.000 C 
ATOM     27  C   UNL     1     151.486 113.268 109.916  0.00  0.00    +0.000 C 
BRANCH  24  28
ATOM     28  C   UNL     1     148.744 115.168 107.926  0.00  0.00    +0.000 C 
ATOM     29  C   UNL     1     147.958 115.776 106.759  0.00  0.00    +0.000 C 
ENDBRANCH  24  28
ENDBRANCH  23  24
ENDBRANCH  20  22
ENDBRANCH   5  20
BRANCH  19  30
ATOM     30  O   UNL     1     150.499 114.038 123.343  0.00  0.00    +0.000 OA
BRANCH  30  32
ATOM     31  O   UNL     1     148.519 113.156 124.185  0.00  0.00    +0.000 OA
ATOM     32  C   UNL     1     149.397 114.005 124.147  0.00  0.00    +0.000 C 
BRANCH  32  33
ATOM     33  C   UNL     1     149.364 115.132 125.046  0.00  0.00    +0.000 C 
ATOM     34  C   UNL     1     149.332 116.082 125.781  0.00  0.00    +0.000 C 
BRANCH  34  35
ATOM     35  C   UNL     1     149.289 117.221 126.638  0.00  0.00    +0.000 A 
ATOM     36  C   UNL     1     150.270 118.205 126.530  0.00  0.00    +0.000 A 
ATOM     37  C   UNL     1     148.275 117.345 127.584  0.00  0.00    +0.000 A 
ATOM     38  C   UNL     1     150.249 119.327 127.364  0.00  0.00    +0.000 A 
ATOM     39  C   UNL     1     148.242 118.457 128.422  0.00  0.00    +0.000 A 
ATOM     40  C   UNL     1     149.226 119.438 128.309  0.00  0.00    +0.000 A 
BRANCH  38  41
ATOM     41  O   UNL     1     151.176 120.339 127.324  0.00  0.00    +0.000 OA
ATOM     42  C   UNL     1     151.487 120.825 126.044  0.00  0.00    +0.000 C 
ENDBRANCH  38  41
BRANCH  40  43
ATOM     43  O   UNL     1     149.189 120.527 129.137  0.00  0.00    +0.000 OA
ATOM     44  H   UNL     1     148.490 120.389 129.804  0.00  0.00    +0.000 HD
ENDBRANCH  40  43
ENDBRANCH  34  35
ENDBRANCH  32  33
ENDBRANCH  30  32
ENDBRANCH  19  30
TORSDOF 10
ENDMDL
