MODEL 1
REMARK VINA RESULT:      -4.5      0.000      0.000
REMARK  Name = 92041_2Ethoxy5fluorouracil.pdbqt.pdb
REMARK  2 active torsions:
REMARK  status: ('A' for Active; 'I' for Inactive)
REMARK    1  A    between atoms: C_5  and  O_10
REMARK    2  A    between atoms: O_10  and  C_11
REMARK                            x       y       z     vdW  Elec       q    Type
REMARK                         _______ _______ _______ _____ _____    ______ ____
ROOT
ATOM      1  F   UNL     1     141.614 128.263 132.063  0.00  0.00    +0.000 F 
ATOM      2  O   UNL     1     142.059 126.009 130.374  0.00  0.00    +0.000 OA
ATOM      3  N   UNL     1     140.178 125.043 131.274  0.00  0.00    +0.000 N 
ATOM      4  N   UNL     1     138.758 126.154 132.804  0.00  0.00    +0.000 NA
ATOM      5  C   UNL     1     139.082 125.086 132.132  0.00  0.00    +0.000 C 
ATOM      6  C   UNL     1     141.055 126.110 131.066  0.00  0.00    +0.000 C 
ATOM      7  C   UNL     1     140.658 127.362 131.785  0.00  0.00    +0.000 C 
ATOM      8  C   UNL     1     139.622 127.138 132.523  0.00  0.00    +0.000 C 
ATOM      9  H   UNL     1     140.408 124.179 130.807  0.00  0.00    +0.000 HD
ENDROOT
BRANCH   5  10
ATOM     10  O   UNL     1     138.414 123.910 132.180  0.00  0.00    +0.000 OA
BRANCH  10  11
ATOM     11  C   UNL     1     137.366 123.866 132.996  0.00  0.00    +0.000 C 
ATOM     12  C   UNL     1     136.135 123.767 133.904  0.00  0.00    +0.000 C 
ENDBRANCH  10  11
ENDBRANCH   5  10
TORSDOF 2
ENDMDL
MODEL 2
REMARK VINA RESULT:      -4.3      3.816      4.665
REMARK  Name = 92041_2Ethoxy5fluorouracil.pdbqt.pdb
REMARK  2 active torsions:
REMARK  status: ('A' for Active; 'I' for Inactive)
REMARK    1  A    between atoms: C_5  and  O_10
REMARK    2  A    between atoms: O_10  and  C_11
REMARK                            x       y       z     vdW  Elec       q    Type
REMARK                         _______ _______ _______ _____ _____    ______ ____
ROOT
ATOM      1  F   UNL     1     137.015 124.718 133.159  0.00  0.00    +0.000 F 
ATOM      2  O   UNL     1     138.906 126.789 132.643  0.00  0.00    +0.000 OA
ATOM      3  N   UNL     1     140.325 125.781 134.143  0.00  0.00    +0.000 N 
ATOM      4  N   UNL     1     139.852 123.709 135.182  0.00  0.00    +0.000 NA
ATOM      5  C   UNL     1     140.620 124.752 135.034  0.00  0.00    +0.000 C 
ATOM      6  C   UNL     1     139.177 125.826 133.348  0.00  0.00    +0.000 C 
ATOM      7  C   UNL     1     138.318 124.605 133.464  0.00  0.00    +0.000 C 
ATOM      8  C   UNL     1     138.798 123.811 134.362  0.00  0.00    +0.000 C 
ATOM      9  H   UNL     1     140.933 126.584 134.096  0.00  0.00    +0.000 HD
ENDROOT
BRANCH   5  10
ATOM     10  O   UNL     1     141.773 124.964 135.709  0.00  0.00    +0.000 OA
BRANCH  10  11
ATOM     11  C   UNL     1     141.718 125.853 136.696  0.00  0.00    +0.000 C 
ATOM     12  C   UNL     1     141.604 126.848 137.855  0.00  0.00    +0.000 C 
ENDBRANCH  10  11
ENDBRANCH   5  10
TORSDOF 2
ENDMDL
MODEL 3
REMARK VINA RESULT:      -4.3      2.184      2.808
REMARK  Name = 92041_2Ethoxy5fluorouracil.pdbqt.pdb
REMARK  2 active torsions:
REMARK  status: ('A' for Active; 'I' for Inactive)
REMARK    1  A    between atoms: C_5  and  O_10
REMARK    2  A    between atoms: O_10  and  C_11
REMARK                            x       y       z     vdW  Elec       q    Type
REMARK                         _______ _______ _______ _____ _____    ______ ____
ROOT
ATOM      1  F   UNL     1     140.796 125.293 131.020  0.00  0.00    +0.000 F 
ATOM      2  O   UNL     1     139.571 127.174 132.779  0.00  0.00    +0.000 OA
ATOM      3  N   UNL     1     137.942 125.611 133.213  0.00  0.00    +0.000 N 
ATOM      4  N   UNL     1     138.004 123.405 132.363  0.00  0.00    +0.000 NA
ATOM      5  C   UNL     1     137.397 124.343 133.034  0.00  0.00    +0.000 C 
ATOM      6  C   UNL     1     139.164 126.024 132.677  0.00  0.00    +0.000 C 
ATOM      7  C   UNL     1     139.900 124.937 131.956  0.00  0.00    +0.000 C 
ATOM      8  C   UNL     1     139.179 123.867 131.915  0.00  0.00    +0.000 C 
ATOM      9  H   UNL     1     137.412 126.313 133.708  0.00  0.00    +0.000 HD
ENDROOT
BRANCH   5  10
ATOM     10  O   UNL     1     136.188 124.209 133.627  0.00  0.00    +0.000 OA
BRANCH  10  11
ATOM     11  C   UNL     1     135.637 123.000 133.567  0.00  0.00    +0.000 C 
ATOM     12  C   UNL     1     134.968 121.622 133.547  0.00  0.00    +0.000 C 
ENDBRANCH  10  11
ENDBRANCH   5  10
TORSDOF 2
ENDMDL
MODEL 4
REMARK VINA RESULT:      -4.2     28.975     30.025
REMARK  Name = 92041_2Ethoxy5fluorouracil.pdbqt.pdb
REMARK  2 active torsions:
REMARK  status: ('A' for Active; 'I' for Inactive)
REMARK    1  A    between atoms: C_5  and  O_10
REMARK    2  A    between atoms: O_10  and  C_11
REMARK                            x       y       z     vdW  Elec       q    Type
REMARK                         _______ _______ _______ _____ _____    ______ ____
ROOT
ATOM      1  F   UNL     1     142.238 125.549 100.102  0.00  0.00    +0.000 F 
ATOM      2  O   UNL     1     144.281 123.801 101.052  0.00  0.00    +0.000 OA
ATOM      3  N   UNL     1     144.500 125.159 102.893  0.00  0.00    +0.000 N 
ATOM      4  N   UNL     1     143.086 127.008 103.314  0.00  0.00    +0.000 NA
ATOM      5  C   UNL     1     144.114 126.273 103.633  0.00  0.00    +0.000 C 
ATOM      6  C   UNL     1     143.861 124.731 101.727  0.00  0.00    +0.000 C 
ATOM      7  C   UNL     1     142.641 125.529 101.383  0.00  0.00    +0.000 C 
ATOM      8  C   UNL     1     142.509 126.512 102.212  0.00  0.00    +0.000 C 
ATOM      9  H   UNL     1     145.327 124.649 103.162  0.00  0.00    +0.000 HD
ENDROOT
BRANCH   5  10
ATOM     10  O   UNL     1     144.919 126.493 104.699  0.00  0.00    +0.000 OA
BRANCH  10  11
ATOM     11  C   UNL     1     146.203 126.702 104.429  0.00  0.00    +0.000 C 
ATOM     12  C   UNL     1     147.696 126.884 104.136  0.00  0.00    +0.000 C 
ENDBRANCH  10  11
ENDBRANCH   5  10
TORSDOF 2
ENDMDL
MODEL 5
REMARK VINA RESULT:      -4.2     29.453     30.163
REMARK  Name = 92041_2Ethoxy5fluorouracil.pdbqt.pdb
REMARK  2 active torsions:
REMARK  status: ('A' for Active; 'I' for Inactive)
REMARK    1  A    between atoms: C_5  and  O_10
REMARK    2  A    between atoms: O_10  and  C_11
REMARK                            x       y       z     vdW  Elec       q    Type
REMARK                         _______ _______ _______ _____ _____    ______ ____
ROOT
ATOM      1  F   UNL     1     147.861 125.400 102.558  0.00  0.00    +0.000 F 
ATOM      2  O   UNL     1     145.566 124.453 101.155  0.00  0.00    +0.000 OA
ATOM      3  N   UNL     1     144.316 126.035 102.259  0.00  0.00    +0.000 N 
ATOM      4  N   UNL     1     145.259 127.657 103.698  0.00  0.00    +0.000 NA
ATOM      5  C   UNL     1     144.217 127.096 103.154  0.00  0.00    +0.000 C 
ATOM      6  C   UNL     1     145.521 125.442 101.875  0.00  0.00    +0.000 C 
ATOM      7  C   UNL     1     146.731 126.117 102.444  0.00  0.00    +0.000 C 
ATOM      8  C   UNL     1     146.371 127.058 103.253  0.00  0.00    +0.000 C 
ATOM      9  H   UNL     1     143.475 125.612 101.897  0.00  0.00    +0.000 HD
ENDROOT
BRANCH   5  10
ATOM     10  O   UNL     1     142.934 127.463 103.385  0.00  0.00    +0.000 OA
BRANCH  10  11
ATOM     11  C   UNL     1     142.068 127.205 102.410  0.00  0.00    +0.000 C 
ATOM     12  C   UNL     1     141.026 126.897 101.330  0.00  0.00    +0.000 C 
ENDBRANCH  10  11
ENDBRANCH   5  10
TORSDOF 2
ENDMDL
MODEL 6
REMARK VINA RESULT:      -4.1     29.746     30.988
REMARK  Name = 92041_2Ethoxy5fluorouracil.pdbqt.pdb
REMARK  2 active torsions:
REMARK  status: ('A' for Active; 'I' for Inactive)
REMARK    1  A    between atoms: C_5  and  O_10
REMARK    2  A    between atoms: O_10  and  C_11
REMARK                            x       y       z     vdW  Elec       q    Type
REMARK                         _______ _______ _______ _____ _____    ______ ____
ROOT
ATOM      1  F   UNL     1     147.049 128.738 102.148  0.00  0.00    +0.000 F 
ATOM      2  O   UNL     1     145.507 127.433 104.162  0.00  0.00    +0.000 OA
ATOM      3  N   UNL     1     145.236 125.665 102.719  0.00  0.00    +0.000 N 
ATOM      4  N   UNL     1     146.299 125.539 100.610  0.00  0.00    +0.000 NA
ATOM      5  C   UNL     1     145.477 125.048 101.495  0.00  0.00    +0.000 C 
ATOM      6  C   UNL     1     145.811 126.875 103.116  0.00  0.00    +0.000 C 
ATOM      7  C   UNL     1     146.804 127.417 102.136  0.00  0.00    +0.000 C 
ATOM      8  C   UNL     1     146.834 126.674 101.080  0.00  0.00    +0.000 C 
ATOM      9  H   UNL     1     144.560 125.263 103.351  0.00  0.00    +0.000 HD
ENDROOT
BRANCH   5  10
ATOM     10  O   UNL     1     144.770 123.905 101.341  0.00  0.00    +0.000 OA
BRANCH  10  11
ATOM     11  C   UNL     1     143.595 124.021 100.730  0.00  0.00    +0.000 C 
ATOM     12  C   UNL     1     142.272 124.170  99.973  0.00  0.00    +0.000 C 
ENDBRANCH  10  11
ENDBRANCH   5  10
TORSDOF 2
ENDMDL
MODEL 7
REMARK VINA RESULT:      -4.1     30.113     30.976
REMARK  Name = 92041_2Ethoxy5fluorouracil.pdbqt.pdb
REMARK  2 active torsions:
REMARK  status: ('A' for Active; 'I' for Inactive)
REMARK    1  A    between atoms: C_5  and  O_10
REMARK    2  A    between atoms: O_10  and  C_11
REMARK                            x       y       z     vdW  Elec       q    Type
REMARK                         _______ _______ _______ _____ _____    ______ ____
ROOT
ATOM      1  F   UNL     1     148.229 126.919 100.005  0.00  0.00    +0.000 F 
ATOM      2  O   UNL     1     146.974 128.631 101.909  0.00  0.00    +0.000 OA
ATOM      3  N   UNL     1     145.526 126.917 102.403  0.00  0.00    +0.000 N 
ATOM      4  N   UNL     1     145.720 124.750 101.476  0.00  0.00    +0.000 NA
ATOM      5  C   UNL     1     145.083 125.610 102.219  0.00  0.00    +0.000 C 
ATOM      6  C   UNL     1     146.664 127.453 101.796  0.00  0.00    +0.000 C 
ATOM      7  C   UNL     1     147.439 126.458 100.989  0.00  0.00    +0.000 C 
ATOM      8  C   UNL     1     146.814 125.328 100.962  0.00  0.00    +0.000 C 
ATOM      9  H   UNL     1     144.974 127.553 102.958  0.00  0.00    +0.000 HD
ENDROOT
BRANCH   5  10
ATOM     10  O   UNL     1     143.937 125.350 102.891  0.00  0.00    +0.000 OA
BRANCH  10  11
ATOM     11  C   UNL     1     142.952 126.227 102.728  0.00  0.00    +0.000 C 
ATOM     12  C   UNL     1     141.840 127.253 102.484  0.00  0.00    +0.000 C 
ENDBRANCH  10  11
ENDBRANCH   5  10
TORSDOF 2
ENDMDL
MODEL 8
REMARK VINA RESULT:      -4.0      3.686      4.517
REMARK  Name = 92041_2Ethoxy5fluorouracil.pdbqt.pdb
REMARK  2 active torsions:
REMARK  status: ('A' for Active; 'I' for Inactive)
REMARK    1  A    between atoms: C_5  and  O_10
REMARK    2  A    between atoms: O_10  and  C_11
REMARK                            x       y       z     vdW  Elec       q    Type
REMARK                         _______ _______ _______ _____ _____    ______ ____
ROOT
ATOM      1  F   UNL     1     138.405 125.768 133.139  0.00  0.00    +0.000 F 
ATOM      2  O   UNL     1     140.660 124.956 134.685  0.00  0.00    +0.000 OA
ATOM      3  N   UNL     1     139.360 123.290 135.589  0.00  0.00    +0.000 N 
ATOM      4  N   UNL     1     137.148 122.844 134.880  0.00  0.00    +0.000 NA
ATOM      5  C   UNL     1     138.151 122.605 135.677  0.00  0.00    +0.000 C 
ATOM      6  C   UNL     1     139.617 124.315 134.676  0.00  0.00    +0.000 C 
ATOM      7  C   UNL     1     138.495 124.557 133.714  0.00  0.00    +0.000 C 
ATOM      8  C   UNL     1     137.486 123.809 134.015  0.00  0.00    +0.000 C 
ATOM      9  H   UNL     1     140.091 123.092 136.256  0.00  0.00    +0.000 HD
ENDROOT
BRANCH   5  10
ATOM     10  O   UNL     1     138.148 121.683 136.668  0.00  0.00    +0.000 OA
BRANCH  10  11
ATOM     11  C   UNL     1     137.019 121.575 137.362  0.00  0.00    +0.000 C 
ATOM     12  C   UNL     1     135.696 121.498 138.129  0.00  0.00    +0.000 C 
ENDBRANCH  10  11
ENDBRANCH   5  10
TORSDOF 2
ENDMDL
MODEL 9
REMARK VINA RESULT:      -4.0     29.573     29.967
REMARK  Name = 92041_2Ethoxy5fluorouracil.pdbqt.pdb
REMARK  2 active torsions:
REMARK  status: ('A' for Active; 'I' for Inactive)
REMARK    1  A    between atoms: C_5  and  O_10
REMARK    2  A    between atoms: O_10  and  C_11
REMARK                            x       y       z     vdW  Elec       q    Type
REMARK                         _______ _______ _______ _____ _____    ______ ____
ROOT
ATOM      1  F   UNL     1     145.859 125.965 103.684  0.00  0.00    +0.000 F 
ATOM      2  O   UNL     1     144.277 124.307 101.987  0.00  0.00    +0.000 OA
ATOM      3  N   UNL     1     142.670 125.950 101.986  0.00  0.00    +0.000 N 
ATOM      4  N   UNL     1     142.970 128.056 103.019  0.00  0.00    +0.000 NA
ATOM      5  C   UNL     1     142.219 127.208 102.375  0.00  0.00    +0.000 C 
ATOM      6  C   UNL     1     143.944 125.451 102.266  0.00  0.00    +0.000 C 
ATOM      7  C   UNL     1     144.837 126.439 102.951  0.00  0.00    +0.000 C 
ATOM      8  C   UNL     1     144.181 127.519 103.216  0.00  0.00    +0.000 C 
ATOM      9  H   UNL     1     142.034 125.317 101.523  0.00  0.00    +0.000 HD
ENDROOT
BRANCH   5  10
ATOM     10  O   UNL     1     140.935 127.436 102.010  0.00  0.00    +0.000 OA
BRANCH  10  11
ATOM     11  C   UNL     1     140.210 126.360 101.720  0.00  0.00    +0.000 C 
ATOM     12  C   UNL     1     139.367 125.142 101.327  0.00  0.00    +0.000 C 
ENDBRANCH  10  11
ENDBRANCH   5  10
TORSDOF 2
ENDMDL
