REMARK  Name = 92041_2Ethoxy5fluorouracil.pdbqt.pdb
REMARK  2 active torsions:
REMARK  status: ('A' for Active; 'I' for Inactive)
REMARK    1  A    between atoms: C_5  and  O_10
REMARK    2  A    between atoms: O_10  and  C_11
REMARK                            x       y       z     vdW  Elec       q    Type
REMARK                         _______ _______ _______ _____ _____    ______ ____
ROOT
ATOM      1  F   UNL     1      -3.048   1.196  -0.273  0.00  0.00    +0.000 F 
ATOM      2  O   UNL     1      -2.596  -1.607  -0.006  0.00  0.00    +0.000 OA
ATOM      3  N   UNL     1      -0.339  -1.175   0.035  0.00  0.00    +0.000 N 
ATOM      4  N   UNL     1       0.561   1.012   0.045  0.00  0.00    +0.000 NA
ATOM      5  C   UNL     1       0.727  -0.280   0.011  0.00  0.00    +0.000 C 
ATOM      6  C   UNL     1      -1.683  -0.795   0.064  0.00  0.00    +0.000 C 
ATOM      7  C   UNL     1      -1.886   0.685   0.166  0.00  0.00    +0.000 C 
ATOM      8  C   UNL     1      -0.747   1.292   0.109  0.00  0.00    +0.000 C 
ATOM      9  H   UNL     1      -0.156  -2.165  -0.033  0.00  0.00    +0.000 HD
ENDROOT
BRANCH   5  10
ATOM     10  O   UNL     1       1.927  -0.903  -0.051  0.00  0.00    +0.000 OA
BRANCH  10  11
ATOM     11  C   UNL     1       2.997  -0.114  -0.042  0.00  0.00    +0.000 C 
ATOM     12  C   UNL     1       4.266   0.744  -0.028  0.00  0.00    +0.000 C 
ENDBRANCH  10  11
ENDBRANCH   5  10
TORSDOF 2
