MODEL 1
REMARK VINA RESULT:      -5.6      0.000      0.000
REMARK  Name = 95716_6Bromoisatin.pdbqt.pdb
REMARK  0 active torsions:
REMARK  status: ('A' for Active; 'I' for Inactive)
REMARK                            x       y       z     vdW  Elec       q    Type
REMARK                         _______ _______ _______ _____ _____    ______ ____
ROOT
ATOM      1 BR   UNL     1     134.437 122.940 135.893  0.00  0.00    +0.000 Br
ATOM      2  O   UNL     1     140.959 123.893 133.593  0.00  0.00    +0.000 OA
ATOM      3  O   UNL     1     139.849 125.331 131.191  0.00  0.00    +0.000 OA
ATOM      4  N   UNL     1     137.846 124.824 132.272  0.00  0.00    +0.000 N 
ATOM      5  C   UNL     1     137.502 124.168 133.451  0.00  0.00    +0.000 A 
ATOM      6  C   UNL     1     138.630 123.715 134.131  0.00  0.00    +0.000 A 
ATOM      7  C   UNL     1     139.797 124.103 133.339  0.00  0.00    +0.000 C 
ATOM      8  C   UNL     1     136.232 123.957 133.943  0.00  0.00    +0.000 A 
ATOM      9  C   UNL     1     138.558 123.034 135.327  0.00  0.00    +0.000 A 
ATOM     10  C   UNL     1     139.217 124.846 132.100  0.00  0.00    +0.000 C 
ATOM     11  C   UNL     1     136.140 123.268 135.155  0.00  0.00    +0.000 A 
ATOM     12  C   UNL     1     137.279 122.812 135.840  0.00  0.00    +0.000 A 
ATOM     13  H   UNL     1     137.204 125.239 131.611  0.00  0.00    +0.000 HD
ENDROOT
TORSDOF 0
ENDMDL
MODEL 2
REMARK VINA RESULT:      -5.3      1.751      2.654
REMARK  Name = 95716_6Bromoisatin.pdbqt.pdb
REMARK  0 active torsions:
REMARK  status: ('A' for Active; 'I' for Inactive)
REMARK                            x       y       z     vdW  Elec       q    Type
REMARK                         _______ _______ _______ _____ _____    ______ ____
ROOT
ATOM      1 BR   UNL     1     134.824 122.367 137.687  0.00  0.00    +0.000 Br
ATOM      2  O   UNL     1     139.084 124.030 132.412  0.00  0.00    +0.000 OA
ATOM      3  O   UNL     1     141.360 122.747 133.912  0.00  0.00    +0.000 OA
ATOM      4  N   UNL     1     139.649 122.371 135.451  0.00  0.00    +0.000 N 
ATOM      5  C   UNL     1     138.289 122.661 135.502  0.00  0.00    +0.000 A 
ATOM      6  C   UNL     1     137.868 123.335 134.357  0.00  0.00    +0.000 A 
ATOM      7  C   UNL     1     139.038 123.496 133.495  0.00  0.00    +0.000 C 
ATOM      8  C   UNL     1     137.411 122.354 136.519  0.00  0.00    +0.000 A 
ATOM      9  C   UNL     1     136.562 123.735 134.163  0.00  0.00    +0.000 A 
ATOM     10  C   UNL     1     140.210 122.832 134.275  0.00  0.00    +0.000 C 
ATOM     11  C   UNL     1     136.085 122.752 136.340  0.00  0.00    +0.000 A 
ATOM     12  C   UNL     1     135.661 123.431 135.184  0.00  0.00    +0.000 A 
ATOM     13  H   UNL     1     140.183 121.890 136.161  0.00  0.00    +0.000 HD
ENDROOT
TORSDOF 0
ENDMDL
MODEL 3
REMARK VINA RESULT:      -5.0      3.187      3.992
REMARK  Name = 95716_6Bromoisatin.pdbqt.pdb
REMARK  0 active torsions:
REMARK  status: ('A' for Active; 'I' for Inactive)
REMARK                            x       y       z     vdW  Elec       q    Type
REMARK                         _______ _______ _______ _____ _____    ______ ____
ROOT
ATOM      1 BR   UNL     1     131.665 119.979 135.911  0.00  0.00    +0.000 Br
ATOM      2  O   UNL     1     136.541 124.514 133.815  0.00  0.00    +0.000 OA
ATOM      3  O   UNL     1     137.408 122.536 131.716  0.00  0.00    +0.000 OA
ATOM      4  N   UNL     1     135.683 121.305 132.689  0.00  0.00    +0.000 N 
ATOM      5  C   UNL     1     134.784 121.522 133.729  0.00  0.00    +0.000 A 
ATOM      6  C   UNL     1     134.972 122.772 134.314  0.00  0.00    +0.000 A 
ATOM      7  C   UNL     1     136.076 123.420 133.605  0.00  0.00    +0.000 C 
ATOM      8  C   UNL     1     133.807 120.659 134.176  0.00  0.00    +0.000 A 
ATOM      9  C   UNL     1     134.207 123.228 135.367  0.00  0.00    +0.000 A 
ATOM     10  C   UNL     1     136.519 122.393 132.522  0.00  0.00    +0.000 C 
ATOM     11  C   UNL     1     133.022 121.104 135.242  0.00  0.00    +0.000 A 
ATOM     12  C   UNL     1     133.213 122.365 135.832  0.00  0.00    +0.000 A 
ATOM     13  H   UNL     1     135.743 120.475 132.115  0.00  0.00    +0.000 HD
ENDROOT
TORSDOF 0
ENDMDL
MODEL 4
REMARK VINA RESULT:      -5.0     30.969     32.839
REMARK  Name = 95716_6Bromoisatin.pdbqt.pdb
REMARK  0 active torsions:
REMARK  status: ('A' for Active; 'I' for Inactive)
REMARK                            x       y       z     vdW  Elec       q    Type
REMARK                         _______ _______ _______ _____ _____    ______ ____
ROOT
ATOM      1 BR   UNL     1     147.905 127.743  99.245  0.00  0.00    +0.000 Br
ATOM      2  O   UNL     1     142.285 126.839 103.287  0.00  0.00    +0.000 OA
ATOM      3  O   UNL     1     144.085 125.821 105.477  0.00  0.00    +0.000 OA
ATOM      4  N   UNL     1     145.698 126.256 103.849  0.00  0.00    +0.000 N 
ATOM      5  C   UNL     1     145.675 126.747 102.547  0.00  0.00    +0.000 A 
ATOM      6  C   UNL     1     144.377 127.043 102.136  0.00  0.00    +0.000 A 
ATOM      7  C   UNL     1     143.487 126.722 103.251  0.00  0.00    +0.000 C 
ATOM      8  C   UNL     1     146.755 126.942 101.714  0.00  0.00    +0.000 A 
ATOM      9  C   UNL     1     144.085 127.544 100.885  0.00  0.00    +0.000 A 
ATOM     10  C   UNL     1     144.422 126.196 104.378  0.00  0.00    +0.000 C 
ATOM     11  C   UNL     1     146.479 127.449 100.443  0.00  0.00    +0.000 A 
ATOM     12  C   UNL     1     145.169 127.747 100.029  0.00  0.00    +0.000 A 
ATOM     13  H   UNL     1     146.518 125.972 104.366  0.00  0.00    +0.000 HD
ENDROOT
TORSDOF 0
ENDMDL
MODEL 5
REMARK VINA RESULT:      -4.8     32.385     33.510
REMARK  Name = 95716_6Bromoisatin.pdbqt.pdb
REMARK  0 active torsions:
REMARK  status: ('A' for Active; 'I' for Inactive)
REMARK                            x       y       z     vdW  Elec       q    Type
REMARK                         _______ _______ _______ _____ _____    ______ ____
ROOT
ATOM      1 BR   UNL     1     142.796 122.399  97.544  0.00  0.00    +0.000 Br
ATOM      2  O   UNL     1     143.985 126.297 103.213  0.00  0.00    +0.000 OA
ATOM      3  O   UNL     1     141.164 127.336 103.029  0.00  0.00    +0.000 OA
ATOM      4  N   UNL     1     141.150 125.911 101.183  0.00  0.00    +0.000 N 
ATOM      5  C   UNL     1     142.079 125.061 100.589  0.00  0.00    +0.000 A 
ATOM      6  C   UNL     1     143.295 125.078 101.268  0.00  0.00    +0.000 A 
ATOM      7  C   UNL     1     143.151 126.007 102.388  0.00  0.00    +0.000 C 
ATOM      8  C   UNL     1     141.889 124.275  99.473  0.00  0.00    +0.000 A 
ATOM      9  C   UNL     1     144.379 124.321 100.878  0.00  0.00    +0.000 A 
ATOM     10  C   UNL     1     141.693 126.540 102.288  0.00  0.00    +0.000 C 
ATOM     11  C   UNL     1     142.977 123.501  99.063  0.00  0.00    +0.000 A 
ATOM     12  C   UNL     1     144.204 123.519  99.749  0.00  0.00    +0.000 A 
ATOM     13  H   UNL     1     140.202 126.068 100.874  0.00  0.00    +0.000 HD
ENDROOT
TORSDOF 0
ENDMDL
MODEL 6
REMARK VINA RESULT:      -4.8     32.259     33.388
REMARK  Name = 95716_6Bromoisatin.pdbqt.pdb
REMARK  0 active torsions:
REMARK  status: ('A' for Active; 'I' for Inactive)
REMARK                            x       y       z     vdW  Elec       q    Type
REMARK                         _______ _______ _______ _____ _____    ______ ____
ROOT
ATOM      1 BR   UNL     1     141.369 123.093  97.664  0.00  0.00    +0.000 Br
ATOM      2  O   UNL     1     140.569 127.130 103.303  0.00  0.00    +0.000 OA
ATOM      3  O   UNL     1     143.323 128.253 102.830  0.00  0.00    +0.000 OA
ATOM      4  N   UNL     1     143.218 126.770 101.033  0.00  0.00    +0.000 N 
ATOM      5  C   UNL     1     142.269 125.872 100.551  0.00  0.00    +0.000 A 
ATOM      6  C   UNL     1     141.120 125.873 101.339  0.00  0.00    +0.000 A 
ATOM      7  C   UNL     1     141.333 126.841 102.414  0.00  0.00    +0.000 C 
ATOM      8  C   UNL     1     142.383 125.058  99.445  0.00  0.00    +0.000 A 
ATOM      9  C   UNL     1     140.031 125.069 101.073  0.00  0.00    +0.000 A 
ATOM     10  C   UNL     1     142.757 127.417 102.164  0.00  0.00    +0.000 C 
ATOM     11  C   UNL     1     141.290 124.237  99.160  0.00  0.00    +0.000 A 
ATOM     12  C   UNL     1     140.131 124.238  99.956  0.00  0.00    +0.000 A 
ATOM     13  H   UNL     1     144.128 126.948 100.633  0.00  0.00    +0.000 HD
ENDROOT
TORSDOF 0
ENDMDL
MODEL 7
REMARK VINA RESULT:      -4.8     32.487     33.998
REMARK  Name = 95716_6Bromoisatin.pdbqt.pdb
REMARK  0 active torsions:
REMARK  status: ('A' for Active; 'I' for Inactive)
REMARK                            x       y       z     vdW  Elec       q    Type
REMARK                         _______ _______ _______ _____ _____    ______ ____
ROOT
ATOM      1 BR   UNL     1     144.566 123.368  97.690  0.00  0.00    +0.000 Br
ATOM      2  O   UNL     1     138.977 125.270 101.417  0.00  0.00    +0.000 OA
ATOM      3  O   UNL     1     140.729 127.142 102.997  0.00  0.00    +0.000 OA
ATOM      4  N   UNL     1     142.338 126.263 101.555  0.00  0.00    +0.000 N 
ATOM      5  C   UNL     1     142.330 125.332 100.521  0.00  0.00    +0.000 A 
ATOM      6  C   UNL     1     141.054 124.814 100.311  0.00  0.00    +0.000 A 
ATOM      7  C   UNL     1     140.163 125.453 101.279  0.00  0.00    +0.000 C 
ATOM      8  C   UNL     1     143.405 124.927  99.760  0.00  0.00    +0.000 A 
ATOM      9  C   UNL     1     140.780 123.872  99.341  0.00  0.00    +0.000 A 
ATOM     10  C   UNL     1     141.073 126.418 102.092  0.00  0.00    +0.000 C 
ATOM     11  C   UNL     1     143.146 123.973  98.773  0.00  0.00    +0.000 A 
ATOM     12  C   UNL     1     141.858 123.451  98.562  0.00  0.00    +0.000 A 
ATOM     13  H   UNL     1     143.142 126.774 101.892  0.00  0.00    +0.000 HD
ENDROOT
TORSDOF 0
ENDMDL
MODEL 8
REMARK VINA RESULT:      -4.7      3.095      3.900
REMARK  Name = 95716_6Bromoisatin.pdbqt.pdb
REMARK  0 active torsions:
REMARK  status: ('A' for Active; 'I' for Inactive)
REMARK                            x       y       z     vdW  Elec       q    Type
REMARK                         _______ _______ _______ _____ _____    ______ ____
ROOT
ATOM      1 BR   UNL     1     134.333 117.921 134.903  0.00  0.00    +0.000 Br
ATOM      2  O   UNL     1     136.331 124.532 133.881  0.00  0.00    +0.000 OA
ATOM      3  O   UNL     1     139.196 123.668 134.226  0.00  0.00    +0.000 OA
ATOM      4  N   UNL     1     138.152 121.602 134.517  0.00  0.00    +0.000 N 
ATOM      5  C   UNL     1     136.834 121.155 134.506  0.00  0.00    +0.000 A 
ATOM      6  C   UNL     1     135.943 122.198 134.263  0.00  0.00    +0.000 A 
ATOM      7  C   UNL     1     136.736 123.416 134.104  0.00  0.00    +0.000 C 
ATOM      8  C   UNL     1     136.394 119.864 134.702  0.00  0.00    +0.000 A 
ATOM      9  C   UNL     1     134.577 122.015 134.203  0.00  0.00    +0.000 A 
ATOM     10  C   UNL     1     138.214 122.963 134.283  0.00  0.00    +0.000 C 
ATOM     11  C   UNL     1     135.014 119.660 134.644  0.00  0.00    +0.000 A 
ATOM     12  C   UNL     1     134.115 120.713 134.399  0.00  0.00    +0.000 A 
ATOM     13  H   UNL     1     138.974 121.035 134.672  0.00  0.00    +0.000 HD
ENDROOT
TORSDOF 0
ENDMDL
MODEL 9
REMARK VINA RESULT:      -4.7     33.793     34.892
REMARK  Name = 95716_6Bromoisatin.pdbqt.pdb
REMARK  0 active torsions:
REMARK  status: ('A' for Active; 'I' for Inactive)
REMARK                            x       y       z     vdW  Elec       q    Type
REMARK                         _______ _______ _______ _____ _____    ______ ____
ROOT
ATOM      1 BR   UNL     1     141.668 122.072  96.462  0.00  0.00    +0.000 Br
ATOM      2  O   UNL     1     144.180 125.206 102.173  0.00  0.00    +0.000 OA
ATOM      3  O   UNL     1     146.972 124.627 101.201  0.00  0.00    +0.000 OA
ATOM      4  N   UNL     1     145.769 123.671  99.447  0.00  0.00    +0.000 N 
ATOM      5  C   UNL     1     144.418 123.523  99.146  0.00  0.00    +0.000 A 
ATOM      6  C   UNL     1     143.610 124.082 100.133  0.00  0.00    +0.000 A 
ATOM      7  C   UNL     1     144.497 124.637 101.155  0.00  0.00    +0.000 C 
ATOM      8  C   UNL     1     143.877 122.914  98.034  0.00  0.00    +0.000 A 
ATOM      9  C   UNL     1     142.233 124.067 100.070  0.00  0.00    +0.000 A 
ATOM     10  C   UNL     1     145.938 124.335 100.648  0.00  0.00    +0.000 C 
ATOM     11  C   UNL     1     142.483 122.888  97.953  0.00  0.00    +0.000 A 
ATOM     12  C   UNL     1     141.669 123.453  98.950  0.00  0.00    +0.000 A 
ATOM     13  H   UNL     1     146.544 123.348  98.886  0.00  0.00    +0.000 HD
ENDROOT
TORSDOF 0
ENDMDL
