MODEL 1
REMARK VINA RESULT:      -6.5      0.000      0.000
REMARK  Name = 969516_Curcumin.pdbqt.pdb
REMARK  8 active torsions:
REMARK  status: ('A' for Active; 'I' for Inactive)
REMARK    1  A    between atoms: C_3  and  C_5
REMARK    2  A    between atoms: C_4  and  C_6
REMARK    3  A    between atoms: C_8  and  O_12
REMARK    4  A    between atoms: C_10  and  O_14
REMARK    5  A    between atoms: C_17  and  C_19
REMARK    6  A    between atoms: C_18  and  C_20
REMARK    7  A    between atoms: C_22  and  O_26
REMARK    8  A    between atoms: C_24  and  O_28
REMARK                            x       y       z     vdW  Elec       q    Type
REMARK                         _______ _______ _______ _____ _____    ______ ____
ROOT
ATOM      1  C   UNL     1     143.881 121.509 135.007  0.00  0.00    +0.000 C 
ATOM      2  O   UNL     1     144.046 120.917 137.216  0.00  0.00    +0.000 OA
ATOM      3  C   UNL     1     144.546 120.881 136.102  0.00  0.00    +0.000 C 
ATOM      4  O   UNL     1     143.830 122.373 132.885  0.00  0.00    +0.000 OA
ATOM      5  C   UNL     1     143.217 122.141 133.917  0.00  0.00    +0.000 C 
ENDROOT
BRANCH   3   7
ATOM      6  C   UNL     1     146.846 119.641 135.704  0.00  0.00    +0.000 C 
ATOM      7  C   UNL     1     145.800 120.205 135.884  0.00  0.00    +0.000 C 
BRANCH   6   8
ATOM      8  C   UNL     1     148.086 118.970 135.490  0.00  0.00    +0.000 A 
ATOM      9  C   UNL     1     149.216 119.699 135.122  0.00  0.00    +0.000 A 
ATOM     10  C   UNL     1     150.440 119.058 134.908  0.00  0.00    +0.000 A 
ATOM     11  C   UNL     1     148.167 117.589 135.649  0.00  0.00    +0.000 A 
ATOM     12  C   UNL     1     150.509 117.670 135.071  0.00  0.00    +0.000 A 
ATOM     13  C   UNL     1     149.380 116.940 135.439  0.00  0.00    +0.000 A 
BRANCH  10  14
ATOM     14  O   UNL     1     151.593 119.708 134.546  0.00  0.00    +0.000 OA
ATOM     15  C   UNL     1     152.036 120.708 135.420  0.00  0.00    +0.000 C 
ENDBRANCH  10  14
BRANCH  12  16
ATOM     16  O   UNL     1     151.661 116.956 134.884  0.00  0.00    +0.000 OA
ATOM     17  H   UNL     1     152.264 117.076 135.637  0.00  0.00    +0.000 HD
ENDBRANCH  12  16
ENDBRANCH   6   8
ENDBRANCH   3   7
BRANCH   5  19
ATOM     18  C   UNL     1     140.668 122.801 134.132  0.00  0.00    +0.000 C 
ATOM     19  C   UNL     1     141.827 122.500 134.037  0.00  0.00    +0.000 C 
BRANCH  18  20
ATOM     20  C   UNL     1     139.293 123.163 134.244  0.00  0.00    +0.000 A 
ATOM     21  C   UNL     1     138.526 122.659 135.293  0.00  0.00    +0.000 A 
ATOM     22  C   UNL     1     137.177 123.005 135.416  0.00  0.00    +0.000 A 
ATOM     23  C   UNL     1     138.720 124.020 133.307  0.00  0.00    +0.000 A 
ATOM     24  C   UNL     1     136.616 123.865 134.470  0.00  0.00    +0.000 A 
ATOM     25  C   UNL     1     137.379 124.372 133.419  0.00  0.00    +0.000 A 
BRANCH  22  26
ATOM     26  O   UNL     1     136.350 122.554 136.417  0.00  0.00    +0.000 OA
ATOM     27  C   UNL     1     136.861 121.503 137.195  0.00  0.00    +0.000 C 
ENDBRANCH  22  26
BRANCH  24  28
ATOM     28  O   UNL     1     135.297 124.216 134.574  0.00  0.00    +0.000 OA
ATOM     29  H   UNL     1     135.242 125.124 134.926  0.00  0.00    +0.000 HD
ENDBRANCH  24  28
ENDBRANCH  18  20
ENDBRANCH   5  19
TORSDOF 8
ENDMDL
MODEL 2
REMARK VINA RESULT:      -5.9     25.090     27.579
REMARK  Name = 969516_Curcumin.pdbqt.pdb
REMARK  8 active torsions:
REMARK  status: ('A' for Active; 'I' for Inactive)
REMARK    1  A    between atoms: C_3  and  C_5
REMARK    2  A    between atoms: C_4  and  C_6
REMARK    3  A    between atoms: C_8  and  O_12
REMARK    4  A    between atoms: C_10  and  O_14
REMARK    5  A    between atoms: C_17  and  C_19
REMARK    6  A    between atoms: C_18  and  C_20
REMARK    7  A    between atoms: C_22  and  O_26
REMARK    8  A    between atoms: C_24  and  O_28
REMARK                            x       y       z     vdW  Elec       q    Type
REMARK                         _______ _______ _______ _____ _____    ______ ____
ROOT
ATOM      1  C   UNL     1     148.124 114.672 110.407  0.00  0.00    +0.000 C 
ATOM      2  O   UNL     1     149.972 114.190 109.139  0.00  0.00    +0.000 OA
ATOM      3  C   UNL     1     148.773 114.424 109.162  0.00  0.00    +0.000 C 
ATOM      4  O   UNL     1     146.374 115.446 111.668  0.00  0.00    +0.000 OA
ATOM      5  C   UNL     1     147.479 114.924 111.651  0.00  0.00    +0.000 C 
ENDROOT
BRANCH   3   7
ATOM      6  C   UNL     1     147.374 114.466 106.920  0.00  0.00    +0.000 C 
ATOM      7  C   UNL     1     148.010 114.447 107.939  0.00  0.00    +0.000 C 
BRANCH   6   8
ATOM      8  C   UNL     1     146.619 114.486 105.710  0.00  0.00    +0.000 A 
ATOM      9  C   UNL     1     145.253 114.763 105.748  0.00  0.00    +0.000 A 
ATOM     10  C   UNL     1     144.498 114.787 104.571  0.00  0.00    +0.000 A 
ATOM     11  C   UNL     1     147.246 114.229 104.494  0.00  0.00    +0.000 A 
ATOM     12  C   UNL     1     145.139 114.528 103.356  0.00  0.00    +0.000 A 
ATOM     13  C   UNL     1     146.505 114.251 103.316  0.00  0.00    +0.000 A 
BRANCH  10  14
ATOM     14  O   UNL     1     143.152 115.053 104.530  0.00  0.00    +0.000 OA
ATOM     15  C   UNL     1     142.412 114.657 105.651  0.00  0.00    +0.000 C 
ENDBRANCH  10  14
BRANCH  12  16
ATOM     16  O   UNL     1     144.484 114.530 102.154  0.00  0.00    +0.000 OA
ATOM     17  H   UNL     1     145.100 114.731 101.429  0.00  0.00    +0.000 HD
ENDBRANCH  12  16
ENDBRANCH   6   8
ENDBRANCH   3   7
BRANCH   5  19
ATOM     18  C   UNL     1     148.674 114.258 113.912  0.00  0.00    +0.000 C 
ATOM     19  C   UNL     1     148.132 114.560 112.883  0.00  0.00    +0.000 C 
BRANCH  18  20
ATOM     20  C   UNL     1     149.316 113.905 115.135  0.00  0.00    +0.000 A 
ATOM     21  C   UNL     1     150.023 114.868 115.852  0.00  0.00    +0.000 A 
ATOM     22  C   UNL     1     150.657 114.537 117.053  0.00  0.00    +0.000 A 
ATOM     23  C   UNL     1     149.234 112.598 115.612  0.00  0.00    +0.000 A 
ATOM     24  C   UNL     1     150.567 113.224 117.519  0.00  0.00    +0.000 A 
ATOM     25  C   UNL     1     149.860 112.256 116.807  0.00  0.00    +0.000 A 
BRANCH  22  26
ATOM     26  O   UNL     1     151.374 115.424 117.820  0.00  0.00    +0.000 OA
ATOM     27  C   UNL     1     152.643 115.764 117.325  0.00  0.00    +0.000 C 
ENDBRANCH  22  26
BRANCH  24  28
ATOM     28  O   UNL     1     151.180 112.880 118.693  0.00  0.00    +0.000 OA
ATOM     29  H   UNL     1     152.146 112.878 118.552  0.00  0.00    +0.000 HD
ENDBRANCH  24  28
ENDBRANCH  18  20
ENDBRANCH   5  19
TORSDOF 8
ENDMDL
MODEL 3
REMARK VINA RESULT:      -5.8     40.268     41.699
REMARK  Name = 969516_Curcumin.pdbqt.pdb
REMARK  8 active torsions:
REMARK  status: ('A' for Active; 'I' for Inactive)
REMARK    1  A    between atoms: C_3  and  C_5
REMARK    2  A    between atoms: C_4  and  C_6
REMARK    3  A    between atoms: C_8  and  O_12
REMARK    4  A    between atoms: C_10  and  O_14
REMARK    5  A    between atoms: C_17  and  C_19
REMARK    6  A    between atoms: C_18  and  C_20
REMARK    7  A    between atoms: C_22  and  O_26
REMARK    8  A    between atoms: C_24  and  O_28
REMARK                            x       y       z     vdW  Elec       q    Type
REMARK                         _______ _______ _______ _____ _____    ______ ____
ROOT
ATOM      1  C   UNL     1     149.233 127.190  94.393  0.00  0.00    +0.000 C 
ATOM      2  O   UNL     1     149.391 129.457  94.091  0.00  0.00    +0.000 OA
ATOM      3  C   UNL     1     149.750 128.345  93.735  0.00  0.00    +0.000 C 
ATOM      4  O   UNL     1     148.819 124.940  94.524  0.00  0.00    +0.000 OA
ATOM      5  C   UNL     1     148.712 126.038  95.050  0.00  0.00    +0.000 C 
ENDROOT
BRANCH   3   7
ATOM      6  C   UNL     1     151.482 128.064  91.759  0.00  0.00    +0.000 C 
ATOM      7  C   UNL     1     150.694 128.191  92.657  0.00  0.00    +0.000 C 
BRANCH   6   8
ATOM      8  C   UNL     1     152.419 127.912  90.694  0.00  0.00    +0.000 A 
ATOM      9  C   UNL     1     153.156 129.011  90.255  0.00  0.00    +0.000 A 
ATOM     10  C   UNL     1     154.078 128.880  89.213  0.00  0.00    +0.000 A 
ATOM     11  C   UNL     1     152.595 126.668  90.094  0.00  0.00    +0.000 A 
ATOM     12  C   UNL     1     154.247 127.625  88.618  0.00  0.00    +0.000 A 
ATOM     13  C   UNL     1     153.511 126.525  89.056  0.00  0.00    +0.000 A 
BRANCH  10  14
ATOM     14  O   UNL     1     154.840 129.914  88.729  0.00  0.00    +0.000 OA
ATOM     15  C   UNL     1     154.136 131.039  88.280  0.00  0.00    +0.000 C 
ENDBRANCH  10  14
BRANCH  12  16
ATOM     16  O   UNL     1     155.125 127.400  87.593  0.00  0.00    +0.000 OA
ATOM     17  H   UNL     1     154.675 127.474  86.735  0.00  0.00    +0.000 HD
ENDBRANCH  12  16
ENDBRANCH   6   8
ENDBRANCH   3   7
BRANCH   5  19
ATOM     18  C   UNL     1     147.521 126.294  97.394  0.00  0.00    +0.000 C 
ATOM     19  C   UNL     1     148.063 126.176  96.329  0.00  0.00    +0.000 C 
BRANCH  18  20
ATOM     20  C   UNL     1     146.880 126.438  98.660  0.00  0.00    +0.000 A 
ATOM     21  C   UNL     1     146.381 125.315  99.318  0.00  0.00    +0.000 A 
ATOM     22  C   UNL     1     145.751 125.441 100.559  0.00  0.00    +0.000 A 
ATOM     23  C   UNL     1     146.755 127.700  99.237  0.00  0.00    +0.000 A 
ATOM     24  C   UNL     1     145.632 126.712 101.126  0.00  0.00    +0.000 A 
ATOM     25  C   UNL     1     146.130 127.838 100.473  0.00  0.00    +0.000 A 
BRANCH  22  26
ATOM     26  O   UNL     1     145.231 124.388 101.273  0.00  0.00    +0.000 OA
ATOM     27  C   UNL     1     144.007 123.885 100.805  0.00  0.00    +0.000 C 
ENDBRANCH  22  26
BRANCH  24  28
ATOM     28  O   UNL     1     145.019 126.856 102.341  0.00  0.00    +0.000 OA
ATOM     29  H   UNL     1     144.437 126.087 102.490  0.00  0.00    +0.000 HD
ENDBRANCH  24  28
ENDBRANCH  18  20
ENDBRANCH   5  19
TORSDOF 8
ENDMDL
MODEL 4
REMARK VINA RESULT:      -5.7     25.326     26.824
REMARK  Name = 969516_Curcumin.pdbqt.pdb
REMARK  8 active torsions:
REMARK  status: ('A' for Active; 'I' for Inactive)
REMARK    1  A    between atoms: C_3  and  C_5
REMARK    2  A    between atoms: C_4  and  C_6
REMARK    3  A    between atoms: C_8  and  O_12
REMARK    4  A    between atoms: C_10  and  O_14
REMARK    5  A    between atoms: C_17  and  C_19
REMARK    6  A    between atoms: C_18  and  C_20
REMARK    7  A    between atoms: C_22  and  O_26
REMARK    8  A    between atoms: C_24  and  O_28
REMARK                            x       y       z     vdW  Elec       q    Type
REMARK                         _______ _______ _______ _____ _____    ______ ____
ROOT
ATOM      1  C   UNL     1     148.306 114.710 110.301  0.00  0.00    +0.000 C 
ATOM      2  O   UNL     1     146.436 115.298 111.488  0.00  0.00    +0.000 OA
ATOM      3  C   UNL     1     147.583 114.880 111.518  0.00  0.00    +0.000 C 
ATOM      4  O   UNL     1     150.244 114.423 109.110  0.00  0.00    +0.000 OA
ATOM      5  C   UNL     1     149.028 114.546 109.083  0.00  0.00    +0.000 C 
ENDROOT
BRANCH   3   7
ATOM      6  C   UNL     1     148.734 114.282 113.820  0.00  0.00    +0.000 C 
ATOM      7  C   UNL     1     148.210 114.553 112.774  0.00  0.00    +0.000 C 
BRANCH   6   8
ATOM      8  C   UNL     1     149.356 113.962 115.064  0.00  0.00    +0.000 A 
ATOM      9  C   UNL     1     149.291 112.659 115.557  0.00  0.00    +0.000 A 
ATOM     10  C   UNL     1     149.894 112.328 116.774  0.00  0.00    +0.000 A 
ATOM     11  C   UNL     1     150.025 114.948 115.782  0.00  0.00    +0.000 A 
ATOM     12  C   UNL     1     150.564 113.327 117.487  0.00  0.00    +0.000 A 
ATOM     13  C   UNL     1     150.630 114.630 116.995  0.00  0.00    +0.000 A 
BRANCH  10  14
ATOM     14  O   UNL     1     149.874 111.069 117.322  0.00  0.00    +0.000 OA
ATOM     15  C   UNL     1     150.718 110.125 116.726  0.00  0.00    +0.000 C 
ENDBRANCH  10  14
BRANCH  12  16
ATOM     16  O   UNL     1     151.185 113.098 118.684  0.00  0.00    +0.000 OA
ATOM     17  H   UNL     1     150.762 113.612 119.393  0.00  0.00    +0.000 HD
ENDBRANCH  12  16
ENDBRANCH   6   8
ENDBRANCH   3   7
BRANCH   5  19
ATOM     18  C   UNL     1     147.727 114.508 106.784  0.00  0.00    +0.000 C 
ATOM     19  C   UNL     1     148.320 114.524 107.829  0.00  0.00    +0.000 C 
BRANCH  18  20
ATOM     20  C   UNL     1     147.018 114.489 105.547  0.00  0.00    +0.000 A 
ATOM     21  C   UNL     1     145.626 114.425 105.545  0.00  0.00    +0.000 A 
ATOM     22  C   UNL     1     144.917 114.406 104.340  0.00  0.00    +0.000 A 
ATOM     23  C   UNL     1     147.718 114.535 104.343  0.00  0.00    +0.000 A 
ATOM     24  C   UNL     1     145.632 114.453 103.140  0.00  0.00    +0.000 A 
ATOM     25  C   UNL     1     147.024 114.517 103.137  0.00  0.00    +0.000 A 
BRANCH  22  26
ATOM     26  O   UNL     1     143.548 114.343 104.248  0.00  0.00    +0.000 OA
ATOM     27  C   UNL     1     142.842 115.060 105.227  0.00  0.00    +0.000 C 
ENDBRANCH  22  26
BRANCH  24  28
ATOM     28  O   UNL     1     144.956 114.435 101.951  0.00  0.00    +0.000 OA
ATOM     29  H   UNL     1     145.411 115.028 101.324  0.00  0.00    +0.000 HD
ENDBRANCH  24  28
ENDBRANCH  18  20
ENDBRANCH   5  19
TORSDOF 8
ENDMDL
MODEL 5
REMARK VINA RESULT:      -5.7     36.125     38.111
REMARK  Name = 969516_Curcumin.pdbqt.pdb
REMARK  8 active torsions:
REMARK  status: ('A' for Active; 'I' for Inactive)
REMARK    1  A    between atoms: C_3  and  C_5
REMARK    2  A    between atoms: C_4  and  C_6
REMARK    3  A    between atoms: C_8  and  O_12
REMARK    4  A    between atoms: C_10  and  O_14
REMARK    5  A    between atoms: C_17  and  C_19
REMARK    6  A    between atoms: C_18  and  C_20
REMARK    7  A    between atoms: C_22  and  O_26
REMARK    8  A    between atoms: C_24  and  O_28
REMARK                            x       y       z     vdW  Elec       q    Type
REMARK                         _______ _______ _______ _____ _____    ______ ____
ROOT
ATOM      1  C   UNL     1     143.365 127.894  97.780  0.00  0.00    +0.000 C 
ATOM      2  O   UNL     1     145.010 129.482  97.946  0.00  0.00    +0.000 OA
ATOM      3  C   UNL     1     144.443 128.531  98.463  0.00  0.00    +0.000 C 
ATOM      4  O   UNL     1     141.922 126.146  97.445  0.00  0.00    +0.000 OA
ATOM      5  C   UNL     1     142.292 127.257  97.094  0.00  0.00    +0.000 C 
ENDROOT
BRANCH   3   7
ATOM      6  C   UNL     1     145.194 127.651 100.838  0.00  0.00    +0.000 C 
ATOM      7  C   UNL     1     144.853 128.050  99.758  0.00  0.00    +0.000 C 
BRANCH   6   8
ATOM      8  C   UNL     1     145.597 127.175 102.122  0.00  0.00    +0.000 A 
ATOM      9  C   UNL     1     144.635 126.889 103.090  0.00  0.00    +0.000 A 
ATOM     10  C   UNL     1     145.013 126.422 104.352  0.00  0.00    +0.000 A 
ATOM     11  C   UNL     1     146.948 126.999 102.406  0.00  0.00    +0.000 A 
ATOM     12  C   UNL     1     146.373 126.248 104.626  0.00  0.00    +0.000 A 
ATOM     13  C   UNL     1     147.336 126.534 103.659  0.00  0.00    +0.000 A 
BRANCH  10  14
ATOM     14  O   UNL     1     144.125 126.118 105.354  0.00  0.00    +0.000 OA
ATOM     15  C   UNL     1     143.590 124.824 105.330  0.00  0.00    +0.000 C 
ENDBRANCH  10  14
BRANCH  12  16
ATOM     16  O   UNL     1     146.838 125.796 105.831  0.00  0.00    +0.000 OA
ATOM     17  H   UNL     1     147.772 126.036 105.949  0.00  0.00    +0.000 HD
ENDBRANCH  12  16
ENDBRANCH   6   8
ENDBRANCH   3   7
BRANCH   5  19
ATOM     18  C   UNL     1     141.114 128.483  95.072  0.00  0.00    +0.000 C 
ATOM     19  C   UNL     1     141.648 127.926  95.992  0.00  0.00    +0.000 C 
BRANCH  18  20
ATOM     20  C   UNL     1     140.485 129.146  93.977  0.00  0.00    +0.000 A 
ATOM     21  C   UNL     1     139.644 128.434  93.124  0.00  0.00    +0.000 A 
ATOM     22  C   UNL     1     139.019 129.070  92.048  0.00  0.00    +0.000 A 
ATOM     23  C   UNL     1     140.711 130.505  93.763  0.00  0.00    +0.000 A 
ATOM     24  C   UNL     1     139.255 130.432  91.844  0.00  0.00    +0.000 A 
ATOM     25  C   UNL     1     140.095 131.149  92.694  0.00  0.00    +0.000 A 
BRANCH  22  26
ATOM     26  O   UNL     1     138.178 128.443  91.161  0.00  0.00    +0.000 OA
ATOM     27  C   UNL     1     138.645 127.227  90.639  0.00  0.00    +0.000 C 
ENDBRANCH  22  26
BRANCH  24  28
ATOM     28  O   UNL     1     138.653 131.072  90.796  0.00  0.00    +0.000 OA
ATOM     29  H   UNL     1     137.869 131.549  91.129  0.00  0.00    +0.000 HD
ENDBRANCH  24  28
ENDBRANCH  18  20
ENDBRANCH   5  19
TORSDOF 8
ENDMDL
MODEL 6
REMARK VINA RESULT:      -5.5     26.159     28.666
REMARK  Name = 969516_Curcumin.pdbqt.pdb
REMARK  8 active torsions:
REMARK  status: ('A' for Active; 'I' for Inactive)
REMARK    1  A    between atoms: C_3  and  C_5
REMARK    2  A    between atoms: C_4  and  C_6
REMARK    3  A    between atoms: C_8  and  O_12
REMARK    4  A    between atoms: C_10  and  O_14
REMARK    5  A    between atoms: C_17  and  C_19
REMARK    6  A    between atoms: C_18  and  C_20
REMARK    7  A    between atoms: C_22  and  O_26
REMARK    8  A    between atoms: C_24  and  O_28
REMARK                            x       y       z     vdW  Elec       q    Type
REMARK                         _______ _______ _______ _____ _____    ______ ____
ROOT
ATOM      1  C   UNL     1     141.937 114.834 108.887  0.00  0.00    +0.000 C 
ATOM      2  O   UNL     1     143.344 115.266 110.645  0.00  0.00    +0.000 OA
ATOM      3  C   UNL     1     142.194 115.223 110.235  0.00  0.00    +0.000 C 
ATOM      4  O   UNL     1     140.556 114.106 107.209  0.00  0.00    +0.000 OA
ATOM      5  C   UNL     1     141.684 114.441 107.541  0.00  0.00    +0.000 C 
ENDROOT
BRANCH   3   7
ATOM      6  C   UNL     1     140.178 115.854 111.823  0.00  0.00    +0.000 C 
ATOM      7  C   UNL     1     141.095 115.567 111.102  0.00  0.00    +0.000 C 
BRANCH   6   8
ATOM      8  C   UNL     1     139.089 116.194 112.679  0.00  0.00    +0.000 A 
ATOM      9  C   UNL     1     139.006 115.634 113.953  0.00  0.00    +0.000 A 
ATOM     10  C   UNL     1     137.945 115.956 114.805  0.00  0.00    +0.000 A 
ATOM     11  C   UNL     1     138.111 117.083 112.242  0.00  0.00    +0.000 A 
ATOM     12  C   UNL     1     136.969 116.851 114.355  0.00  0.00    +0.000 A 
ATOM     13  C   UNL     1     137.051 117.412 113.081  0.00  0.00    +0.000 A 
BRANCH  10  14
ATOM     14  O   UNL     1     137.797 115.447 116.071  0.00  0.00    +0.000 OA
ATOM     15  C   UNL     1     138.965 115.350 116.836  0.00  0.00    +0.000 C 
ENDBRANCH  10  14
BRANCH  12  16
ATOM     16  O   UNL     1     135.896 117.226 115.116  0.00  0.00    +0.000 OA
ATOM     17  H   UNL     1     135.961 118.164 115.361  0.00  0.00    +0.000 HD
ENDBRANCH  12  16
ENDBRANCH   6   8
ENDBRANCH   3   7
BRANCH   5  19
ATOM     18  C   UNL     1     143.655 114.440 105.782  0.00  0.00    +0.000 C 
ATOM     19  C   UNL     1     142.757 114.442 106.581  0.00  0.00    +0.000 C 
BRANCH  18  20
ATOM     20  C   UNL     1     144.723 114.438 104.837  0.00  0.00    +0.000 A 
ATOM     21  C   UNL     1     146.042 114.356 105.281  0.00  0.00    +0.000 A 
ATOM     22  C   UNL     1     147.100 114.352 104.367  0.00  0.00    +0.000 A 
ATOM     23  C   UNL     1     144.447 114.517 103.474  0.00  0.00    +0.000 A 
ATOM     24  C   UNL     1     146.809 114.432 103.003  0.00  0.00    +0.000 A 
ATOM     25  C   UNL     1     145.492 114.514 102.554  0.00  0.00    +0.000 A 
BRANCH  22  26
ATOM     26  O   UNL     1     148.426 114.275 104.719  0.00  0.00    +0.000 OA
ATOM     27  C   UNL     1     148.701 114.449 106.084  0.00  0.00    +0.000 C 
ENDBRANCH  22  26
BRANCH  24  28
ATOM     28  O   UNL     1     147.830 114.429 102.093  0.00  0.00    +0.000 OA
ATOM     29  H   UNL     1     147.966 113.516 101.778  0.00  0.00    +0.000 HD
ENDBRANCH  24  28
ENDBRANCH  18  20
ENDBRANCH   5  19
TORSDOF 8
ENDMDL
MODEL 7
REMARK VINA RESULT:      -5.5     22.134     25.988
REMARK  Name = 969516_Curcumin.pdbqt.pdb
REMARK  8 active torsions:
REMARK  status: ('A' for Active; 'I' for Inactive)
REMARK    1  A    between atoms: C_3  and  C_5
REMARK    2  A    between atoms: C_4  and  C_6
REMARK    3  A    between atoms: C_8  and  O_12
REMARK    4  A    between atoms: C_10  and  O_14
REMARK    5  A    between atoms: C_17  and  C_19
REMARK    6  A    between atoms: C_18  and  C_20
REMARK    7  A    between atoms: C_22  and  O_26
REMARK    8  A    between atoms: C_24  and  O_28
REMARK                            x       y       z     vdW  Elec       q    Type
REMARK                         _______ _______ _______ _____ _____    ______ ____
ROOT
ATOM      1  C   UNL     1     138.328 116.309 113.221  0.00  0.00    +0.000 C 
ATOM      2  O   UNL     1     138.315 116.241 115.512  0.00  0.00    +0.000 OA
ATOM      3  C   UNL     1     137.707 116.515 114.488  0.00  0.00    +0.000 C 
ATOM      4  O   UNL     1     138.267 116.079 110.941  0.00  0.00    +0.000 OA
ATOM      5  C   UNL     1     138.948 116.099 111.956  0.00  0.00    +0.000 C 
ENDROOT
BRANCH   3   7
ATOM      6  C   UNL     1     135.254 117.489 114.605  0.00  0.00    +0.000 C 
ATOM      7  C   UNL     1     136.369 117.047 114.552  0.00  0.00    +0.000 C 
BRANCH   6   8
ATOM      8  C   UNL     1     133.928 118.014 114.669  0.00  0.00    +0.000 A 
ATOM      9  C   UNL     1     133.310 118.482 113.510  0.00  0.00    +0.000 A 
ATOM     10  C   UNL     1     132.012 118.999 113.555  0.00  0.00    +0.000 A 
ATOM     11  C   UNL     1     133.256 118.058 115.887  0.00  0.00    +0.000 A 
ATOM     12  C   UNL     1     131.345 119.038 114.784  0.00  0.00    +0.000 A 
ATOM     13  C   UNL     1     131.963 118.570 115.944  0.00  0.00    +0.000 A 
BRANCH  10  14
ATOM     14  O   UNL     1     131.338 119.476 112.458  0.00  0.00    +0.000 OA
ATOM     15  C   UNL     1     131.878 120.618 111.854  0.00  0.00    +0.000 C 
ENDBRANCH  10  14
BRANCH  12  16
ATOM     16  O   UNL     1     130.075 119.526 114.927  0.00  0.00    +0.000 OA
ATOM     17  H   UNL     1     130.042 120.469 114.694  0.00  0.00    +0.000 HD
ENDBRANCH  12  16
ENDBRANCH   6   8
ENDBRANCH   3   7
BRANCH   5  19
ATOM     18  C   UNL     1     141.565 115.760 111.814  0.00  0.00    +0.000 C 
ATOM     19  C   UNL     1     140.375 115.914 111.880  0.00  0.00    +0.000 C 
BRANCH  18  20
ATOM     20  C   UNL     1     142.977 115.576 111.730  0.00  0.00    +0.000 A 
ATOM     21  C   UNL     1     143.583 115.416 110.486  0.00  0.00    +0.000 A 
ATOM     22  C   UNL     1     144.966 115.235 110.387  0.00  0.00    +0.000 A 
ATOM     23  C   UNL     1     143.746 115.558 112.892  0.00  0.00    +0.000 A 
ATOM     24  C   UNL     1     145.725 115.219 111.560  0.00  0.00    +0.000 A 
ATOM     25  C   UNL     1     145.124 115.379 112.807  0.00  0.00    +0.000 A 
BRANCH  22  26
ATOM     26  O   UNL     1     145.643 115.069 109.203  0.00  0.00    +0.000 OA
ATOM     27  C   UNL     1     145.022 115.618 108.070  0.00  0.00    +0.000 C 
ENDBRANCH  22  26
BRANCH  24  28
ATOM     28  O   UNL     1     147.080 115.043 111.484  0.00  0.00    +0.000 OA
ATOM     29  H   UNL     1     147.437 114.975 112.390  0.00  0.00    +0.000 HD
ENDBRANCH  24  28
ENDBRANCH  18  20
ENDBRANCH   5  19
TORSDOF 8
ENDMDL
MODEL 8
REMARK VINA RESULT:      -5.4     26.115     27.114
REMARK  Name = 969516_Curcumin.pdbqt.pdb
REMARK  8 active torsions:
REMARK  status: ('A' for Active; 'I' for Inactive)
REMARK    1  A    between atoms: C_3  and  C_5
REMARK    2  A    between atoms: C_4  and  C_6
REMARK    3  A    between atoms: C_8  and  O_12
REMARK    4  A    between atoms: C_10  and  O_14
REMARK    5  A    between atoms: C_17  and  C_19
REMARK    6  A    between atoms: C_18  and  C_20
REMARK    7  A    between atoms: C_22  and  O_26
REMARK    8  A    between atoms: C_24  and  O_28
REMARK                            x       y       z     vdW  Elec       q    Type
REMARK                         _______ _______ _______ _____ _____    ______ ____
ROOT
ATOM      1  C   UNL     1     142.121 114.880 109.003  0.00  0.00    +0.000 C 
ATOM      2  O   UNL     1     140.816 113.836 107.435  0.00  0.00    +0.000 OA
ATOM      3  C   UNL     1     141.900 114.329 107.707  0.00  0.00    +0.000 C 
ATOM      4  O   UNL     1     143.481 115.643 110.683  0.00  0.00    +0.000 OA
ATOM      5  C   UNL     1     142.340 115.426 110.301  0.00  0.00    +0.000 C 
ENDROOT
BRANCH   3   7
ATOM      6  C   UNL     1     143.837 114.388 105.910  0.00  0.00    +0.000 C 
ATOM      7  C   UNL     1     142.956 114.360 106.727  0.00  0.00    +0.000 C 
BRANCH   6   8
ATOM      8  C   UNL     1     144.884 114.420 104.942  0.00  0.00    +0.000 A 
ATOM      9  C   UNL     1     146.215 114.393 105.356  0.00  0.00    +0.000 A 
ATOM     10  C   UNL     1     147.253 114.424 104.421  0.00  0.00    +0.000 A 
ATOM     11  C   UNL     1     144.576 114.478 103.585  0.00  0.00    +0.000 A 
ATOM     12  C   UNL     1     146.932 114.482 103.061  0.00  0.00    +0.000 A 
ATOM     13  C   UNL     1     145.601 114.508 102.645  0.00  0.00    +0.000 A 
BRANCH  10  14
ATOM     14  O   UNL     1     148.585 114.400 104.753  0.00  0.00    +0.000 OA
ATOM     15  C   UNL     1     148.877 114.331 106.121  0.00  0.00    +0.000 C 
ENDBRANCH  10  14
BRANCH  12  16
ATOM     16  O   UNL     1     147.878 114.516 102.074  0.00  0.00    +0.000 OA
ATOM     17  H   UNL     1     147.811 113.728 101.508  0.00  0.00    +0.000 HD
ENDBRANCH  12  16
ENDBRANCH   6   8
ENDBRANCH   3   7
BRANCH   5  19
ATOM     18  C   UNL     1     140.277 115.970 111.859  0.00  0.00    +0.000 C 
ATOM     19  C   UNL     1     141.216 115.722 111.152  0.00  0.00    +0.000 C 
BRANCH  18  20
ATOM     20  C   UNL     1     139.161 116.268 112.696  0.00  0.00    +0.000 A 
ATOM     21  C   UNL     1     139.108 115.755 113.991  0.00  0.00    +0.000 A 
ATOM     22  C   UNL     1     138.022 116.039 114.823  0.00  0.00    +0.000 A 
ATOM     23  C   UNL     1     138.128 117.071 112.218  0.00  0.00    +0.000 A 
ATOM     24  C   UNL     1     136.993 116.846 114.332  0.00  0.00    +0.000 A 
ATOM     25  C   UNL     1     137.041 117.361 113.037  0.00  0.00    +0.000 A 
BRANCH  22  26
ATOM     26  O   UNL     1     137.890 115.574 116.110  0.00  0.00    +0.000 OA
ATOM     27  C   UNL     1     138.559 114.373 116.391  0.00  0.00    +0.000 C 
ENDBRANCH  22  26
BRANCH  24  28
ATOM     28  O   UNL     1     135.921 117.135 115.131  0.00  0.00    +0.000 OA
ATOM     29  H   UNL     1     136.203 117.772 115.814  0.00  0.00    +0.000 HD
ENDBRANCH  24  28
ENDBRANCH  18  20
ENDBRANCH   5  19
TORSDOF 8
ENDMDL
MODEL 9
REMARK VINA RESULT:      -5.4     36.483     38.526
REMARK  Name = 969516_Curcumin.pdbqt.pdb
REMARK  8 active torsions:
REMARK  status: ('A' for Active; 'I' for Inactive)
REMARK    1  A    between atoms: C_3  and  C_5
REMARK    2  A    between atoms: C_4  and  C_6
REMARK    3  A    between atoms: C_8  and  O_12
REMARK    4  A    between atoms: C_10  and  O_14
REMARK    5  A    between atoms: C_17  and  C_19
REMARK    6  A    between atoms: C_18  and  C_20
REMARK    7  A    between atoms: C_22  and  O_26
REMARK    8  A    between atoms: C_24  and  O_28
REMARK                            x       y       z     vdW  Elec       q    Type
REMARK                         _______ _______ _______ _____ _____    ______ ____
ROOT
ATOM      1  C   UNL     1     143.652 123.168  97.131  0.00  0.00    +0.000 C 
ATOM      2  O   UNL     1     141.914 122.532  98.482  0.00  0.00    +0.000 OA
ATOM      3  C   UNL     1     142.875 123.268  98.322  0.00  0.00    +0.000 C 
ATOM      4  O   UNL     1     145.183 123.976  95.629  0.00  0.00    +0.000 OA
ATOM      5  C   UNL     1     144.424 123.069  95.938  0.00  0.00    +0.000 C 
ENDROOT
BRANCH   3   7
ATOM      6  C   UNL     1     143.529 125.041 100.169  0.00  0.00    +0.000 C 
ATOM      7  C   UNL     1     143.231 124.235  99.330  0.00  0.00    +0.000 C 
BRANCH   6   8
ATOM      8  C   UNL     1     143.884 125.999 101.165  0.00  0.00    +0.000 A 
ATOM      9  C   UNL     1     145.226 126.220 101.470  0.00  0.00    +0.000 A 
ATOM     10  C   UNL     1     145.592 127.155 102.443  0.00  0.00    +0.000 A 
ATOM     11  C   UNL     1     142.890 126.711 101.831  0.00  0.00    +0.000 A 
ATOM     12  C   UNL     1     144.585 127.865 103.105  0.00  0.00    +0.000 A 
ATOM     13  C   UNL     1     143.242 127.645 102.801  0.00  0.00    +0.000 A 
BRANCH  10  14
ATOM     14  O   UNL     1     146.890 127.428 102.795  0.00  0.00    +0.000 OA
ATOM     15  C   UNL     1     147.471 126.557 103.725  0.00  0.00    +0.000 C 
ENDBRANCH  10  14
BRANCH  12  16
ATOM     16  O   UNL     1     144.845 128.799 104.070  0.00  0.00    +0.000 OA
ATOM     17  H   UNL     1     144.791 129.697 103.701  0.00  0.00    +0.000 HD
ENDBRANCH  12  16
ENDBRANCH   6   8
ENDBRANCH   3   7
BRANCH   5  19
ATOM     18  C   UNL     1     144.212 120.924  94.411  0.00  0.00    +0.000 C 
ATOM     19  C   UNL     1     144.307 121.900  95.104  0.00  0.00    +0.000 C 
BRANCH  18  20
ATOM     20  C   UNL     1     144.105 119.765  93.586  0.00  0.00    +0.000 A 
ATOM     21  C   UNL     1     143.194 118.762  93.913  0.00  0.00    +0.000 A 
ATOM     22  C   UNL     1     143.077 117.621  93.114  0.00  0.00    +0.000 A 
ATOM     23  C   UNL     1     144.909 119.639  92.455  0.00  0.00    +0.000 A 
ATOM     24  C   UNL     1     143.889 117.507  91.983  0.00  0.00    +0.000 A 
ATOM     25  C   UNL     1     144.802 118.507  91.651  0.00  0.00    +0.000 A 
BRANCH  22  26
ATOM     26  O   UNL     1     142.207 116.587  93.364  0.00  0.00    +0.000 OA
ATOM     27  C   UNL     1     142.542 115.765  94.452  0.00  0.00    +0.000 C 
ENDBRANCH  22  26
BRANCH  24  28
ATOM     28  O   UNL     1     143.789 116.398  91.188  0.00  0.00    +0.000 OA
ATOM     29  H   UNL     1     143.137 116.575  90.485  0.00  0.00    +0.000 HD
ENDBRANCH  24  28
ENDBRANCH  18  20
ENDBRANCH   5  19
TORSDOF 8
ENDMDL
