MODEL 1
REMARK VINA RESULT:      -3.5      0.000      0.000
REMARK  Name = 971_OxalicAcid.pdbqt.pdb
REMARK  3 active torsions:
REMARK  status: ('A' for Active; 'I' for Inactive)
REMARK    1  A    between atoms: C_2  and  O_3
REMARK    2  A    between atoms: C_2  and  C_6
REMARK    3  A    between atoms: C_6  and  O_7
REMARK                            x       y       z     vdW  Elec       q    Type
REMARK                         _______ _______ _______ _____ _____    ______ ____
ROOT
ATOM      1  O   UNL     1     140.905 127.287 111.955  0.00  0.00    +0.000 OA
ATOM      2  C   UNL     1     140.143 126.456 112.409  0.00  0.00    +0.000 C 
ENDROOT
BRANCH   2   3
ATOM      3  O   UNL     1     139.430 125.640 111.619  0.00  0.00    +0.000 OA
ATOM      4  H   UNL     1     139.565 125.994 110.717  0.00  0.00    +0.000 HD
ENDBRANCH   2   3
BRANCH   2   6
ATOM      5  O   UNL     1     139.826 127.069 114.782  0.00  0.00    +0.000 OA
ATOM      6  C   UNL     1     139.877 126.207 113.926  0.00  0.00    +0.000 C 
BRANCH   6   7
ATOM      7  O   UNL     1     139.702 124.910 114.215  0.00  0.00    +0.000 OA
ATOM      8  H   UNL     1     140.441 124.457 113.762  0.00  0.00    +0.000 HD
ENDBRANCH   6   7
ENDBRANCH   2   6
TORSDOF 3
ENDMDL
MODEL 2
REMARK VINA RESULT:      -3.4     13.345     14.471
REMARK  Name = 971_OxalicAcid.pdbqt.pdb
REMARK  3 active torsions:
REMARK  status: ('A' for Active; 'I' for Inactive)
REMARK    1  A    between atoms: C_2  and  O_3
REMARK    2  A    between atoms: C_2  and  C_6
REMARK    3  A    between atoms: C_6  and  O_7
REMARK                            x       y       z     vdW  Elec       q    Type
REMARK                         _______ _______ _______ _____ _____    ______ ____
ROOT
ATOM      1  O   UNL     1     142.996 136.279 102.630  0.00  0.00    +0.000 OA
ATOM      2  C   UNL     1     142.819 135.078 102.582  0.00  0.00    +0.000 C 
ENDROOT
BRANCH   2   3
ATOM      3  O   UNL     1     143.109 134.277 103.616  0.00  0.00    +0.000 OA
ATOM      4  H   UNL     1     142.245 133.908 103.890  0.00  0.00    +0.000 HD
ENDBRANCH   2   3
BRANCH   2   6
ATOM      5  O   UNL     1     141.757 133.187 101.398  0.00  0.00    +0.000 OA
ATOM      6  C   UNL     1     142.249 134.297 101.357  0.00  0.00    +0.000 C 
BRANCH   6   7
ATOM      7  O   UNL     1     142.352 134.985 100.212  0.00  0.00    +0.000 OA
ATOM      8  H   UNL     1     143.100 135.598 100.361  0.00  0.00    +0.000 HD
ENDBRANCH   6   7
ENDBRANCH   2   6
TORSDOF 3
ENDMDL
MODEL 3
REMARK VINA RESULT:      -3.3      7.533      8.597
REMARK  Name = 971_OxalicAcid.pdbqt.pdb
REMARK  3 active torsions:
REMARK  status: ('A' for Active; 'I' for Inactive)
REMARK    1  A    between atoms: C_2  and  O_3
REMARK    2  A    between atoms: C_2  and  C_6
REMARK    3  A    between atoms: C_6  and  O_7
REMARK                            x       y       z     vdW  Elec       q    Type
REMARK                         _______ _______ _______ _____ _____    ______ ____
ROOT
ATOM      1  O   UNL     1     146.154 125.395 106.965  0.00  0.00    +0.000 OA
ATOM      2  C   UNL     1     145.028 125.847 106.912  0.00  0.00    +0.000 C 
ENDROOT
BRANCH   2   3
ATOM      3  O   UNL     1     144.556 126.686 107.845  0.00  0.00    +0.000 OA
ATOM      4  H   UNL     1     143.619 126.427 107.956  0.00  0.00    +0.000 HD
ENDBRANCH   2   3
BRANCH   2   6
ATOM      5  O   UNL     1     143.153 124.653 105.833  0.00  0.00    +0.000 OA
ATOM      6  C   UNL     1     143.982 125.540 105.795  0.00  0.00    +0.000 C 
BRANCH   6   7
ATOM      7  O   UNL     1     144.083 126.373 104.750  0.00  0.00    +0.000 OA
ATOM      8  H   UNL     1     143.390 127.046 104.905  0.00  0.00    +0.000 HD
ENDBRANCH   6   7
ENDBRANCH   2   6
TORSDOF 3
ENDMDL
MODEL 4
REMARK VINA RESULT:      -3.3      8.101      9.183
REMARK  Name = 971_OxalicAcid.pdbqt.pdb
REMARK  3 active torsions:
REMARK  status: ('A' for Active; 'I' for Inactive)
REMARK    1  A    between atoms: C_2  and  O_3
REMARK    2  A    between atoms: C_2  and  C_6
REMARK    3  A    between atoms: C_6  and  O_7
REMARK                            x       y       z     vdW  Elec       q    Type
REMARK                         _______ _______ _______ _____ _____    ______ ____
ROOT
ATOM      1  O   UNL     1     146.197 126.756 104.317  0.00  0.00    +0.000 OA
ATOM      2  C   UNL     1     145.172 126.486 104.911  0.00  0.00    +0.000 C 
ENDROOT
BRANCH   2   3
ATOM      3  O   UNL     1     143.963 126.728 104.385  0.00  0.00    +0.000 OA
ATOM      4  H   UNL     1     144.043 126.454 103.450  0.00  0.00    +0.000 HD
ENDBRANCH   2   3
BRANCH   2   6
ATOM      5  O   UNL     1     144.150 125.925 107.090  0.00  0.00    +0.000 OA
ATOM      6  C   UNL     1     145.093 125.838 106.328  0.00  0.00    +0.000 C 
BRANCH   6   7
ATOM      7  O   UNL     1     146.199 125.150 106.644  0.00  0.00    +0.000 OA
ATOM      8  H   UNL     1     145.867 124.341 107.083  0.00  0.00    +0.000 HD
ENDBRANCH   6   7
ENDBRANCH   2   6
TORSDOF 3
ENDMDL
MODEL 5
REMARK VINA RESULT:      -3.3     13.456     14.916
REMARK  Name = 971_OxalicAcid.pdbqt.pdb
REMARK  3 active torsions:
REMARK  status: ('A' for Active; 'I' for Inactive)
REMARK    1  A    between atoms: C_2  and  O_3
REMARK    2  A    between atoms: C_2  and  C_6
REMARK    3  A    between atoms: C_6  and  O_7
REMARK                            x       y       z     vdW  Elec       q    Type
REMARK                         _______ _______ _______ _____ _____    ______ ____
ROOT
ATOM      1  O   UNL     1     141.965 133.605 101.686  0.00  0.00    +0.000 OA
ATOM      2  C   UNL     1     142.616 134.503 102.183  0.00  0.00    +0.000 C 
ENDROOT
BRANCH   2   3
ATOM      3  O   UNL     1     143.036 134.454 103.455  0.00  0.00    +0.000 OA
ATOM      4  H   UNL     1     142.745 135.305 103.841  0.00  0.00    +0.000 HD
ENDBRANCH   2   3
BRANCH   2   6
ATOM      5  O   UNL     1     143.450 136.822 102.000  0.00  0.00    +0.000 OA
ATOM      6  C   UNL     1     143.055 135.811 101.454  0.00  0.00    +0.000 C 
BRANCH   6   7
ATOM      7  O   UNL     1     142.953 135.718 100.120  0.00  0.00    +0.000 OA
ATOM      8  H   UNL     1     143.129 136.625  99.798  0.00  0.00    +0.000 HD
ENDBRANCH   6   7
ENDBRANCH   2   6
TORSDOF 3
ENDMDL
MODEL 6
REMARK VINA RESULT:      -3.3      8.115      9.562
REMARK  Name = 971_OxalicAcid.pdbqt.pdb
REMARK  3 active torsions:
REMARK  status: ('A' for Active; 'I' for Inactive)
REMARK    1  A    between atoms: C_2  and  O_3
REMARK    2  A    between atoms: C_2  and  C_6
REMARK    3  A    between atoms: C_6  and  O_7
REMARK                            x       y       z     vdW  Elec       q    Type
REMARK                         _______ _______ _______ _____ _____    ______ ____
ROOT
ATOM      1  O   UNL     1     144.004 125.764 106.934  0.00  0.00    +0.000 OA
ATOM      2  C   UNL     1     145.016 125.807 106.262  0.00  0.00    +0.000 C 
ENDROOT
BRANCH   2   3
ATOM      3  O   UNL     1     146.160 125.235 106.665  0.00  0.00    +0.000 OA
ATOM      4  H   UNL     1     146.585 124.930 105.839  0.00  0.00    +0.000 HD
ENDBRANCH   2   3
BRANCH   2   6
ATOM      5  O   UNL     1     146.197 126.783 104.323  0.00  0.00    +0.000 OA
ATOM      6  C   UNL     1     145.150 126.506 104.874  0.00  0.00    +0.000 C 
BRANCH   6   7
ATOM      7  O   UNL     1     143.962 126.786 104.319  0.00  0.00    +0.000 OA
ATOM      8  H   UNL     1     143.307 126.435 104.955  0.00  0.00    +0.000 HD
ENDBRANCH   6   7
ENDBRANCH   2   6
TORSDOF 3
ENDMDL
MODEL 7
REMARK VINA RESULT:      -3.2      8.535      9.345
REMARK  Name = 971_OxalicAcid.pdbqt.pdb
REMARK  3 active torsions:
REMARK  status: ('A' for Active; 'I' for Inactive)
REMARK    1  A    between atoms: C_2  and  O_3
REMARK    2  A    between atoms: C_2  and  C_6
REMARK    3  A    between atoms: C_6  and  O_7
REMARK                            x       y       z     vdW  Elec       q    Type
REMARK                         _______ _______ _______ _____ _____    ______ ____
ROOT
ATOM      1  O   UNL     1     143.754 116.320 111.739  0.00  0.00    +0.000 OA
ATOM      2  C   UNL     1     143.246 117.358 112.115  0.00  0.00    +0.000 C 
ENDROOT
BRANCH   2   3
ATOM      3  O   UNL     1     143.486 117.864 113.333  0.00  0.00    +0.000 OA
ATOM      4  H   UNL     1     142.742 118.478 113.494  0.00  0.00    +0.000 HD
ENDBRANCH   2   3
BRANCH   2   6
ATOM      5  O   UNL     1     142.587 118.970 110.362  0.00  0.00    +0.000 OA
ATOM      6  C   UNL     1     142.267 118.240 111.280  0.00  0.00    +0.000 C 
BRANCH   6   7
ATOM      7  O   UNL     1     140.993 118.117 111.677  0.00  0.00    +0.000 OA
ATOM      8  H   UNL     1     140.637 117.386 111.134  0.00  0.00    +0.000 HD
ENDBRANCH   6   7
ENDBRANCH   2   6
TORSDOF 3
ENDMDL
MODEL 8
REMARK VINA RESULT:      -3.2      1.663      2.160
REMARK  Name = 971_OxalicAcid.pdbqt.pdb
REMARK  3 active torsions:
REMARK  status: ('A' for Active; 'I' for Inactive)
REMARK    1  A    between atoms: C_2  and  O_3
REMARK    2  A    between atoms: C_2  and  C_6
REMARK    3  A    between atoms: C_6  and  O_7
REMARK                            x       y       z     vdW  Elec       q    Type
REMARK                         _______ _______ _______ _____ _____    ______ ____
ROOT
ATOM      1  O   UNL     1     137.650 127.483 113.450  0.00  0.00    +0.000 OA
ATOM      2  C   UNL     1     138.289 126.774 112.697  0.00  0.00    +0.000 C 
ENDROOT
BRANCH   2   3
ATOM      3  O   UNL     1     137.934 126.599 111.417  0.00  0.00    +0.000 OA
ATOM      4  H   UNL     1     137.678 127.492 111.109  0.00  0.00    +0.000 HD
ENDBRANCH   2   3
BRANCH   2   6
ATOM      5  O   UNL     1     140.617 125.982 112.449  0.00  0.00    +0.000 OA
ATOM      6  C   UNL     1     139.577 125.980 113.078  0.00  0.00    +0.000 C 
BRANCH   6   7
ATOM      7  O   UNL     1     139.431 125.268 114.204  0.00  0.00    +0.000 OA
ATOM      8  H   UNL     1     139.175 125.927 114.880  0.00  0.00    +0.000 HD
ENDBRANCH   6   7
ENDBRANCH   2   6
TORSDOF 3
ENDMDL
MODEL 9
REMARK VINA RESULT:      -3.2      9.135     10.105
REMARK  Name = 971_OxalicAcid.pdbqt.pdb
REMARK  3 active torsions:
REMARK  status: ('A' for Active; 'I' for Inactive)
REMARK    1  A    between atoms: C_2  and  O_3
REMARK    2  A    between atoms: C_2  and  C_6
REMARK    3  A    between atoms: C_6  and  O_7
REMARK                            x       y       z     vdW  Elec       q    Type
REMARK                         _______ _______ _______ _____ _____    ______ ____
ROOT
ATOM      1  O   UNL     1     142.604 130.233 123.226  0.00  0.00    +0.000 OA
ATOM      2  C   UNL     1     142.933 129.440 122.366  0.00  0.00    +0.000 C 
ENDROOT
BRANCH   2   3
ATOM      3  O   UNL     1     143.492 129.835 121.214  0.00  0.00    +0.000 OA
ATOM      4  H   UNL     1     144.308 130.301 121.485  0.00  0.00    +0.000 HD
ENDBRANCH   2   3
BRANCH   2   6
ATOM      5  O   UNL     1     143.030 127.209 123.424  0.00  0.00    +0.000 OA
ATOM      6  C   UNL     1     142.766 127.891 122.454  0.00  0.00    +0.000 C 
BRANCH   6   7
ATOM      7  O   UNL     1     142.288 127.358 121.321  0.00  0.00    +0.000 OA
ATOM      8  H   UNL     1     142.612 127.952 120.615  0.00  0.00    +0.000 HD
ENDBRANCH   6   7
ENDBRANCH   2   6
TORSDOF 3
ENDMDL
