MODEL 1
REMARK VINA RESULT:      -6.5      0.000      0.000
REMARK  Name = 9852185_GambogicAcid.pdbqt.pdb
REMARK  10 active torsions:
REMARK  status: ('A' for Active; 'I' for Inactive)
REMARK    1  A    between atoms: C_8  and  C_30
REMARK    2  A    between atoms: C_20  and  C_38
REMARK    3  A    between atoms: C_21  and  O_28
REMARK    4  A    between atoms: C_25  and  C_43
REMARK    5  A    between atoms: C_31  and  C_32
REMARK    6  A    between atoms: C_32  and  C_35
REMARK    7  A    between atoms: C_35  and  O_36
REMARK    8  A    between atoms: C_39  and  C_40
REMARK    9  A    between atoms: C_43  and  C_44
REMARK   10  A    between atoms: C_45  and  C_46
REMARK                            x       y       z     vdW  Elec       q    Type
REMARK                         _______ _______ _______ _____ _____    ______ ____
ROOT
ATOM      1  O   UNL     1     136.621 138.994 139.919  0.00  0.00    +0.000 OA
ATOM      2  O   UNL     1     137.373 137.028 137.952  0.00  0.00    +0.000 OA
ATOM      3  O   UNL     1     138.146 138.413 142.642  0.00  0.00    +0.000 OA
ATOM      4  O   UNL     1     138.853 133.400 139.218  0.00  0.00    +0.000 OA
ATOM      5  O   UNL     1     137.087 135.548 133.446  0.00  0.00    +0.000 OA
ATOM      6  C   UNL     1     137.336 136.782 139.351  0.00  0.00    +0.000 C 
ATOM      7  C   UNL     1     135.873 136.746 139.922  0.00  0.00    +0.000 C 
ATOM      8  C   UNL     1     137.699 138.081 140.177  0.00  0.00    +0.000 C 
ATOM      9  C   UNL     1     135.429 138.204 139.768  0.00  0.00    +0.000 C 
ATOM     10  C   UNL     1     135.959 136.203 141.279  0.00  0.00    +0.000 C 
ATOM     11  C   UNL     1     137.236 136.248 141.971  0.00  0.00    +0.000 C 
ATOM     12  C   UNL     1     138.188 135.583 139.801  0.00  0.00    +0.000 C 
ATOM     13  C   UNL     1     137.768 137.690 141.733  0.00  0.00    +0.000 C 
ATOM     14  C   UNL     1     138.123 135.401 141.217  0.00  0.00    +0.000 C 
ATOM     15  C   UNL     1     134.436 138.624 140.861  0.00  0.00    +0.000 C 
ATOM     16  C   UNL     1     134.824 138.429 138.373  0.00  0.00    +0.000 C 
ATOM     17  C   UNL     1     138.412 134.485 138.862  0.00  0.00    +0.000 C 
ATOM     18  C   UNL     1     137.552 135.986 137.084  0.00  0.00    +0.000 A 
ATOM     19  C   UNL     1     138.051 134.731 137.460  0.00  0.00    +0.000 A 
ATOM     20  C   UNL     1     137.245 136.246 135.730  0.00  0.00    +0.000 A 
ATOM     21  C   UNL     1     138.222 133.716 136.504  0.00  0.00    +0.000 A 
ATOM     22  C   UNL     1     137.416 135.243 134.769  0.00  0.00    +0.000 A 
ATOM     23  C   UNL     1     137.904 133.975 135.174  0.00  0.00    +0.000 A 
ATOM     24  C   UNL     1     138.039 133.050 134.109  0.00  0.00    +0.000 C 
ATOM     25  C   UNL     1     137.316 134.556 132.368  0.00  0.00    +0.000 C 
ATOM     26  C   UNL     1     137.796 133.312 132.972  0.00  0.00    +0.000 C 
ATOM     27  C   UNL     1     138.359 135.176 131.405  0.00  0.00    +0.000 C 
ENDROOT
BRANCH  21  28
ATOM     28  O   UNL     1     138.693 132.470 136.821  0.00  0.00    +0.000 OA
ATOM     29  H   UNL     1     138.732 132.367 137.799  0.00  0.00    +0.000 HD
ENDBRANCH  21  28
BRANCH   8  30
ATOM     30  C   UNL     1     138.966 138.685 139.741  0.00  0.00    +0.000 C 
ATOM     31  C   UNL     1     140.265 139.335 139.241  0.00  0.00    +0.000 C 
BRANCH  31  32
ATOM     32  C   UNL     1     141.348 139.882 138.764  0.00  0.00    +0.000 C 
ATOM     33  C   UNL     1     142.172 140.654 139.777  0.00  0.00    +0.000 C 
BRANCH  32  35
ATOM     34  O   UNL     1     140.992 139.993 136.378  0.00  0.00    +0.000 OA
ATOM     35  C   UNL     1     141.705 139.711 137.329  0.00  0.00    +0.000 C 
BRANCH  35  36
ATOM     36  O   UNL     1     142.936 139.198 137.121  0.00  0.00    +0.000 OA
ATOM     37  H   UNL     1     143.512 139.973 136.953  0.00  0.00    +0.000 HD
ENDBRANCH  35  36
ENDBRANCH  32  35
ENDBRANCH  31  32
ENDBRANCH   8  30
BRANCH  20  38
ATOM     38  C   UNL     1     136.753 137.536 135.342  0.00  0.00    +0.000 C 
ATOM     39  C   UNL     1     136.201 138.904 134.915  0.00  0.00    +0.000 C 
BRANCH  39  40
ATOM     40  C   UNL     1     135.716 140.050 134.551  0.00  0.00    +0.000 C 
ATOM     41  C   UNL     1     135.628 140.381 133.092  0.00  0.00    +0.000 C 
ATOM     42  C   UNL     1     135.030 140.920 135.559  0.00  0.00    +0.000 C 
ENDBRANCH  39  40
ENDBRANCH  20  38
BRANCH  25  43
ATOM     43  C   UNL     1     136.025 134.363 131.680  0.00  0.00    +0.000 C 
BRANCH  43  44
ATOM     44  C   UNL     1     134.684 134.155 130.966  0.00  0.00    +0.000 C 
ATOM     45  C   UNL     1     133.342 133.946 130.248  0.00  0.00    +0.000 C 
BRANCH  45  46
ATOM     46  C   UNL     1     132.210 133.777 129.640  0.00  0.00    +0.000 C 
ATOM     47  C   UNL     1     131.239 134.915 129.556  0.00  0.00    +0.000 C 
ATOM     48  C   UNL     1     131.801 132.412 129.184  0.00  0.00    +0.000 C 
ENDBRANCH  45  46
ENDBRANCH  43  44
ENDBRANCH  25  43
TORSDOF 10
ENDMDL
MODEL 2
REMARK VINA RESULT:      -6.2     29.511     33.550
REMARK  Name = 9852185_GambogicAcid.pdbqt.pdb
REMARK  10 active torsions:
REMARK  status: ('A' for Active; 'I' for Inactive)
REMARK    1  A    between atoms: C_8  and  C_30
REMARK    2  A    between atoms: C_20  and  C_38
REMARK    3  A    between atoms: C_21  and  O_28
REMARK    4  A    between atoms: C_25  and  C_43
REMARK    5  A    between atoms: C_31  and  C_32
REMARK    6  A    between atoms: C_32  and  C_35
REMARK    7  A    between atoms: C_35  and  O_36
REMARK    8  A    between atoms: C_39  and  C_40
REMARK    9  A    between atoms: C_43  and  C_44
REMARK   10  A    between atoms: C_45  and  C_46
REMARK                            x       y       z     vdW  Elec       q    Type
REMARK                         _______ _______ _______ _____ _____    ______ ____
ROOT
ATOM      1  O   UNL     1     138.121 113.500 115.927  0.00  0.00    +0.000 OA
ATOM      2  O   UNL     1     140.261 114.101 114.095  0.00  0.00    +0.000 OA
ATOM      3  O   UNL     1     135.418 114.779 114.863  0.00  0.00    +0.000 OA
ATOM      4  O   UNL     1     139.893 117.348 111.590  0.00  0.00    +0.000 OA
ATOM      5  O   UNL     1     144.811 113.452 112.887  0.00  0.00    +0.000 OA
ATOM      6  C   UNL     1     139.133 114.940 114.306  0.00  0.00    +0.000 C 
ATOM      7  C   UNL     1     139.144 115.627 115.718  0.00  0.00    +0.000 C 
ATOM      8  C   UNL     1     137.842 114.096 114.651  0.00  0.00    +0.000 C 
ATOM      9  C   UNL     1     138.931 114.437 116.660  0.00  0.00    +0.000 C 
ATOM     10  C   UNL     1     138.114 116.666 115.694  0.00  0.00    +0.000 C 
ATOM     11  C   UNL     1     137.058 116.581 114.700  0.00  0.00    +0.000 C 
ATOM     12  C   UNL     1     138.861 115.927 113.158  0.00  0.00    +0.000 C 
ATOM     13  C   UNL     1     136.590 115.099 114.741  0.00  0.00    +0.000 C 
ATOM     14  C   UNL     1     137.706 116.725 113.422  0.00  0.00    +0.000 C 
ATOM     15  C   UNL     1     138.168 114.836 117.931  0.00  0.00    +0.000 C 
ATOM     16  C   UNL     1     140.281 113.796 117.018  0.00  0.00    +0.000 C 
ATOM     17  C   UNL     1     139.983 116.387 112.342  0.00  0.00    +0.000 C 
ATOM     18  C   UNL     1     141.318 114.557 113.355  0.00  0.00    +0.000 A 
ATOM     19  C   UNL     1     141.249 115.657 112.487  0.00  0.00    +0.000 A 
ATOM     20  C   UNL     1     142.518 113.822 113.467  0.00  0.00    +0.000 A 
ATOM     21  C   UNL     1     142.376 116.053 111.748  0.00  0.00    +0.000 A 
ATOM     22  C   UNL     1     143.645 114.206 112.732  0.00  0.00    +0.000 A 
ATOM     23  C   UNL     1     143.560 115.332 111.875  0.00  0.00    +0.000 A 
ATOM     24  C   UNL     1     144.763 115.614 111.182  0.00  0.00    +0.000 C 
ATOM     25  C   UNL     1     146.017 113.759 112.081  0.00  0.00    +0.000 C 
ATOM     26  C   UNL     1     145.751 114.955 111.280  0.00  0.00    +0.000 C 
ATOM     27  C   UNL     1     146.292 112.516 111.199  0.00  0.00    +0.000 C 
ENDROOT
BRANCH  21  28
ATOM     28  O   UNL     1     142.365 117.127 110.898  0.00  0.00    +0.000 OA
ATOM     29  H   UNL     1     141.438 117.407 110.726  0.00  0.00    +0.000 HD
ENDBRANCH  21  28
BRANCH   8  30
ATOM     30  C   UNL     1     137.584 113.038 113.665  0.00  0.00    +0.000 C 
ATOM     31  C   UNL     1     137.365 111.914 112.639  0.00  0.00    +0.000 C 
BRANCH  31  32
ATOM     32  C   UNL     1     137.236 110.963 111.758  0.00  0.00    +0.000 C 
ATOM     33  C   UNL     1     137.986 109.685 112.087  0.00  0.00    +0.000 C 
BRANCH  32  35
ATOM     34  O   UNL     1     136.407 112.150 109.826  0.00  0.00    +0.000 OA
ATOM     35  C   UNL     1     136.391 111.166 110.551  0.00  0.00    +0.000 C 
BRANCH  35  36
ATOM     36  O   UNL     1     135.553 110.143 110.281  0.00  0.00    +0.000 OA
ATOM     37  H   UNL     1     135.859 109.404 110.849  0.00  0.00    +0.000 HD
ENDBRANCH  35  36
ENDBRANCH  32  35
ENDBRANCH  31  32
ENDBRANCH   8  30
BRANCH  20  38
ATOM     38  C   UNL     1     142.583 112.685 114.339  0.00  0.00    +0.000 C 
ATOM     39  C   UNL     1     142.680 111.478 115.283  0.00  0.00    +0.000 C 
BRANCH  39  40
ATOM     40  C   UNL     1     142.778 110.467 116.090  0.00  0.00    +0.000 C 
ATOM     41  C   UNL     1     144.010 109.614 116.052  0.00  0.00    +0.000 C 
ATOM     42  C   UNL     1     141.790 110.307 117.204  0.00  0.00    +0.000 C 
ENDBRANCH  39  40
ENDBRANCH  20  38
BRANCH  25  43
ATOM     43  C   UNL     1     147.125 113.976 113.031  0.00  0.00    +0.000 C 
BRANCH  43  44
ATOM     44  C   UNL     1     148.277 114.209 114.016  0.00  0.00    +0.000 C 
ATOM     45  C   UNL     1     149.430 114.443 115.003  0.00  0.00    +0.000 C 
BRANCH  45  46
ATOM     46  C   UNL     1     150.401 114.647 115.837  0.00  0.00    +0.000 C 
ATOM     47  C   UNL     1     150.153 115.446 117.079  0.00  0.00    +0.000 C 
ATOM     48  C   UNL     1     151.797 114.244 115.475  0.00  0.00    +0.000 C 
ENDBRANCH  45  46
ENDBRANCH  43  44
ENDBRANCH  25  43
TORSDOF 10
ENDMDL
MODEL 3
REMARK VINA RESULT:      -6.0      3.321      6.392
REMARK  Name = 9852185_GambogicAcid.pdbqt.pdb
REMARK  10 active torsions:
REMARK  status: ('A' for Active; 'I' for Inactive)
REMARK    1  A    between atoms: C_8  and  C_30
REMARK    2  A    between atoms: C_20  and  C_38
REMARK    3  A    between atoms: C_21  and  O_28
REMARK    4  A    between atoms: C_25  and  C_43
REMARK    5  A    between atoms: C_31  and  C_32
REMARK    6  A    between atoms: C_32  and  C_35
REMARK    7  A    between atoms: C_35  and  O_36
REMARK    8  A    between atoms: C_39  and  C_40
REMARK    9  A    between atoms: C_43  and  C_44
REMARK   10  A    between atoms: C_45  and  C_46
REMARK                            x       y       z     vdW  Elec       q    Type
REMARK                         _______ _______ _______ _____ _____    ______ ____
ROOT
ATOM      1  O   UNL     1     138.837 142.317 142.502  0.00  0.00    +0.000 OA
ATOM      2  O   UNL     1     138.464 139.521 141.918  0.00  0.00    +0.000 OA
ATOM      3  O   UNL     1     137.767 142.946 145.423  0.00  0.00    +0.000 OA
ATOM      4  O   UNL     1     135.609 137.408 144.001  0.00  0.00    +0.000 OA
ATOM      5  O   UNL     1     139.201 135.917 138.908  0.00  0.00    +0.000 OA
ATOM      6  C   UNL     1     137.623 140.274 142.781  0.00  0.00    +0.000 C 
ATOM      7  C   UNL     1     136.744 141.322 142.010  0.00  0.00    +0.000 C 
ATOM      8  C   UNL     1     138.431 141.405 143.534  0.00  0.00    +0.000 C 
ATOM      9  C   UNL     1     137.793 142.322 141.513  0.00  0.00    +0.000 C 
ATOM     10  C   UNL     1     135.736 141.808 142.953  0.00  0.00    +0.000 C 
ATOM     11  C   UNL     1     135.978 141.653 144.377  0.00  0.00    +0.000 C 
ATOM     12  C   UNL     1     136.813 139.419 143.771  0.00  0.00    +0.000 C 
ATOM     13  C   UNL     1     137.448 142.118 144.584  0.00  0.00    +0.000 C 
ATOM     14  C   UNL     1     136.004 140.234 144.621  0.00  0.00    +0.000 C 
ATOM     15  C   UNL     1     137.231 143.748 141.417  0.00  0.00    +0.000 C 
ATOM     16  C   UNL     1     138.354 141.870 140.155  0.00  0.00    +0.000 C 
ATOM     17  C   UNL     1     136.453 138.053 143.393  0.00  0.00    +0.000 C 
ATOM     18  C   UNL     1     138.099 138.255 141.548  0.00  0.00    +0.000 A 
ATOM     19  C   UNL     1     137.134 137.491 142.220  0.00  0.00    +0.000 A 
ATOM     20  C   UNL     1     138.791 137.706 140.446  0.00  0.00    +0.000 A 
ATOM     21  C   UNL     1     136.827 136.191 141.787  0.00  0.00    +0.000 A 
ATOM     22  C   UNL     1     138.496 136.410 140.010  0.00  0.00    +0.000 A 
ATOM     23  C   UNL     1     137.503 135.662 140.691  0.00  0.00    +0.000 A 
ATOM     24  C   UNL     1     137.301 134.364 140.159  0.00  0.00    +0.000 C 
ATOM     25  C   UNL     1     138.990 134.526 138.443  0.00  0.00    +0.000 C 
ATOM     26  C   UNL     1     137.923 133.922 139.244  0.00  0.00    +0.000 C 
ATOM     27  C   UNL     1     140.340 133.787 138.619  0.00  0.00    +0.000 C 
ENDROOT
BRANCH  21  28
ATOM     28  O   UNL     1     135.884 135.409 142.400  0.00  0.00    +0.000 OA
ATOM     29  H   UNL     1     134.988 135.643 142.066  0.00  0.00    +0.000 HD
ENDBRANCH  21  28
BRANCH   8  30
ATOM     30  C   UNL     1     139.623 140.881 144.218  0.00  0.00    +0.000 C 
ATOM     31  C   UNL     1     140.840 140.335 144.980  0.00  0.00    +0.000 C 
BRANCH  31  32
ATOM     32  C   UNL     1     141.852 139.896 145.673  0.00  0.00    +0.000 C 
ATOM     33  C   UNL     1     143.081 140.785 145.639  0.00  0.00    +0.000 C 
BRANCH  32  35
ATOM     34  O   UNL     1     142.671 137.869 146.699  0.00  0.00    +0.000 OA
ATOM     35  C   UNL     1     141.745 138.622 146.434  0.00  0.00    +0.000 C 
BRANCH  35  36
ATOM     36  O   UNL     1     140.494 138.322 146.843  0.00  0.00    +0.000 OA
ATOM     37  H   UNL     1     139.988 139.157 146.753  0.00  0.00    +0.000 HD
ENDBRANCH  35  36
ENDBRANCH  32  35
ENDBRANCH  31  32
ENDBRANCH   8  30
BRANCH  20  38
ATOM     38  C   UNL     1     139.792 138.480 139.771  0.00  0.00    +0.000 C 
ATOM     39  C   UNL     1     140.886 139.289 139.059  0.00  0.00    +0.000 C 
BRANCH  39  40
ATOM     40  C   UNL     1     141.824 139.955 138.460  0.00  0.00    +0.000 C 
ATOM     41  C   UNL     1     142.594 140.989 139.226  0.00  0.00    +0.000 C 
ATOM     42  C   UNL     1     142.291 139.526 137.104  0.00  0.00    +0.000 C 
ENDBRANCH  39  40
ENDBRANCH  20  38
BRANCH  25  43
ATOM     43  C   UNL     1     138.622 134.601 137.016  0.00  0.00    +0.000 C 
BRANCH  43  44
ATOM     44  C   UNL     1     138.248 134.677 135.531  0.00  0.00    +0.000 C 
ATOM     45  C   UNL     1     137.874 134.752 134.043  0.00  0.00    +0.000 C 
BRANCH  45  46
ATOM     46  C   UNL     1     137.564 134.811 132.786  0.00  0.00    +0.000 C 
ATOM     47  C   UNL     1     136.370 134.060 132.282  0.00  0.00    +0.000 C 
ATOM     48  C   UNL     1     138.491 135.476 131.817  0.00  0.00    +0.000 C 
ENDBRANCH  45  46
ENDBRANCH  43  44
ENDBRANCH  25  43
TORSDOF 10
ENDMDL
MODEL 4
REMARK VINA RESULT:      -6.0     14.206     18.800
REMARK  Name = 9852185_GambogicAcid.pdbqt.pdb
REMARK  10 active torsions:
REMARK  status: ('A' for Active; 'I' for Inactive)
REMARK    1  A    between atoms: C_8  and  C_30
REMARK    2  A    between atoms: C_20  and  C_38
REMARK    3  A    between atoms: C_21  and  O_28
REMARK    4  A    between atoms: C_25  and  C_43
REMARK    5  A    between atoms: C_31  and  C_32
REMARK    6  A    between atoms: C_32  and  C_35
REMARK    7  A    between atoms: C_35  and  O_36
REMARK    8  A    between atoms: C_39  and  C_40
REMARK    9  A    between atoms: C_43  and  C_44
REMARK   10  A    between atoms: C_45  and  C_46
REMARK                            x       y       z     vdW  Elec       q    Type
REMARK                         _______ _______ _______ _____ _____    ______ ____
ROOT
ATOM      1  O   UNL     1     151.266 133.023 125.100  0.00  0.00    +0.000 OA
ATOM      2  O   UNL     1     151.379 134.631 127.488  0.00  0.00    +0.000 OA
ATOM      3  O   UNL     1     150.060 134.739 122.718  0.00  0.00    +0.000 OA
ATOM      4  O   UNL     1     148.889 137.893 127.819  0.00  0.00    +0.000 OA
ATOM      5  O   UNL     1     152.760 134.992 132.021  0.00  0.00    +0.000 OA
ATOM      6  C   UNL     1     150.410 134.795 126.462  0.00  0.00    +0.000 C 
ATOM      7  C   UNL     1     149.379 133.612 126.406  0.00  0.00    +0.000 C 
ATOM      8  C   UNL     1     151.004 134.434 125.042  0.00  0.00    +0.000 C 
ATOM      9  C   UNL     1     150.252 132.443 125.938  0.00  0.00    +0.000 C 
ATOM     10  C   UNL     1     148.289 134.039 125.527  0.00  0.00    +0.000 C 
ATOM     11  C   UNL     1     148.531 135.117 124.585  0.00  0.00    +0.000 C 
ATOM     12  C   UNL     1     149.740 136.180 126.446  0.00  0.00    +0.000 C 
ATOM     13  C   UNL     1     149.898 134.772 123.927  0.00  0.00    +0.000 C 
ATOM     14  C   UNL     1     148.793 136.287 125.382  0.00  0.00    +0.000 C 
ATOM     15  C   UNL     1     149.459 131.430 125.099  0.00  0.00    +0.000 C 
ATOM     16  C   UNL     1     150.902 131.751 127.147  0.00  0.00    +0.000 C 
ATOM     17  C   UNL     1     149.622 136.920 127.701  0.00  0.00    +0.000 C 
ATOM     18  C   UNL     1     151.239 135.307 128.669  0.00  0.00    +0.000 A 
ATOM     19  C   UNL     1     150.406 136.422 128.839  0.00  0.00    +0.000 A 
ATOM     20  C   UNL     1     152.030 134.848 129.745  0.00  0.00    +0.000 A 
ATOM     21  C   UNL     1     150.329 137.072 130.082  0.00  0.00    +0.000 A 
ATOM     22  C   UNL     1     151.965 135.491 130.986  0.00  0.00    +0.000 A 
ATOM     23  C   UNL     1     151.102 136.605 131.141  0.00  0.00    +0.000 A 
ATOM     24  C   UNL     1     151.130 137.172 132.440  0.00  0.00    +0.000 C 
ATOM     25  C   UNL     1     152.794 135.672 133.337  0.00  0.00    +0.000 C 
ATOM     26  C   UNL     1     151.832 136.776 133.317  0.00  0.00    +0.000 C 
ATOM     27  C   UNL     1     154.246 136.169 133.545  0.00  0.00    +0.000 C 
ENDROOT
BRANCH  21  28
ATOM     28  O   UNL     1     149.522 138.156 130.302  0.00  0.00    +0.000 OA
ATOM     29  H   UNL     1     149.849 138.926 129.785  0.00  0.00    +0.000 HD
ENDBRANCH  21  28
BRANCH   8  30
ATOM     30  C   UNL     1     152.256 135.151 124.759  0.00  0.00    +0.000 C 
ATOM     31  C   UNL     1     153.535 135.938 124.436  0.00  0.00    +0.000 C 
BRANCH  31  32
ATOM     32  C   UNL     1     154.594 136.627 124.117  0.00  0.00    +0.000 C 
ATOM     33  C   UNL     1     155.356 136.103 122.913  0.00  0.00    +0.000 C 
BRANCH  32  35
ATOM     34  O   UNL     1     154.198 138.541 125.534  0.00  0.00    +0.000 OA
ATOM     35  C   UNL     1     154.969 137.835 124.900  0.00  0.00    +0.000 C 
BRANCH  35  36
ATOM     36  O   UNL     1     156.286 138.129 124.872  0.00  0.00    +0.000 OA
ATOM     37  H   UNL     1     156.690 137.441 124.303  0.00  0.00    +0.000 HD
ENDBRANCH  35  36
ENDBRANCH  32  35
ENDBRANCH  31  32
ENDBRANCH   8  30
BRANCH  20  38
ATOM     38  C   UNL     1     152.897 133.719 129.566  0.00  0.00    +0.000 C 
ATOM     39  C   UNL     1     153.850 132.531 129.372  0.00  0.00    +0.000 C 
BRANCH  39  40
ATOM     40  C   UNL     1     154.670 131.540 129.210  0.00  0.00    +0.000 C 
ATOM     41  C   UNL     1     154.198 130.301 128.511  0.00  0.00    +0.000 C 
ATOM     42  C   UNL     1     156.129 131.729 129.494  0.00  0.00    +0.000 C 
ENDBRANCH  39  40
ENDBRANCH  20  38
BRANCH  25  43
ATOM     43  C   UNL     1     152.441 134.662 134.353  0.00  0.00    +0.000 C 
BRANCH  43  44
ATOM     44  C   UNL     1     152.070 133.617 135.412  0.00  0.00    +0.000 C 
ATOM     45  C   UNL     1     151.696 132.570 136.471  0.00  0.00    +0.000 C 
BRANCH  45  46
ATOM     46  C   UNL     1     151.375 131.690 137.368  0.00  0.00    +0.000 C 
ATOM     47  C   UNL     1     152.441 131.096 138.236  0.00  0.00    +0.000 C 
ATOM     48  C   UNL     1     149.983 131.142 137.414  0.00  0.00    +0.000 C 
ENDBRANCH  45  46
ENDBRANCH  43  44
ENDBRANCH  25  43
TORSDOF 10
ENDMDL
MODEL 5
REMARK VINA RESULT:      -5.8     33.136     39.923
REMARK  Name = 9852185_GambogicAcid.pdbqt.pdb
REMARK  10 active torsions:
REMARK  status: ('A' for Active; 'I' for Inactive)
REMARK    1  A    between atoms: C_8  and  C_30
REMARK    2  A    between atoms: C_20  and  C_38
REMARK    3  A    between atoms: C_21  and  O_28
REMARK    4  A    between atoms: C_25  and  C_43
REMARK    5  A    between atoms: C_31  and  C_32
REMARK    6  A    between atoms: C_32  and  C_35
REMARK    7  A    between atoms: C_35  and  O_36
REMARK    8  A    between atoms: C_39  and  C_40
REMARK    9  A    between atoms: C_43  and  C_44
REMARK   10  A    between atoms: C_45  and  C_46
REMARK                            x       y       z     vdW  Elec       q    Type
REMARK                         _______ _______ _______ _____ _____    ______ ____
ROOT
ATOM      1  O   UNL     1     129.195 116.175 103.440  0.00  0.00    +0.000 OA
ATOM      2  O   UNL     1     132.037 115.726 103.573  0.00  0.00    +0.000 OA
ATOM      3  O   UNL     1     128.421 117.252 100.556  0.00  0.00    +0.000 OA
ATOM      4  O   UNL     1     134.501 117.728 100.951  0.00  0.00    +0.000 OA
ATOM      5  O   UNL     1     135.727 114.088 106.079  0.00  0.00    +0.000 OA
ATOM      6  C   UNL     1     131.424 116.713 102.755  0.00  0.00    +0.000 C 
ATOM      7  C   UNL     1     130.815 117.898 103.587  0.00  0.00    +0.000 C 
ATOM      8  C   UNL     1     130.000 116.244 102.252  0.00  0.00    +0.000 C 
ATOM      9  C   UNL     1     129.653 117.217 104.319  0.00  0.00    +0.000 C 
ATOM     10  C   UNL     1     130.487 118.961 102.637  0.00  0.00    +0.000 C 
ATOM     11  C   UNL     1     130.327 118.620 101.234  0.00  0.00    +0.000 C 
ATOM     12  C   UNL     1     132.297 117.188 101.581  0.00  0.00    +0.000 C 
ATOM     13  C   UNL     1     129.433 117.348 101.232  0.00  0.00    +0.000 C 
ATOM     14  C   UNL     1     131.618 118.163 100.789  0.00  0.00    +0.000 C 
ATOM     15  C   UNL     1     128.484 118.180 104.570  0.00  0.00    +0.000 C 
ATOM     16  C   UNL     1     130.145 116.608 105.642  0.00  0.00    +0.000 C 
ATOM     17  C   UNL     1     133.751 117.142 101.721  0.00  0.00    +0.000 C 
ATOM     18  C   UNL     1     133.398 115.715 103.719  0.00  0.00    +0.000 A 
ATOM     19  C   UNL     1     134.282 116.378 102.857  0.00  0.00    +0.000 A 
ATOM     20  C   UNL     1     133.901 114.942 104.788  0.00  0.00    +0.000 A 
ATOM     21  C   UNL     1     135.670 116.304 103.066  0.00  0.00    +0.000 A 
ATOM     22  C   UNL     1     135.281 114.857 105.001  0.00  0.00    +0.000 A 
ATOM     23  C   UNL     1     136.158 115.551 104.130  0.00  0.00    +0.000 A 
ATOM     24  C   UNL     1     137.529 115.383 104.446  0.00  0.00    +0.000 C 
ATOM     25  C   UNL     1     137.178 113.897 106.315  0.00  0.00    +0.000 C 
ATOM     26  C   UNL     1     137.920 114.698 105.341  0.00  0.00    +0.000 C 
ATOM     27  C   UNL     1     137.460 112.382 106.158  0.00  0.00    +0.000 C 
ENDROOT
BRANCH  21  28
ATOM     28  O   UNL     1     136.575 116.944 102.262  0.00  0.00    +0.000 OA
ATOM     29  H   UNL     1     136.258 117.852 102.059  0.00  0.00    +0.000 HD
ENDBRANCH  21  28
BRANCH   8  30
ATOM     30  C   UNL     1     130.039 114.922 101.612  0.00  0.00    +0.000 C 
ATOM     31  C   UNL     1     130.089 113.517 100.991  0.00  0.00    +0.000 C 
BRANCH  31  32
ATOM     32  C   UNL     1     130.163 112.309 100.509  0.00  0.00    +0.000 C 
ATOM     33  C   UNL     1     128.860 111.762  99.957  0.00  0.00    +0.000 C 
BRANCH  32  35
ATOM     34  O   UNL     1     132.158 111.363  99.531  0.00  0.00    +0.000 OA
ATOM     35  C   UNL     1     131.459 111.579 100.510  0.00  0.00    +0.000 C 
BRANCH  35  36
ATOM     36  O   UNL     1     131.848 111.140 101.726  0.00  0.00    +0.000 OA
ATOM     37  H   UNL     1     131.191 110.456 101.974  0.00  0.00    +0.000 HD
ENDBRANCH  35  36
ENDBRANCH  32  35
ENDBRANCH  31  32
ENDBRANCH   8  30
BRANCH  20  38
ATOM     38  C   UNL     1     132.996 114.247 105.658  0.00  0.00    +0.000 C 
ATOM     39  C   UNL     1     132.027 113.528 106.607  0.00  0.00    +0.000 C 
BRANCH  39  40
ATOM     40  C   UNL     1     131.204 112.939 107.418  0.00  0.00    +0.000 C 
ATOM     41  C   UNL     1     131.049 111.449 107.355  0.00  0.00    +0.000 C 
ATOM     42  C   UNL     1     130.610 113.706 108.560  0.00  0.00    +0.000 C 
ENDBRANCH  39  40
ENDBRANCH  20  38
BRANCH  25  43
ATOM     43  C   UNL     1     137.450 114.333 107.698  0.00  0.00    +0.000 C 
BRANCH  43  44
ATOM     44  C   UNL     1     137.730 114.780 109.138  0.00  0.00    +0.000 C 
ATOM     45  C   UNL     1     138.010 115.229 110.580  0.00  0.00    +0.000 C 
BRANCH  45  46
ATOM     46  C   UNL     1     138.250 115.613 111.794  0.00  0.00    +0.000 C 
ATOM     47  C   UNL     1     137.836 114.742 112.941  0.00  0.00    +0.000 C 
ATOM     48  C   UNL     1     138.773 116.991 112.055  0.00  0.00    +0.000 C 
ENDBRANCH  45  46
ENDBRANCH  43  44
ENDBRANCH  25  43
TORSDOF 10
ENDMDL
MODEL 6
REMARK VINA RESULT:      -5.7     13.175     17.976
REMARK  Name = 9852185_GambogicAcid.pdbqt.pdb
REMARK  10 active torsions:
REMARK  status: ('A' for Active; 'I' for Inactive)
REMARK    1  A    between atoms: C_8  and  C_30
REMARK    2  A    between atoms: C_20  and  C_38
REMARK    3  A    between atoms: C_21  and  O_28
REMARK    4  A    between atoms: C_25  and  C_43
REMARK    5  A    between atoms: C_31  and  C_32
REMARK    6  A    between atoms: C_32  and  C_35
REMARK    7  A    between atoms: C_35  and  O_36
REMARK    8  A    between atoms: C_39  and  C_40
REMARK    9  A    between atoms: C_43  and  C_44
REMARK   10  A    between atoms: C_45  and  C_46
REMARK                            x       y       z     vdW  Elec       q    Type
REMARK                         _______ _______ _______ _____ _____    ______ ____
ROOT
ATOM      1  O   UNL     1     133.903 123.667 145.238  0.00  0.00    +0.000 OA
ATOM      2  O   UNL     1     136.728 124.216 145.135  0.00  0.00    +0.000 OA
ATOM      3  O   UNL     1     132.342 125.780 143.455  0.00  0.00    +0.000 OA
ATOM      4  O   UNL     1     137.993 128.005 144.137  0.00  0.00    +0.000 OA
ATOM      5  O   UNL     1     141.125 122.864 146.330  0.00  0.00    +0.000 OA
ATOM      6  C   UNL     1     135.719 125.208 145.009  0.00  0.00    +0.000 C 
ATOM      7  C   UNL     1     134.955 125.471 146.356  0.00  0.00    +0.000 C 
ATOM      8  C   UNL     1     134.424 124.630 144.309  0.00  0.00    +0.000 C 
ATOM      9  C   UNL     1     134.192 124.158 146.558  0.00  0.00    +0.000 C 
ATOM     10  C   UNL     1     134.168 126.691 146.167  0.00  0.00    +0.000 C 
ATOM     11  C   UNL     1     133.862 127.124 144.815  0.00  0.00    +0.000 C 
ATOM     12  C   UNL     1     136.191 126.500 144.321  0.00  0.00    +0.000 C 
ATOM     13  C   UNL     1     133.389 125.837 144.082  0.00  0.00    +0.000 C 
ATOM     14  C   UNL     1     135.127 127.447 144.208  0.00  0.00    +0.000 C 
ATOM     15  C   UNL     1     132.861 124.371 147.293  0.00  0.00    +0.000 C 
ATOM     16  C   UNL     1     135.070 123.147 147.313  0.00  0.00    +0.000 C 
ATOM     17  C   UNL     1     137.597 126.885 144.431  0.00  0.00    +0.000 C 
ATOM     18  C   UNL     1     138.038 124.592 145.268  0.00  0.00    +0.000 A 
ATOM     19  C   UNL     1     138.522 125.867 144.945  0.00  0.00    +0.000 A 
ATOM     20  C   UNL     1     138.927 123.593 145.721  0.00  0.00    +0.000 A 
ATOM     21  C   UNL     1     139.886 126.170 145.095  0.00  0.00    +0.000 A 
ATOM     22  C   UNL     1     140.288 123.883 145.869  0.00  0.00    +0.000 A 
ATOM     23  C   UNL     1     140.754 125.185 145.555  0.00  0.00    +0.000 A 
ATOM     24  C   UNL     1     142.149 125.351 145.740  0.00  0.00    +0.000 C 
ATOM     25  C   UNL     1     142.587 123.083 146.438  0.00  0.00    +0.000 C 
ATOM     26  C   UNL     1     142.876 124.477 146.097  0.00  0.00    +0.000 C 
ATOM     27  C   UNL     1     143.260 122.092 145.456  0.00  0.00    +0.000 C 
ENDROOT
BRANCH  21  28
ATOM     28  O   UNL     1     140.407 127.403 144.805  0.00  0.00    +0.000 OA
ATOM     29  H   UNL     1     140.566 127.480 143.838  0.00  0.00    +0.000 HD
ENDBRANCH  21  28
BRANCH   8  30
ATOM     30  C   UNL     1     134.726 123.964 143.034  0.00  0.00    +0.000 C 
ATOM     31  C   UNL     1     134.991 123.249 141.700  0.00  0.00    +0.000 C 
BRANCH  31  32
ATOM     32  C   UNL     1     135.173 122.606 140.581  0.00  0.00    +0.000 C 
ATOM     33  C   UNL     1     135.819 123.421 139.476  0.00  0.00    +0.000 C 
BRANCH  32  35
ATOM     34  O   UNL     1     134.306 120.648 139.466  0.00  0.00    +0.000 OA
ATOM     35  C   UNL     1     134.775 121.177 140.462  0.00  0.00    +0.000 C 
BRANCH  35  36
ATOM     36  O   UNL     1     134.971 120.451 141.583  0.00  0.00    +0.000 OA
ATOM     37  H   UNL     1     134.388 120.857 142.258  0.00  0.00    +0.000 HD
ENDBRANCH  35  36
ENDBRANCH  32  35
ENDBRANCH  31  32
ENDBRANCH   8  30
BRANCH  20  38
ATOM     38  C   UNL     1     138.435 122.283 146.033  0.00  0.00    +0.000 C 
ATOM     39  C   UNL     1     137.914 120.870 146.337  0.00  0.00    +0.000 C 
BRANCH  39  40
ATOM     40  C   UNL     1     137.482 119.671 146.576  0.00  0.00    +0.000 C 
ATOM     41  C   UNL     1     136.199 119.489 147.329  0.00  0.00    +0.000 C 
ATOM     42  C   UNL     1     138.125 118.501 145.898  0.00  0.00    +0.000 C 
ENDBRANCH  39  40
ENDBRANCH  20  38
BRANCH  25  43
ATOM     43  C   UNL     1     142.967 122.773 147.829  0.00  0.00    +0.000 C 
BRANCH  43  44
ATOM     44  C   UNL     1     143.369 122.449 149.273  0.00  0.00    +0.000 C 
ATOM     45  C   UNL     1     143.774 122.123 150.718  0.00  0.00    +0.000 C 
BRANCH  45  46
ATOM     46  C   UNL     1     144.112 121.842 151.937  0.00  0.00    +0.000 C 
ATOM     47  C   UNL     1     145.147 120.790 152.194  0.00  0.00    +0.000 C 
ATOM     48  C   UNL     1     143.348 122.432 153.082  0.00  0.00    +0.000 C 
ENDBRANCH  45  46
ENDBRANCH  43  44
ENDBRANCH  25  43
TORSDOF 10
ENDMDL
MODEL 7
REMARK VINA RESULT:      -5.6      8.934     13.726
REMARK  Name = 9852185_GambogicAcid.pdbqt.pdb
REMARK  10 active torsions:
REMARK  status: ('A' for Active; 'I' for Inactive)
REMARK    1  A    between atoms: C_8  and  C_30
REMARK    2  A    between atoms: C_20  and  C_38
REMARK    3  A    between atoms: C_21  and  O_28
REMARK    4  A    between atoms: C_25  and  C_43
REMARK    5  A    between atoms: C_31  and  C_32
REMARK    6  A    between atoms: C_32  and  C_35
REMARK    7  A    between atoms: C_35  and  O_36
REMARK    8  A    between atoms: C_39  and  C_40
REMARK    9  A    between atoms: C_43  and  C_44
REMARK   10  A    between atoms: C_45  and  C_46
REMARK                            x       y       z     vdW  Elec       q    Type
REMARK                         _______ _______ _______ _____ _____    ______ ____
ROOT
ATOM      1  O   UNL     1     128.952 127.706 143.711  0.00  0.00    +0.000 OA
ATOM      2  O   UNL     1     130.472 130.117 143.296  0.00  0.00    +0.000 OA
ATOM      3  O   UNL     1     129.427 125.716 141.284  0.00  0.00    +0.000 OA
ATOM      4  O   UNL     1     131.604 131.130 139.469  0.00  0.00    +0.000 OA
ATOM      5  O   UNL     1     131.909 134.303 145.027  0.00  0.00    +0.000 OA
ATOM      6  C   UNL     1     129.949 129.314 142.246  0.00  0.00    +0.000 C 
ATOM      7  C   UNL     1     128.383 129.391 142.146  0.00  0.00    +0.000 C 
ATOM      8  C   UNL     1     129.916 127.786 142.650  0.00  0.00    +0.000 C 
ATOM      9  C   UNL     1     127.941 128.691 143.435  0.00  0.00    +0.000 C 
ATOM     10  C   UNL     1     128.007 128.772 140.874  0.00  0.00    +0.000 C 
ATOM     11  C   UNL     1     128.946 127.867 140.233  0.00  0.00    +0.000 C 
ATOM     12  C   UNL     1     130.650 129.515 140.892  0.00  0.00    +0.000 C 
ATOM     13  C   UNL     1     129.443 126.934 141.373  0.00  0.00    +0.000 C 
ATOM     14  C   UNL     1     130.092 128.667 139.887  0.00  0.00    +0.000 C 
ATOM     15  C   UNL     1     126.599 127.964 143.266  0.00  0.00    +0.000 C 
ATOM     16  C   UNL     1     127.865 129.703 144.589  0.00  0.00    +0.000 C 
ATOM     17  C   UNL     1     131.259 130.811 140.599  0.00  0.00    +0.000 C 
ATOM     18  C   UNL     1     131.010 131.342 143.009  0.00  0.00    +0.000 A 
ATOM     19  C   UNL     1     131.413 131.739 141.726  0.00  0.00    +0.000 A 
ATOM     20  C   UNL     1     131.195 132.211 144.107  0.00  0.00    +0.000 A 
ATOM     21  C   UNL     1     131.973 133.010 141.517  0.00  0.00    +0.000 A 
ATOM     22  C   UNL     1     131.758 133.477 143.910  0.00  0.00    +0.000 A 
ATOM     23  C   UNL     1     132.140 133.867 142.601  0.00  0.00    +0.000 A 
ATOM     24  C   UNL     1     132.701 135.166 142.534  0.00  0.00    +0.000 C 
ATOM     25  C   UNL     1     132.566 135.626 144.899  0.00  0.00    +0.000 C 
ATOM     26  C   UNL     1     132.869 135.862 143.486  0.00  0.00    +0.000 C 
ATOM     27  C   UNL     1     133.848 135.573 145.768  0.00  0.00    +0.000 C 
ENDROOT
BRANCH  21  28
ATOM     28  O   UNL     1     132.370 133.451 140.282  0.00  0.00    +0.000 OA
ATOM     29  H   UNL     1     133.349 133.549 140.261  0.00  0.00    +0.000 HD
ENDBRANCH  21  28
BRANCH   8  30
ATOM     30  C   UNL     1     131.217 127.306 143.136  0.00  0.00    +0.000 C 
ATOM     31  C   UNL     1     132.602 126.844 143.614  0.00  0.00    +0.000 C 
BRANCH  31  32
ATOM     32  C   UNL     1     133.799 126.474 143.973  0.00  0.00    +0.000 C 
ATOM     33  C   UNL     1     133.891 125.066 144.530  0.00  0.00    +0.000 C 
BRANCH  32  35
ATOM     34  O   UNL     1     136.127 127.071 143.741  0.00  0.00    +0.000 OA
ATOM     35  C   UNL     1     134.952 127.400 143.809  0.00  0.00    +0.000 C 
BRANCH  35  36
ATOM     36  O   UNL     1     134.611 128.704 143.732  0.00  0.00    +0.000 OA
ATOM     37  H   UNL     1     135.206 129.086 143.054  0.00  0.00    +0.000 HD
ENDBRANCH  35  36
ENDBRANCH  32  35
ENDBRANCH  31  32
ENDBRANCH   8  30
BRANCH  20  38
ATOM     38  C   UNL     1     130.803 131.797 145.423  0.00  0.00    +0.000 C 
ATOM     39  C   UNL     1     130.390 131.324 146.824  0.00  0.00    +0.000 C 
BRANCH  39  40
ATOM     40  C   UNL     1     130.051 130.906 148.004  0.00  0.00    +0.000 C 
ATOM     41  C   UNL     1     130.005 129.433 148.277  0.00  0.00    +0.000 C 
ATOM     42  C   UNL     1     129.950 131.881 149.137  0.00  0.00    +0.000 C 
ENDBRANCH  39  40
ENDBRANCH  20  38
BRANCH  25  43
ATOM     43  C   UNL     1     131.622 136.628 145.429  0.00  0.00    +0.000 C 
BRANCH  43  44
ATOM     44  C   UNL     1     130.642 137.667 145.987  0.00  0.00    +0.000 C 
ATOM     45  C   UNL     1     129.660 138.708 146.544  0.00  0.00    +0.000 C 
BRANCH  45  46
ATOM     46  C   UNL     1     128.837 139.593 147.014  0.00  0.00    +0.000 C 
ATOM     47  C   UNL     1     127.577 139.146 147.688  0.00  0.00    +0.000 C 
ATOM     48  C   UNL     1     129.055 141.046 146.726  0.00  0.00    +0.000 C 
ENDBRANCH  45  46
ENDBRANCH  43  44
ENDBRANCH  25  43
TORSDOF 10
ENDMDL
MODEL 8
REMARK VINA RESULT:      -5.6     15.630     19.936
REMARK  Name = 9852185_GambogicAcid.pdbqt.pdb
REMARK  10 active torsions:
REMARK  status: ('A' for Active; 'I' for Inactive)
REMARK    1  A    between atoms: C_8  and  C_30
REMARK    2  A    between atoms: C_20  and  C_38
REMARK    3  A    between atoms: C_21  and  O_28
REMARK    4  A    between atoms: C_25  and  C_43
REMARK    5  A    between atoms: C_31  and  C_32
REMARK    6  A    between atoms: C_32  and  C_35
REMARK    7  A    between atoms: C_35  and  O_36
REMARK    8  A    between atoms: C_39  and  C_40
REMARK    9  A    between atoms: C_43  and  C_44
REMARK   10  A    between atoms: C_45  and  C_46
REMARK                            x       y       z     vdW  Elec       q    Type
REMARK                         _______ _______ _______ _____ _____    ______ ____
ROOT
ATOM      1  O   UNL     1     154.835 127.311 141.415  0.00  0.00    +0.000 OA
ATOM      2  O   UNL     1     152.308 127.572 142.773  0.00  0.00    +0.000 OA
ATOM      3  O   UNL     1     154.701 124.886 139.372  0.00  0.00    +0.000 OA
ATOM      4  O   UNL     1     149.813 124.304 142.994  0.00  0.00    +0.000 OA
ATOM      5  O   UNL     1     149.611 130.067 145.786  0.00  0.00    +0.000 OA
ATOM      6  C   UNL     1     152.832 126.341 142.293  0.00  0.00    +0.000 C 
ATOM      7  C   UNL     1     154.075 125.848 143.117  0.00  0.00    +0.000 C 
ATOM      8  C   UNL     1     153.695 126.551 140.985  0.00  0.00    +0.000 C 
ATOM      9  C   UNL     1     155.137 126.894 142.757  0.00  0.00    +0.000 C 
ATOM     10  C   UNL     1     154.327 124.462 142.719  0.00  0.00    +0.000 C 
ATOM     11  C   UNL     1     153.791 123.989 141.454  0.00  0.00    +0.000 C 
ATOM     12  C   UNL     1     151.772 125.245 142.088  0.00  0.00    +0.000 C 
ATOM     13  C   UNL     1     154.136 125.109 140.431  0.00  0.00    +0.000 C 
ATOM     14  C   UNL     1     152.359 124.042 141.587  0.00  0.00    +0.000 C 
ATOM     15  C   UNL     1     156.554 126.304 142.768  0.00  0.00    +0.000 C 
ATOM     16  C   UNL     1     155.043 128.093 143.714  0.00  0.00    +0.000 C 
ATOM     17  C   UNL     1     150.568 125.264 142.917  0.00  0.00    +0.000 C 
ATOM     18  C   UNL     1     151.198 127.572 143.574  0.00  0.00    +0.000 A 
ATOM     19  C   UNL     1     150.316 126.488 143.688  0.00  0.00    +0.000 A 
ATOM     20  C   UNL     1     150.939 128.769 144.277  0.00  0.00    +0.000 A 
ATOM     21  C   UNL     1     149.187 126.572 144.520  0.00  0.00    +0.000 A 
ATOM     22  C   UNL     1     149.816 128.865 145.105  0.00  0.00    +0.000 A 
ATOM     23  C   UNL     1     148.947 127.751 145.221  0.00  0.00    +0.000 A 
ATOM     24  C   UNL     1     147.844 127.974 146.082  0.00  0.00    +0.000 C 
ATOM     25  C   UNL     1     148.400 130.260 146.620  0.00  0.00    +0.000 C 
ATOM     26  C   UNL     1     147.641 129.009 146.638  0.00  0.00    +0.000 C 
ATOM     27  C   UNL     1     147.597 131.420 145.979  0.00  0.00    +0.000 C 
ENDROOT
BRANCH  21  28
ATOM     28  O   UNL     1     148.302 125.539 144.676  0.00  0.00    +0.000 OA
ATOM     29  H   UNL     1     148.593 124.959 145.415  0.00  0.00    +0.000 HD
ENDBRANCH  21  28
BRANCH   8  30
ATOM     30  C   UNL     1     152.970 127.301 139.950  0.00  0.00    +0.000 C 
ATOM     31  C   UNL     1     152.258 128.082 138.835  0.00  0.00    +0.000 C 
BRANCH  31  32
ATOM     32  C   UNL     1     151.704 128.763 137.872  0.00  0.00    +0.000 C 
ATOM     33  C   UNL     1     151.947 128.211 136.480  0.00  0.00    +0.000 C 
BRANCH  32  35
ATOM     34  O   UNL     1     151.279 131.129 138.105  0.00  0.00    +0.000 OA
ATOM     35  C   UNL     1     150.892 129.972 138.177  0.00  0.00    +0.000 C 
BRANCH  35  36
ATOM     36  O   UNL     1     149.625 129.707 138.561  0.00  0.00    +0.000 OA
ATOM     37  H   UNL     1     149.328 130.511 139.038  0.00  0.00    +0.000 HD
ENDBRANCH  35  36
ENDBRANCH  32  35
ENDBRANCH  31  32
ENDBRANCH   8  30
BRANCH  20  38
ATOM     38  C   UNL     1     151.831 129.884 144.145  0.00  0.00    +0.000 C 
ATOM     39  C   UNL     1     152.802 131.063 143.980  0.00  0.00    +0.000 C 
BRANCH  39  40
ATOM     40  C   UNL     1     153.627 132.050 143.823  0.00  0.00    +0.000 C 
ATOM     41  C   UNL     1     153.599 133.193 144.793  0.00  0.00    +0.000 C 
ATOM     42  C   UNL     1     154.751 131.930 142.840  0.00  0.00    +0.000 C 
ENDBRANCH  39  40
ENDBRANCH  20  38
BRANCH  25  43
ATOM     43  C   UNL     1     148.863 130.635 147.970  0.00  0.00    +0.000 C 
BRANCH  43  44
ATOM     44  C   UNL     1     149.353 131.024 149.371  0.00  0.00    +0.000 C 
ATOM     45  C   UNL     1     149.841 131.412 150.774  0.00  0.00    +0.000 C 
BRANCH  45  46
ATOM     46  C   UNL     1     150.249 131.747 151.958  0.00  0.00    +0.000 C 
ATOM     47  C   UNL     1     149.360 132.567 152.842  0.00  0.00    +0.000 C 
ATOM     48  C   UNL     1     151.661 131.471 152.369  0.00  0.00    +0.000 C 
ENDBRANCH  45  46
ENDBRANCH  43  44
ENDBRANCH  25  43
TORSDOF 10
ENDMDL
MODEL 9
REMARK VINA RESULT:      -5.5     27.396     32.871
REMARK  Name = 9852185_GambogicAcid.pdbqt.pdb
REMARK  10 active torsions:
REMARK  status: ('A' for Active; 'I' for Inactive)
REMARK    1  A    between atoms: C_8  and  C_30
REMARK    2  A    between atoms: C_20  and  C_38
REMARK    3  A    between atoms: C_21  and  O_28
REMARK    4  A    between atoms: C_25  and  C_43
REMARK    5  A    between atoms: C_31  and  C_32
REMARK    6  A    between atoms: C_32  and  C_35
REMARK    7  A    between atoms: C_35  and  O_36
REMARK    8  A    between atoms: C_39  and  C_40
REMARK    9  A    between atoms: C_43  and  C_44
REMARK   10  A    between atoms: C_45  and  C_46
REMARK                            x       y       z     vdW  Elec       q    Type
REMARK                         _______ _______ _______ _____ _____    ______ ____
ROOT
ATOM      1  O   UNL     1     142.520 140.789 103.167  0.00  0.00    +0.000 OA
ATOM      2  O   UNL     1     144.602 140.292 105.094  0.00  0.00    +0.000 OA
ATOM      3  O   UNL     1     143.504 139.897 100.284  0.00  0.00    +0.000 OA
ATOM      4  O   UNL     1     148.501 140.022 103.799  0.00  0.00    +0.000 OA
ATOM      5  O   UNL     1     145.924 140.275 109.659  0.00  0.00    +0.000 OA
ATOM      6  C   UNL     1     144.839 140.602 103.728  0.00  0.00    +0.000 C 
ATOM      7  C   UNL     1     144.488 142.092 103.374  0.00  0.00    +0.000 C 
ATOM      8  C   UNL     1     143.689 140.039 102.800  0.00  0.00    +0.000 C 
ATOM      9  C   UNL     1     142.963 142.110 103.523  0.00  0.00    +0.000 C 
ATOM     10  C   UNL     1     145.043 142.356 102.046  0.00  0.00    +0.000 C 
ATOM     11  C   UNL     1     145.344 141.231 101.177  0.00  0.00    +0.000 C 
ATOM     12  C   UNL     1     146.224 140.172 103.217  0.00  0.00    +0.000 C 
ATOM     13  C   UNL     1     144.094 140.310 101.269  0.00  0.00    +0.000 C 
ATOM     14  C   UNL     1     146.392 140.494 101.835  0.00  0.00    +0.000 C 
ATOM     15  C   UNL     1     142.301 143.111 102.565  0.00  0.00    +0.000 C 
ATOM     16  C   UNL     1     142.576 142.418 104.978  0.00  0.00    +0.000 C 
ATOM     17  C   UNL     1     147.336 140.105 104.164  0.00  0.00    +0.000 C 
ATOM     18  C   UNL     1     145.649 140.264 105.976  0.00  0.00    +0.000 A 
ATOM     19  C   UNL     1     146.994 140.174 105.590  0.00  0.00    +0.000 A 
ATOM     20  C   UNL     1     145.308 140.286 107.346  0.00  0.00    +0.000 A 
ATOM     21  C   UNL     1     148.011 140.133 106.558  0.00  0.00    +0.000 A 
ATOM     22  C   UNL     1     146.313 140.241 108.318  0.00  0.00    +0.000 A 
ATOM     23  C   UNL     1     147.668 140.169 107.907  0.00  0.00    +0.000 A 
ATOM     24  C   UNL     1     148.589 140.123 108.982  0.00  0.00    +0.000 C 
ATOM     25  C   UNL     1     146.934 140.156 110.738  0.00  0.00    +0.000 C 
ATOM     26  C   UNL     1     148.264 140.114 110.129  0.00  0.00    +0.000 C 
ATOM     27  C   UNL     1     146.607 138.854 111.512  0.00  0.00    +0.000 C 
ENDROOT
BRANCH  21  28
ATOM     28  O   UNL     1     149.340 140.058 106.234  0.00  0.00    +0.000 OA
ATOM     29  H   UNL     1     149.773 139.351 106.763  0.00  0.00    +0.000 HD
ENDBRANCH  21  28
BRANCH   8  30
ATOM     30  C   UNL     1     143.440 138.608 103.021  0.00  0.00    +0.000 C 
ATOM     31  C   UNL     1     143.171 137.106 103.199  0.00  0.00    +0.000 C 
BRANCH  31  32
ATOM     32  C   UNL     1     142.912 135.833 103.302  0.00  0.00    +0.000 C 
ATOM     33  C   UNL     1     142.838 135.311 104.725  0.00  0.00    +0.000 C 
BRANCH  32  35
ATOM     34  O   UNL     1     142.227 133.880 102.057  0.00  0.00    +0.000 OA
ATOM     35  C   UNL     1     142.696 135.009 102.082  0.00  0.00    +0.000 C 
BRANCH  35  36
ATOM     36  O   UNL     1     143.067 135.611 100.933  0.00  0.00    +0.000 OA
ATOM     37  H   UNL     1     142.270 136.091 100.625  0.00  0.00    +0.000 HD
ENDBRANCH  35  36
ENDBRANCH  32  35
ENDBRANCH  31  32
ENDBRANCH   8  30
BRANCH  20  38
ATOM     38  C   UNL     1     143.931 140.358 107.740  0.00  0.00    +0.000 C 
ATOM     39  C   UNL     1     142.465 140.427 108.192  0.00  0.00    +0.000 C 
BRANCH  39  40
ATOM     40  C   UNL     1     141.233 140.485 108.593  0.00  0.00    +0.000 C 
ATOM     41  C   UNL     1     140.823 139.729 109.821  0.00  0.00    +0.000 C 
ATOM     42  C   UNL     1     140.299 141.486 107.984  0.00  0.00    +0.000 C 
ENDBRANCH  39  40
ENDBRANCH  20  38
BRANCH  25  43
ATOM     43  C   UNL     1     146.771 141.333 111.611  0.00  0.00    +0.000 C 
BRANCH  43  44
ATOM     44  C   UNL     1     146.610 142.560 112.518  0.00  0.00    +0.000 C 
ATOM     45  C   UNL     1     146.450 143.789 113.424  0.00  0.00    +0.000 C 
BRANCH  45  46
ATOM     46  C   UNL     1     146.322 144.827 114.190  0.00  0.00    +0.000 C 
ATOM     47  C   UNL     1     146.003 144.641 115.642  0.00  0.00    +0.000 C 
ATOM     48  C   UNL     1     146.315 146.201 113.595  0.00  0.00    +0.000 C 
ENDBRANCH  45  46
ENDBRANCH  43  44
ENDBRANCH  25  43
TORSDOF 10
ENDMDL
