MODEL 1
REMARK VINA RESULT:      -7.9      0.000      0.000
REMARK  Name = AFLATOXIN.pdbqt.pdb
REMARK  1 active torsions:
REMARK  status: ('A' for Active; 'I' for Inactive)
REMARK    1  A    between atoms: C_15  and  O_23
REMARK                            x       y       z     vdW  Elec       q    Type
REMARK                         _______ _______ _______ _____ _____    ______ ____
ROOT
ATOM      1  O   UNL     1     146.946 126.005 102.577  0.00  0.00    +0.000 OA
ATOM      2  O   UNL     1     146.108 126.416 104.865  0.00  0.00    +0.000 OA
ATOM      3  O   UNL     1     142.515 125.291 101.149  0.00  0.00    +0.000 OA
ATOM      4  O   UNL     1     141.120 122.564  97.215  0.00  0.00    +0.000 OA
ATOM      5  O   UNL     1     140.357 125.197 100.510  0.00  0.00    +0.000 OA
ATOM      6  O   UNL     1     139.607 123.552  98.554  0.00  0.00    +0.000 OA
ATOM      7  C   UNL     1     144.682 126.396 103.005  0.00  0.00    +0.000 C 
ATOM      8  C   UNL     1     144.788 125.630 101.780  0.00  0.00    +0.000 A 
ATOM      9  C   UNL     1     146.071 126.625 103.474  0.00  0.00    +0.000 C 
ATOM     10  C   UNL     1     146.161 125.464 101.571  0.00  0.00    +0.000 A 
ATOM     11  C   UNL     1     143.874 125.082 100.900  0.00  0.00    +0.000 A 
ATOM     12  C   UNL     1     144.304 124.361  99.787  0.00  0.00    +0.000 A 
ATOM     13  C   UNL     1     143.920 126.110 104.168  0.00  0.00    +0.000 C 
ATOM     14  C   UNL     1     143.252 123.774  98.939  0.00  0.00    +0.000 A 
ATOM     15  C   UNL     1     145.707 124.244  99.577  0.00  0.00    +0.000 A 
ATOM     16  C   UNL     1     146.645 124.769 100.486  0.00  0.00    +0.000 A 
ATOM     17  C   UNL     1     143.561 122.929  97.848  0.00  0.00    +0.000 A 
ATOM     18  C   UNL     1     141.922 123.985  99.159  0.00  0.00    +0.000 A 
ATOM     19  C   UNL     1     144.800 126.183 104.974  0.00  0.00    +0.000 C 
ATOM     20  C   UNL     1     142.415 122.407  97.076  0.00  0.00    +0.000 A 
ATOM     21  C   UNL     1     141.511 124.856 100.293  0.00  0.00    +0.000 A 
ATOM     22  C   UNL     1     140.792 123.367  98.300  0.00  0.00    +0.000 A 
ENDROOT
BRANCH  15  23
ATOM     23  O   UNL     1     146.205 123.528  98.509  0.00  0.00    +0.000 OA
ATOM     24  C   UNL     1     146.804 124.385  97.571  0.00  0.00    +0.000 C 
ENDBRANCH  15  23
TORSDOF 1
ENDMDL
MODEL 2
REMARK VINA RESULT:      -7.6      1.628      3.844
REMARK  Name = AFLATOXIN.pdbqt.pdb
REMARK  1 active torsions:
REMARK  status: ('A' for Active; 'I' for Inactive)
REMARK    1  A    between atoms: C_15  and  O_23
REMARK                            x       y       z     vdW  Elec       q    Type
REMARK                         _______ _______ _______ _____ _____    ______ ____
ROOT
ATOM      1  O   UNL     1     143.016 127.333 103.483  0.00  0.00    +0.000 OA
ATOM      2  O   UNL     1     145.333 128.189 103.568  0.00  0.00    +0.000 OA
ATOM      3  O   UNL     1     144.321 124.312 100.115  0.00  0.00    +0.000 OA
ATOM      4  O   UNL     1     141.323 122.306  96.672  0.00  0.00    +0.000 OA
ATOM      5  O   UNL     1     145.082 122.750  98.681  0.00  0.00    +0.000 OA
ATOM      6  O   UNL     1     143.528 121.868  96.707  0.00  0.00    +0.000 OA
ATOM      7  C   UNL     1     144.790 126.178 102.493  0.00  0.00    +0.000 C 
ATOM      8  C   UNL     1     143.567 125.808 101.810  0.00  0.00    +0.000 A 
ATOM      9  C   UNL     1     144.398 127.136 103.556  0.00  0.00    +0.000 C 
ATOM     10  C   UNL     1     142.552 126.507 102.472  0.00  0.00    +0.000 A 
ATOM     11  C   UNL     1     143.271 124.997 100.730  0.00  0.00    +0.000 A 
ATOM     12  C   UNL     1     141.956 124.857 100.288  0.00  0.00    +0.000 A 
ATOM     13  C   UNL     1     145.998 126.679 101.942  0.00  0.00    +0.000 C 
ATOM     14  C   UNL     1     141.750 124.012  99.099  0.00  0.00    +0.000 A 
ATOM     15  C   UNL     1     140.939 125.546 101.008  0.00  0.00    +0.000 A 
ATOM     16  C   UNL     1     141.235 126.401 102.087  0.00  0.00    +0.000 A 
ATOM     17  C   UNL     1     140.481 123.882  98.489  0.00  0.00    +0.000 A 
ATOM     18  C   UNL     1     142.763 123.322  98.499  0.00  0.00    +0.000 A 
ATOM     19  C   UNL     1     146.101 127.662 102.615  0.00  0.00    +0.000 C 
ATOM     20  C   UNL     1     140.408 123.004  97.304  0.00  0.00    +0.000 A 
ATOM     21  C   UNL     1     144.132 123.412  99.074  0.00  0.00    +0.000 A 
ATOM     22  C   UNL     1     142.584 122.442  97.238  0.00  0.00    +0.000 A 
ENDROOT
BRANCH  15  23
ATOM     23  O   UNL     1     139.620 125.470 100.615  0.00  0.00    +0.000 OA
ATOM     24  C   UNL     1     138.849 124.806 101.584  0.00  0.00    +0.000 C 
ENDBRANCH  15  23
TORSDOF 1
ENDMDL
MODEL 3
REMARK VINA RESULT:      -7.2      2.854      4.531
REMARK  Name = AFLATOXIN.pdbqt.pdb
REMARK  1 active torsions:
REMARK  status: ('A' for Active; 'I' for Inactive)
REMARK    1  A    between atoms: C_15  and  O_23
REMARK                            x       y       z     vdW  Elec       q    Type
REMARK                         _______ _______ _______ _____ _____    ______ ____
ROOT
ATOM      1  O   UNL     1     146.865 125.762  96.751  0.00  0.00    +0.000 OA
ATOM      2  O   UNL     1     148.760 126.862  97.894  0.00  0.00    +0.000 OA
ATOM      3  O   UNL     1     143.976 127.412 100.084  0.00  0.00    +0.000 OA
ATOM      4  O   UNL     1     139.611 125.405 101.417  0.00  0.00    +0.000 OA
ATOM      5  O   UNL     1     142.640 128.431 101.584  0.00  0.00    +0.000 OA
ATOM      6  O   UNL     1     140.430 127.226 102.451  0.00  0.00    +0.000 OA
ATOM      7  C   UNL     1     146.531 127.382  98.402  0.00  0.00    +0.000 C 
ATOM      8  C   UNL     1     145.361 126.529  98.357  0.00  0.00    +0.000 A 
ATOM      9  C   UNL     1     147.458 126.872  97.361  0.00  0.00    +0.000 C 
ATOM     10  C   UNL     1     145.616 125.612  97.332  0.00  0.00    +0.000 A 
ATOM     11  C   UNL     1     144.186 126.462  99.081  0.00  0.00    +0.000 A 
ATOM     12  C   UNL     1     143.233 125.484  98.799  0.00  0.00    +0.000 A 
ATOM     13  C   UNL     1     147.344 127.716  99.517  0.00  0.00    +0.000 C 
ATOM     14  C   UNL     1     142.038 125.463  99.660  0.00  0.00    +0.000 A 
ATOM     15  C   UNL     1     143.501 124.590  97.723  0.00  0.00    +0.000 A 
ATOM     16  C   UNL     1     144.710 124.630  97.002  0.00  0.00    +0.000 A 
ATOM     17  C   UNL     1     141.056 124.453  99.547  0.00  0.00    +0.000 A 
ATOM     18  C   UNL     1     141.811 126.396 100.631  0.00  0.00    +0.000 A 
ATOM     19  C   UNL     1     148.403 127.400  99.061  0.00  0.00    +0.000 C 
ATOM     20  C   UNL     1     139.906 124.547 100.469  0.00  0.00    +0.000 A 
ATOM     21  C   UNL     1     142.802 127.489 100.821  0.00  0.00    +0.000 A 
ATOM     22  C   UNL     1     140.577 126.391 101.566  0.00  0.00    +0.000 A 
ENDROOT
BRANCH  15  23
ATOM     23  O   UNL     1     142.614 123.586  97.401  0.00  0.00    +0.000 OA
ATOM     24  C   UNL     1     143.253 122.334  97.413  0.00  0.00    +0.000 C 
ENDBRANCH  15  23
TORSDOF 1
ENDMDL
MODEL 4
REMARK VINA RESULT:      -7.0      3.151      5.972
REMARK  Name = AFLATOXIN.pdbqt.pdb
REMARK  1 active torsions:
REMARK  status: ('A' for Active; 'I' for Inactive)
REMARK    1  A    between atoms: C_15  and  O_23
REMARK                            x       y       z     vdW  Elec       q    Type
REMARK                         _______ _______ _______ _____ _____    ______ ____
ROOT
ATOM      1  O   UNL     1     139.973 123.561  98.522  0.00  0.00    +0.000 OA
ATOM      2  O   UNL     1     138.777 124.240 100.575  0.00  0.00    +0.000 OA
ATOM      3  O   UNL     1     143.434 126.561  99.620  0.00  0.00    +0.000 OA
ATOM      4  O   UNL     1     146.589 128.683  96.394  0.00  0.00    +0.000 OA
ATOM      5  O   UNL     1     145.141 127.842 100.339  0.00  0.00    +0.000 OA
ATOM      6  O   UNL     1     146.667 129.151  98.593  0.00  0.00    +0.000 OA
ATOM      7  C   UNL     1     141.036 124.760 100.224  0.00  0.00    +0.000 C 
ATOM      8  C   UNL     1     141.731 125.022  98.980  0.00  0.00    +0.000 A 
ATOM      9  C   UNL     1     139.936 123.820  99.896  0.00  0.00    +0.000 C 
ATOM     10  C   UNL     1     141.065 124.251  98.020  0.00  0.00    +0.000 A 
ATOM     11  C   UNL     1     142.797 125.824  98.619  0.00  0.00    +0.000 A 
ATOM     12  C   UNL     1     143.231 125.874  97.295  0.00  0.00    +0.000 A 
ATOM     13  C   UNL     1     140.492 125.688 101.149  0.00  0.00    +0.000 C 
ATOM     14  C   UNL     1     144.341 126.797  97.002  0.00  0.00    +0.000 A 
ATOM     15  C   UNL     1     142.562 125.047  96.348  0.00  0.00    +0.000 A 
ATOM     16  C   UNL     1     141.454 124.253  96.700  0.00  0.00    +0.000 A 
ATOM     17  C   UNL     1     144.796 127.020  95.682  0.00  0.00    +0.000 A 
ATOM     18  C   UNL     1     144.985 127.509  97.972  0.00  0.00    +0.000 A 
ATOM     19  C   UNL     1     139.380 125.252 101.200  0.00  0.00    +0.000 C 
ATOM     20  C   UNL     1     145.916 127.968  95.524  0.00  0.00    +0.000 A 
ATOM     21  C   UNL     1     144.561 127.338  99.388  0.00  0.00    +0.000 A 
ATOM     22  C   UNL     1     146.140 128.502  97.697  0.00  0.00    +0.000 A 
ENDROOT
BRANCH  15  23
ATOM     23  O   UNL     1     142.924 125.060  95.018  0.00  0.00    +0.000 OA
ATOM     24  C   UNL     1     141.836 125.430  94.209  0.00  0.00    +0.000 C 
ENDBRANCH  15  23
TORSDOF 1
ENDMDL
MODEL 5
REMARK VINA RESULT:      -6.8      3.487      6.432
REMARK  Name = AFLATOXIN.pdbqt.pdb
REMARK  1 active torsions:
REMARK  status: ('A' for Active; 'I' for Inactive)
REMARK    1  A    between atoms: C_15  and  O_23
REMARK                            x       y       z     vdW  Elec       q    Type
REMARK                         _______ _______ _______ _____ _____    ______ ____
ROOT
ATOM      1  O   UNL     1     144.901 127.966  95.565  0.00  0.00    +0.000 OA
ATOM      2  O   UNL     1     142.584 128.207  94.740  0.00  0.00    +0.000 OA
ATOM      3  O   UNL     1     143.207 126.750  99.787  0.00  0.00    +0.000 OA
ATOM      4  O   UNL     1     145.575 127.273 104.144  0.00  0.00    +0.000 OA
ATOM      5  O   UNL     1     142.313 125.955 101.696  0.00  0.00    +0.000 OA
ATOM      6  O   UNL     1     143.483 126.453 104.036  0.00  0.00    +0.000 OA
ATOM      7  C   UNL     1     143.079 127.110  96.752  0.00  0.00    +0.000 C 
ATOM      8  C   UNL     1     144.157 127.360  97.689  0.00  0.00    +0.000 A 
ATOM      9  C   UNL     1     143.594 127.494  95.415  0.00  0.00    +0.000 C 
ATOM     10  C   UNL     1     145.216 127.835  96.909  0.00  0.00    +0.000 A 
ATOM     11  C   UNL     1     144.292 127.243  99.059  0.00  0.00    +0.000 A 
ATOM     12  C   UNL     1     145.487 127.592  99.686  0.00  0.00    +0.000 A 
ATOM     13  C   UNL     1     141.737 127.568  96.800  0.00  0.00    +0.000 C 
ATOM     14  C   UNL     1     145.515 127.481 101.155  0.00  0.00    +0.000 A 
ATOM     15  C   UNL     1     146.562 128.033  98.863  0.00  0.00    +0.000 A 
ATOM     16  C   UNL     1     146.422 128.187  97.470  0.00  0.00    +0.000 A 
ATOM     17  C   UNL     1     146.628 127.910 101.913  0.00  0.00    +0.000 A 
ATOM     18  C   UNL     1     144.469 126.983 101.878  0.00  0.00    +0.000 A 
ATOM     19  C   UNL     1     141.684 128.065  95.714  0.00  0.00    +0.000 C 
ATOM     20  C   UNL     1     146.530 127.743 103.377  0.00  0.00    +0.000 A 
ATOM     21  C   UNL     1     143.255 126.517 101.156  0.00  0.00    +0.000 A 
ATOM     22  C   UNL     1     144.458 126.872 103.422  0.00  0.00    +0.000 A 
ENDROOT
BRANCH  15  23
ATOM     23  O   UNL     1     147.766 128.413  99.416  0.00  0.00    +0.000 OA
ATOM     24  C   UNL     1     148.819 127.645  98.892  0.00  0.00    +0.000 C 
ENDBRANCH  15  23
TORSDOF 1
ENDMDL
MODEL 6
REMARK VINA RESULT:      -6.8      2.528      3.703
REMARK  Name = AFLATOXIN.pdbqt.pdb
REMARK  1 active torsions:
REMARK  status: ('A' for Active; 'I' for Inactive)
REMARK    1  A    between atoms: C_15  and  O_23
REMARK                            x       y       z     vdW  Elec       q    Type
REMARK                         _______ _______ _______ _____ _____    ______ ____
ROOT
ATOM      1  O   UNL     1     143.578 128.386 102.813  0.00  0.00    +0.000 OA
ATOM      2  O   UNL     1     145.657 127.739 103.982  0.00  0.00    +0.000 OA
ATOM      3  O   UNL     1     144.078 124.653  99.987  0.00  0.00    +0.000 OA
ATOM      4  O   UNL     1     142.223 124.211  95.379  0.00  0.00    +0.000 OA
ATOM      5  O   UNL     1     144.270 122.724  98.838  0.00  0.00    +0.000 OA
ATOM      6  O   UNL     1     143.480 122.589  96.299  0.00  0.00    +0.000 OA
ATOM      7  C   UNL     1     144.531 126.269 102.543  0.00  0.00    +0.000 C 
ATOM      8  C   UNL     1     143.744 126.568 101.364  0.00  0.00    +0.000 A 
ATOM      9  C   UNL     1     144.391 127.440 103.445  0.00  0.00    +0.000 C 
ATOM     10  C   UNL     1     143.182 127.825 101.609  0.00  0.00    +0.000 A 
ATOM     11  C   UNL     1     143.502 125.912 100.172  0.00  0.00    +0.000 A 
ATOM     12  C   UNL     1     142.689 126.488  99.198  0.00  0.00    +0.000 A 
ATOM     13  C   UNL     1     145.892 125.875 102.627  0.00  0.00    +0.000 C 
ATOM     14  C   UNL     1     142.533 125.733  97.942  0.00  0.00    +0.000 A 
ATOM     15  C   UNL     1     142.096 127.749  99.491  0.00  0.00    +0.000 A 
ATOM     16  C   UNL     1     142.364 128.440 100.688  0.00  0.00    +0.000 A 
ATOM     17  C   UNL     1     141.827 126.262  96.838  0.00  0.00    +0.000 A 
ATOM     18  C   UNL     1     143.074 124.494  97.753  0.00  0.00    +0.000 A 
ATOM     19  C   UNL     1     146.269 126.711 103.392  0.00  0.00    +0.000 C 
ATOM     20  C   UNL     1     141.743 125.404  95.638  0.00  0.00    +0.000 A 
ATOM     21  C   UNL     1     143.841 123.869  98.865  0.00  0.00    +0.000 A 
ATOM     22  C   UNL     1     142.947 123.683  96.440  0.00  0.00    +0.000 A 
ENDROOT
BRANCH  15  23
ATOM     23  O   UNL     1     141.297 128.387  98.567  0.00  0.00    +0.000 OA
ATOM     24  C   UNL     1     141.705 129.720  98.392  0.00  0.00    +0.000 C 
ENDBRANCH  15  23
TORSDOF 1
ENDMDL
MODEL 7
REMARK VINA RESULT:      -6.7      3.021      4.211
REMARK  Name = AFLATOXIN.pdbqt.pdb
REMARK  1 active torsions:
REMARK  status: ('A' for Active; 'I' for Inactive)
REMARK    1  A    between atoms: C_15  and  O_23
REMARK                            x       y       z     vdW  Elec       q    Type
REMARK                         _______ _______ _______ _____ _____    ______ ____
ROOT
ATOM      1  O   UNL     1     141.930 128.379 101.212  0.00  0.00    +0.000 OA
ATOM      2  O   UNL     1     142.961 127.569 103.306  0.00  0.00    +0.000 OA
ATOM      3  O   UNL     1     142.818 124.200  99.231  0.00  0.00    +0.000 OA
ATOM      4  O   UNL     1     143.373 123.343  94.350  0.00  0.00    +0.000 OA
ATOM      5  O   UNL     1     143.070 122.105  98.442  0.00  0.00    +0.000 OA
ATOM      6  O   UNL     1     143.598 121.695  95.864  0.00  0.00    +0.000 OA
ATOM      7  C   UNL     1     142.355 126.110 101.575  0.00  0.00    +0.000 C 
ATOM      8  C   UNL     1     142.332 126.346 100.146  0.00  0.00    +0.000 A 
ATOM      9  C   UNL     1     142.082 127.419 102.217  0.00  0.00    +0.000 C 
ATOM     10  C   UNL     1     142.042 127.707 100.005  0.00  0.00    +0.000 A 
ATOM     11  C   UNL     1     142.546 125.556  99.032  0.00  0.00    +0.000 A 
ATOM     12  C   UNL     1     142.469 126.100  97.751  0.00  0.00    +0.000 A 
ATOM     13  C   UNL     1     143.366 125.495 102.358  0.00  0.00    +0.000 C 
ATOM     14  C   UNL     1     142.763 125.188  96.632  0.00  0.00    +0.000 A 
ATOM     15  C   UNL     1     142.130 127.478  97.636  0.00  0.00    +0.000 A 
ATOM     16  C   UNL     1     141.945 128.298  98.766  0.00  0.00    +0.000 A 
ATOM     17  C   UNL     1     142.827 125.645  95.296  0.00  0.00    +0.000 A 
ATOM     18  C   UNL     1     143.012 123.857  96.809  0.00  0.00    +0.000 A 
ATOM     19  C   UNL     1     143.515 126.365 103.164  0.00  0.00    +0.000 C 
ATOM     20  C   UNL     1     143.129 124.629  94.267  0.00  0.00    +0.000 A 
ATOM     21  C   UNL     1     142.971 123.297  98.187  0.00  0.00    +0.000 A 
ATOM     22  C   UNL     1     143.343 122.876  95.658  0.00  0.00    +0.000 A 
ENDROOT
BRANCH  15  23
ATOM     23  O   UNL     1     142.057 128.088  96.402  0.00  0.00    +0.000 OA
ATOM     24  C   UNL     1     140.823 128.741  96.242  0.00  0.00    +0.000 C 
ENDBRANCH  15  23
TORSDOF 1
ENDMDL
MODEL 8
REMARK VINA RESULT:      -6.7      2.975      7.034
REMARK  Name = AFLATOXIN.pdbqt.pdb
REMARK  1 active torsions:
REMARK  status: ('A' for Active; 'I' for Inactive)
REMARK    1  A    between atoms: C_15  and  O_23
REMARK                            x       y       z     vdW  Elec       q    Type
REMARK                         _______ _______ _______ _____ _____    ______ ____
ROOT
ATOM      1  O   UNL     1     143.112 121.758  97.526  0.00  0.00    +0.000 OA
ATOM      2  O   UNL     1     143.268 121.075  95.156  0.00  0.00    +0.000 OA
ATOM      3  O   UNL     1     144.962 125.934  96.380  0.00  0.00    +0.000 OA
ATOM      4  O   UNL     1     147.469 128.958  99.451  0.00  0.00    +0.000 OA
ATOM      5  O   UNL     1     145.631 127.977  95.706  0.00  0.00    +0.000 OA
ATOM      6  O   UNL     1     147.168 129.475  97.283  0.00  0.00    +0.000 OA
ATOM      7  C   UNL     1     143.490 123.312  95.821  0.00  0.00    +0.000 C 
ATOM      8  C   UNL     1     144.026 123.850  97.055  0.00  0.00    +0.000 A 
ATOM      9  C   UNL     1     142.907 121.991  96.162  0.00  0.00    +0.000 C 
ATOM     10  C   UNL     1     143.737 122.888  98.029  0.00  0.00    +0.000 A 
ATOM     11  C   UNL     1     144.712 125.002  97.389  0.00  0.00    +0.000 A 
ATOM     12  C   UNL     1     145.122 125.228  98.702  0.00  0.00    +0.000 A 
ATOM     13  C   UNL     1     144.139 123.140  94.571  0.00  0.00    +0.000 C 
ATOM     14  C   UNL     1     145.891 126.461  98.947  0.00  0.00    +0.000 A 
ATOM     15  C   UNL     1     144.776 124.253  99.681  0.00  0.00    +0.000 A 
ATOM     16  C   UNL     1     144.108 123.061  99.343  0.00  0.00    +0.000 A 
ATOM     17  C   UNL     1     146.457 126.747 100.211  0.00  0.00    +0.000 A 
ATOM     18  C   UNL     1     146.126 127.390  97.975  0.00  0.00    +0.000 A 
ATOM     19  C   UNL     1     143.902 121.980  94.410  0.00  0.00    +0.000 C 
ATOM     20  C   UNL     1     147.203 128.016 100.325  0.00  0.00    +0.000 A 
ATOM     21  C   UNL     1     145.572 127.160  96.613  0.00  0.00    +0.000 A 
ATOM     22  C   UNL     1     146.947 128.684  98.193  0.00  0.00    +0.000 A 
ENDROOT
BRANCH  15  23
ATOM     23  O   UNL     1     145.166 124.401 100.994  0.00  0.00    +0.000 OA
ATOM     24  C   UNL     1     144.046 124.467 101.841  0.00  0.00    +0.000 C 
ENDBRANCH  15  23
TORSDOF 1
ENDMDL
MODEL 9
REMARK VINA RESULT:      -6.6      4.210      4.546
REMARK  Name = AFLATOXIN.pdbqt.pdb
REMARK  1 active torsions:
REMARK  status: ('A' for Active; 'I' for Inactive)
REMARK    1  A    between atoms: C_15  and  O_23
REMARK                            x       y       z     vdW  Elec       q    Type
REMARK                         _______ _______ _______ _____ _____    ______ ____
ROOT
ATOM      1  O   UNL     1     144.335 127.362 102.121  0.00  0.00    +0.000 OA
ATOM      2  O   UNL     1     142.253 126.868 103.357  0.00  0.00    +0.000 OA
ATOM      3  O   UNL     1     141.769 128.256  98.275  0.00  0.00    +0.000 OA
ATOM      4  O   UNL     1     143.355 127.904  93.561  0.00  0.00    +0.000 OA
ATOM      5  O   UNL     1     140.454 128.886  96.558  0.00  0.00    +0.000 OA
ATOM      6  O   UNL     1     141.234 128.470  94.046  0.00  0.00    +0.000 OA
ATOM      7  C   UNL     1     142.238 127.963 101.284  0.00  0.00    +0.000 C 
ATOM      8  C   UNL     1     143.150 127.819 100.167  0.00  0.00    +0.000 A 
ATOM      9  C   UNL     1     143.029 127.678 102.506  0.00  0.00    +0.000 C 
ATOM     10  C   UNL     1     144.383 127.494 100.742  0.00  0.00    +0.000 A 
ATOM     11  C   UNL     1     143.020 127.914  98.795  0.00  0.00    +0.000 A 
ATOM     12  C   UNL     1     144.115 127.694  97.961  0.00  0.00    +0.000 A 
ATOM     13  C   UNL     1     140.975 127.347 101.484  0.00  0.00    +0.000 C 
ATOM     14  C   UNL     1     143.863 127.768  96.511  0.00  0.00    +0.000 A 
ATOM     15  C   UNL     1     145.367 127.407  98.576  0.00  0.00    +0.000 A 
ATOM     16  C   UNL     1     145.502 127.274  99.971  0.00  0.00    +0.000 A 
ATOM     17  C   UNL     1     144.865 127.456  95.564  0.00  0.00    +0.000 A 
ATOM     18  C   UNL     1     142.651 128.119  95.990  0.00  0.00    +0.000 A 
ATOM     19  C   UNL     1     141.181 126.876 102.564  0.00  0.00    +0.000 C 
ATOM     20  C   UNL     1     144.484 127.571  94.142  0.00  0.00    +0.000 A 
ATOM     21  C   UNL     1     141.540 128.456  96.920  0.00  0.00    +0.000 A 
ATOM     22  C   UNL     1     142.347 128.187  94.473  0.00  0.00    +0.000 A 
ENDROOT
BRANCH  15  23
ATOM     23  O   UNL     1     146.489 127.159  97.814  0.00  0.00    +0.000 OA
ATOM     24  C   UNL     1     147.644 127.154  98.614  0.00  0.00    +0.000 C 
ENDBRANCH  15  23
TORSDOF 1
ENDMDL
