MODEL 1
REMARK VINA RESULT:      -7.8      0.000      0.000
REMARK  Name = AZD4547.pdbqt.pdb
REMARK  6 active torsions:
REMARK  status: ('A' for Active; 'I' for Inactive)
REMARK    1  A    between atoms: C_3  and  C_23
REMARK    2  A    between atoms: C_8  and  C_11
REMARK    3  A    between atoms: C_12  and  C_13
REMARK    4  A    between atoms: C_15  and  O_19
REMARK    5  A    between atoms: C_17  and  O_21
REMARK    6  A    between atoms: C_26  and  N_29
REMARK                            x       y       z     vdW  Elec       q    Type
REMARK                         _______ _______ _______ _____ _____    ______ ____
ROOT
ATOM      1  O   UNL     1     136.375 126.418 142.531  0.00  0.00    +0.000 OA
ATOM      2  N   UNL     1     135.921 124.340 143.446  0.00  0.00    +0.000 N 
ATOM      3  C   UNL     1     136.234 125.680 143.500  0.00  0.00    +0.000 C 
ATOM      4  H   UNL     1     135.818 123.771 144.272  0.00  0.00    +0.000 HD
ATOM      5  C   UNL     1     135.713 123.637 142.284  0.00  0.00    +0.000 A 
ATOM      6  N   UNL     1     135.415 122.335 142.363  0.00  0.00    +0.000 NA
ATOM      7  N   UNL     1     135.278 121.962 141.077  0.00  0.00    +0.000 N 
ATOM      8  C   UNL     1     135.476 122.975 140.188  0.00  0.00    +0.000 A 
ATOM      9  H   UNL     1     135.047 120.995 140.875  0.00  0.00    +0.000 HD
ATOM     10  C   UNL     1     135.763 124.086 140.941  0.00  0.00    +0.000 A 
ENDROOT
BRANCH   3  11
ATOM     11  C   UNL     1     136.415 126.250 144.858  0.00  0.00    +0.000 A 
ATOM     12  C   UNL     1     135.850 125.580 145.942  0.00  0.00    +0.000 A 
ATOM     13  C   UNL     1     135.998 126.086 147.231  0.00  0.00    +0.000 A 
ATOM     14  C   UNL     1     136.698 127.277 147.467  0.00  0.00    +0.000 A 
ATOM     15  C   UNL     1     137.275 127.927 146.367  0.00  0.00    +0.000 A 
ATOM     16  C   UNL     1     137.130 127.426 145.074  0.00  0.00    +0.000 A 
BRANCH  14  17
ATOM     17  N   UNL     1     136.886 127.766 148.781  0.00  0.00    +0.000 N 
ATOM     18  C   UNL     1     136.802 129.219 149.007  0.00  0.00    +0.000 C 
ATOM     19  C   UNL     1     137.624 130.200 149.635  0.00  0.00    +0.000 C 
ATOM     20  N   UNL     1     138.847 129.736 150.209  0.00  0.00    +0.000 N 
ATOM     21  C   UNL     1     137.268 131.643 149.676  0.00  0.00    +0.000 C 
ATOM     22  C   UNL     1     139.146 128.344 150.107  0.00  0.00    +0.000 C 
ATOM     23  H   UNL     1     139.490 130.376 150.649  0.00  0.00    +0.000 HD
ATOM     24  C   UNL     1     138.184 127.532 149.436  0.00  0.00    +0.000 C 
ATOM     25  C   UNL     1     140.421 127.799 150.642  0.00  0.00    +0.000 C 
ENDBRANCH  14  17
ENDBRANCH   3  11
BRANCH   8  26
ATOM     26  C   UNL     1     135.390 122.857 138.780  0.00  0.00    +0.000 C 
ATOM     27  C   UNL     1     135.302 122.730 137.255  0.00  0.00    +0.000 C 
BRANCH  27  28
ATOM     28  C   UNL     1     135.228 122.614 135.837  0.00  0.00    +0.000 A 
ATOM     29  C   UNL     1     136.027 123.423 135.033  0.00  0.00    +0.000 A 
ATOM     30  C   UNL     1     135.963 123.310 133.642  0.00  0.00    +0.000 A 
ATOM     31  C   UNL     1     135.094 122.378 133.070  0.00  0.00    +0.000 A 
ATOM     32  C   UNL     1     134.288 121.569 133.872  0.00  0.00    +0.000 A 
ATOM     33  C   UNL     1     134.361 121.691 135.261  0.00  0.00    +0.000 A 
BRANCH  30  34
ATOM     34  O   UNL     1     136.708 124.049 132.757  0.00  0.00    +0.000 OA
ATOM     35  C   UNL     1     137.844 124.664 133.295  0.00  0.00    +0.000 C 
ENDBRANCH  30  34
BRANCH  32  36
ATOM     36  O   UNL     1     133.475 120.690 133.201  0.00  0.00    +0.000 OA
ATOM     37  C   UNL     1     133.770 120.514 131.842  0.00  0.00    +0.000 C 
ENDBRANCH  32  36
ENDBRANCH  27  28
ENDBRANCH   8  26
TORSDOF 6
ENDMDL
MODEL 2
REMARK VINA RESULT:      -7.7      0.525      2.105
REMARK  Name = AZD4547.pdbqt.pdb
REMARK  6 active torsions:
REMARK  status: ('A' for Active; 'I' for Inactive)
REMARK    1  A    between atoms: C_3  and  C_23
REMARK    2  A    between atoms: C_8  and  C_11
REMARK    3  A    between atoms: C_12  and  C_13
REMARK    4  A    between atoms: C_15  and  O_19
REMARK    5  A    between atoms: C_17  and  O_21
REMARK    6  A    between atoms: C_26  and  N_29
REMARK                            x       y       z     vdW  Elec       q    Type
REMARK                         _______ _______ _______ _____ _____    ______ ____
ROOT
ATOM      1  O   UNL     1     136.392 126.207 142.360  0.00  0.00    +0.000 OA
ATOM      2  N   UNL     1     135.946 124.112 143.240  0.00  0.00    +0.000 N 
ATOM      3  C   UNL     1     136.252 125.452 143.317  0.00  0.00    +0.000 C 
ATOM      4  H   UNL     1     135.844 123.529 144.057  0.00  0.00    +0.000 HD
ATOM      5  C   UNL     1     135.747 123.426 142.066  0.00  0.00    +0.000 A 
ATOM      6  N   UNL     1     135.456 122.122 142.123  0.00  0.00    +0.000 NA
ATOM      7  N   UNL     1     135.326 121.769 140.831  0.00  0.00    +0.000 N 
ATOM      8  C   UNL     1     135.522 122.797 139.958  0.00  0.00    +0.000 A 
ATOM      9  H   UNL     1     135.101 120.804 140.612  0.00  0.00    +0.000 HD
ATOM     10  C   UNL     1     135.800 123.897 140.731  0.00  0.00    +0.000 A 
ENDROOT
BRANCH   3  11
ATOM     11  C   UNL     1     136.424 126.002 144.685  0.00  0.00    +0.000 A 
ATOM     12  C   UNL     1     135.884 125.295 145.759  0.00  0.00    +0.000 A 
ATOM     13  C   UNL     1     136.026 125.781 147.057  0.00  0.00    +0.000 A 
ATOM     14  C   UNL     1     136.693 126.986 147.311  0.00  0.00    +0.000 A 
ATOM     15  C   UNL     1     137.245 127.673 146.221  0.00  0.00    +0.000 A 
ATOM     16  C   UNL     1     137.108 127.193 144.919  0.00  0.00    +0.000 A 
BRANCH  14  17
ATOM     17  N   UNL     1     136.875 127.455 148.634  0.00  0.00    +0.000 N 
ATOM     18  C   UNL     1     136.794 128.905 148.880  0.00  0.00    +0.000 C 
ATOM     19  C   UNL     1     137.615 129.875 149.528  0.00  0.00    +0.000 C 
ATOM     20  N   UNL     1     138.833 129.399 150.101  0.00  0.00    +0.000 N 
ATOM     21  C   UNL     1     137.262 131.318 149.587  0.00  0.00    +0.000 C 
ATOM     22  C   UNL     1     139.128 128.008 149.981  0.00  0.00    +0.000 C 
ATOM     23  H   UNL     1     139.475 130.031 150.555  0.00  0.00    +0.000 HD
ATOM     24  C   UNL     1     138.169 127.208 149.293  0.00  0.00    +0.000 C 
ATOM     25  C   UNL     1     140.399 127.452 150.515  0.00  0.00    +0.000 C 
ENDBRANCH  14  17
ENDBRANCH   3  11
BRANCH   8  26
ATOM     26  C   UNL     1     135.442 122.701 138.549  0.00  0.00    +0.000 C 
ATOM     27  C   UNL     1     135.360 122.597 137.022  0.00  0.00    +0.000 C 
BRANCH  27  28
ATOM     28  C   UNL     1     135.293 122.502 135.602  0.00  0.00    +0.000 A 
ATOM     29  C   UNL     1     134.420 121.595 135.008  0.00  0.00    +0.000 A 
ATOM     30  C   UNL     1     134.347 121.501 133.616  0.00  0.00    +0.000 A 
ATOM     31  C   UNL     1     135.153 122.327 132.830  0.00  0.00    +0.000 A 
ATOM     32  C   UNL     1     136.034 123.234 133.422  0.00  0.00    +0.000 A 
ATOM     33  C   UNL     1     136.098 123.319 134.814  0.00  0.00    +0.000 A 
BRANCH  30  34
ATOM     34  O   UNL     1     133.518 120.650 132.927  0.00  0.00    +0.000 OA
ATOM     35  C   UNL     1     132.829 119.717 133.710  0.00  0.00    +0.000 C 
ENDBRANCH  30  34
BRANCH  32  36
ATOM     36  O   UNL     1     136.776 123.995 132.552  0.00  0.00    +0.000 OA
ATOM     37  C   UNL     1     138.161 123.788 132.603  0.00  0.00    +0.000 C 
ENDBRANCH  32  36
ENDBRANCH  27  28
ENDBRANCH   8  26
TORSDOF 6
ENDMDL
MODEL 3
REMARK VINA RESULT:      -7.0     29.314     32.391
REMARK  Name = AZD4547.pdbqt.pdb
REMARK  6 active torsions:
REMARK  status: ('A' for Active; 'I' for Inactive)
REMARK    1  A    between atoms: C_3  and  C_23
REMARK    2  A    between atoms: C_8  and  C_11
REMARK    3  A    between atoms: C_12  and  C_13
REMARK    4  A    between atoms: C_15  and  O_19
REMARK    5  A    between atoms: C_17  and  O_21
REMARK    6  A    between atoms: C_26  and  N_29
REMARK                            x       y       z     vdW  Elec       q    Type
REMARK                         _______ _______ _______ _____ _____    ______ ____
ROOT
ATOM      1  O   UNL     1     139.880 115.093 113.972  0.00  0.00    +0.000 OA
ATOM      2  N   UNL     1     140.033 116.770 112.383  0.00  0.00    +0.000 N 
ATOM      3  C   UNL     1     139.368 115.969 113.284  0.00  0.00    +0.000 C 
ATOM      4  H   UNL     1     139.567 117.478 111.835  0.00  0.00    +0.000 HD
ATOM      5  C   UNL     1     141.382 116.702 112.130  0.00  0.00    +0.000 A 
ATOM      6  N   UNL     1     141.912 117.535 111.229  0.00  0.00    +0.000 NA
ATOM      7  N   UNL     1     143.218 117.211 111.225  0.00  0.00    +0.000 N 
ATOM      8  C   UNL     1     143.537 116.207 112.091  0.00  0.00    +0.000 A 
ATOM      9  H   UNL     1     143.842 117.717 110.606  0.00  0.00    +0.000 HD
ATOM     10  C   UNL     1     142.359 115.849 112.699  0.00  0.00    +0.000 A 
ENDROOT
BRANCH   3  11
ATOM     11  C   UNL     1     137.908 116.207 113.410  0.00  0.00    +0.000 A 
ATOM     12  C   UNL     1     137.456 117.051 114.423  0.00  0.00    +0.000 A 
ATOM     13  C   UNL     1     136.093 117.297 114.572  0.00  0.00    +0.000 A 
ATOM     14  C   UNL     1     135.151 116.698 113.726  0.00  0.00    +0.000 A 
ATOM     15  C   UNL     1     135.625 115.867 112.701  0.00  0.00    +0.000 A 
ATOM     16  C   UNL     1     136.988 115.616 112.546  0.00  0.00    +0.000 A 
BRANCH  14  17
ATOM     17  N   UNL     1     133.771 116.984 113.850  0.00  0.00    +0.000 N 
ATOM     18  C   UNL     1     132.923 116.881 112.649  0.00  0.00    +0.000 C 
ATOM     19  C   UNL     1     131.982 117.728 111.993  0.00  0.00    +0.000 C 
ATOM     20  N   UNL     1     131.752 119.007 112.586  0.00  0.00    +0.000 N 
ATOM     21  C   UNL     1     131.287 117.339 110.738  0.00  0.00    +0.000 C 
ATOM     22  C   UNL     1     132.476 119.332 113.772  0.00  0.00    +0.000 C 
ATOM     23  H   UNL     1     131.118 119.668 112.165  0.00  0.00    +0.000 HD
ATOM     24  C   UNL     1     133.372 118.339 114.267  0.00  0.00    +0.000 C 
ATOM     25  C   UNL     1     132.319 120.663 114.417  0.00  0.00    +0.000 C 
ENDBRANCH  14  17
ENDBRANCH   3  11
BRANCH   8  26
ATOM     26  C   UNL     1     144.834 115.676 112.287  0.00  0.00    +0.000 C 
ATOM     27  C   UNL     1     146.240 115.105 112.498  0.00  0.00    +0.000 C 
BRANCH  27  28
ATOM     28  C   UNL     1     147.551 114.583 112.692  0.00  0.00    +0.000 A 
ATOM     29  C   UNL     1     148.074 114.479 113.978  0.00  0.00    +0.000 A 
ATOM     30  C   UNL     1     149.357 113.963 114.175  0.00  0.00    +0.000 A 
ATOM     31  C   UNL     1     150.105 113.549 113.070  0.00  0.00    +0.000 A 
ATOM     32  C   UNL     1     149.587 113.656 111.779  0.00  0.00    +0.000 A 
ATOM     33  C   UNL     1     148.303 114.174 111.595  0.00  0.00    +0.000 A 
BRANCH  30  34
ATOM     34  O   UNL     1     149.965 113.810 115.396  0.00  0.00    +0.000 OA
ATOM     35  C   UNL     1     149.621 112.649 116.098  0.00  0.00    +0.000 C 
ENDBRANCH  30  34
BRANCH  32  36
ATOM     36  O   UNL     1     150.411 113.218 110.771  0.00  0.00    +0.000 OA
ATOM     37  C   UNL     1     151.715 113.731 110.794  0.00  0.00    +0.000 C 
ENDBRANCH  32  36
ENDBRANCH  27  28
ENDBRANCH   8  26
TORSDOF 6
ENDMDL
MODEL 4
REMARK VINA RESULT:      -7.0      3.668     14.036
REMARK  Name = AZD4547.pdbqt.pdb
REMARK  6 active torsions:
REMARK  status: ('A' for Active; 'I' for Inactive)
REMARK    1  A    between atoms: C_3  and  C_23
REMARK    2  A    between atoms: C_8  and  C_11
REMARK    3  A    between atoms: C_12  and  C_13
REMARK    4  A    between atoms: C_15  and  O_19
REMARK    5  A    between atoms: C_17  and  O_21
REMARK    6  A    between atoms: C_26  and  N_29
REMARK                            x       y       z     vdW  Elec       q    Type
REMARK                         _______ _______ _______ _____ _____    ______ ____
ROOT
ATOM      1  O   UNL     1     134.550 125.338 144.354  0.00  0.00    +0.000 OA
ATOM      2  N   UNL     1     136.549 125.950 143.358  0.00  0.00    +0.000 N 
ATOM      3  C   UNL     1     135.354 125.270 143.431  0.00  0.00    +0.000 C 
ATOM      4  H   UNL     1     137.181 125.860 142.578  0.00  0.00    +0.000 HD
ATOM      5  C   UNL     1     137.009 126.816 144.321  0.00  0.00    +0.000 A 
ATOM      6  N   UNL     1     138.189 127.417 144.137  0.00  0.00    +0.000 NA
ATOM      7  N   UNL     1     138.335 128.177 145.238  0.00  0.00    +0.000 N 
ATOM      8  C   UNL     1     137.293 128.083 146.111  0.00  0.00    +0.000 A 
ATOM      9  H   UNL     1     139.173 128.741 145.331  0.00  0.00    +0.000 HD
ATOM     10  C   UNL     1     136.407 127.200 145.545  0.00  0.00    +0.000 A 
ENDROOT
BRANCH   3  11
ATOM     11  C   UNL     1     135.041 124.385 142.281  0.00  0.00    +0.000 A 
ATOM     12  C   UNL     1     135.942 124.330 141.219  0.00  0.00    +0.000 A 
ATOM     13  C   UNL     1     135.680 123.510 140.123  0.00  0.00    +0.000 A 
ATOM     14  C   UNL     1     134.512 122.741 140.054  0.00  0.00    +0.000 A 
ATOM     15  C   UNL     1     133.626 122.795 141.140  0.00  0.00    +0.000 A 
ATOM     16  C   UNL     1     133.882 123.613 142.240  0.00  0.00    +0.000 A 
BRANCH  14  17
ATOM     17  N   UNL     1     134.270 121.876 138.961  0.00  0.00    +0.000 N 
ATOM     18  C   UNL     1     134.750 122.279 137.628  0.00  0.00    +0.000 C 
ATOM     19  C   UNL     1     134.172 122.394 136.330  0.00  0.00    +0.000 C 
ATOM     20  N   UNL     1     132.789 122.052 136.214  0.00  0.00    +0.000 N 
ATOM     21  C   UNL     1     134.935 122.874 135.148  0.00  0.00    +0.000 C 
ATOM     22  C   UNL     1     132.106 121.630 137.394  0.00  0.00    +0.000 C 
ATOM     23  H   UNL     1     132.308 122.131 135.332  0.00  0.00    +0.000 HD
ATOM     24  C   UNL     1     132.873 121.584 138.595  0.00  0.00    +0.000 C 
ATOM     25  C   UNL     1     130.656 121.302 137.355  0.00  0.00    +0.000 C 
ENDBRANCH  14  17
ENDBRANCH   3  11
BRANCH   8  26
ATOM     26  C   UNL     1     137.191 128.776 147.341  0.00  0.00    +0.000 C 
ATOM     27  C   UNL     1     137.084 129.528 148.672  0.00  0.00    +0.000 C 
BRANCH  27  28
ATOM     28  C   UNL     1     136.994 130.229 149.909  0.00  0.00    +0.000 A 
ATOM     29  C   UNL     1     137.343 131.575 149.971  0.00  0.00    +0.000 A 
ATOM     30  C   UNL     1     137.252 132.269 151.179  0.00  0.00    +0.000 A 
ATOM     31  C   UNL     1     136.804 131.600 152.321  0.00  0.00    +0.000 A 
ATOM     32  C   UNL     1     136.458 130.249 152.265  0.00  0.00    +0.000 A 
ATOM     33  C   UNL     1     136.554 129.566 151.051  0.00  0.00    +0.000 A 
BRANCH  30  34
ATOM     34  O   UNL     1     137.562 133.595 151.352  0.00  0.00    +0.000 OA
ATOM     35  C   UNL     1     138.588 134.084 150.535  0.00  0.00    +0.000 C 
ENDBRANCH  30  34
BRANCH  32  36
ATOM     36  O   UNL     1     136.032 129.696 153.447  0.00  0.00    +0.000 OA
ATOM     37  C   UNL     1     134.682 129.321 153.483  0.00  0.00    +0.000 C 
ENDBRANCH  32  36
ENDBRANCH  27  28
ENDBRANCH   8  26
TORSDOF 6
ENDMDL
MODEL 5
REMARK VINA RESULT:      -7.0      3.671     14.193
REMARK  Name = AZD4547.pdbqt.pdb
REMARK  6 active torsions:
REMARK  status: ('A' for Active; 'I' for Inactive)
REMARK    1  A    between atoms: C_3  and  C_23
REMARK    2  A    between atoms: C_8  and  C_11
REMARK    3  A    between atoms: C_12  and  C_13
REMARK    4  A    between atoms: C_15  and  O_19
REMARK    5  A    between atoms: C_17  and  O_21
REMARK    6  A    between atoms: C_26  and  N_29
REMARK                            x       y       z     vdW  Elec       q    Type
REMARK                         _______ _______ _______ _____ _____    ______ ____
ROOT
ATOM      1  O   UNL     1     134.562 125.346 144.375  0.00  0.00    +0.000 OA
ATOM      2  N   UNL     1     136.565 125.941 143.376  0.00  0.00    +0.000 N 
ATOM      3  C   UNL     1     135.365 125.270 143.451  0.00  0.00    +0.000 C 
ATOM      4  H   UNL     1     137.196 125.844 142.596  0.00  0.00    +0.000 HD
ATOM      5  C   UNL     1     137.032 126.806 144.337  0.00  0.00    +0.000 A 
ATOM      6  N   UNL     1     138.217 127.398 144.149  0.00  0.00    +0.000 NA
ATOM      7  N   UNL     1     138.369 128.160 145.248  0.00  0.00    +0.000 N 
ATOM      8  C   UNL     1     137.328 128.076 146.123  0.00  0.00    +0.000 A 
ATOM      9  H   UNL     1     139.212 128.717 145.339  0.00  0.00    +0.000 HD
ATOM     10  C   UNL     1     136.435 127.198 145.560  0.00  0.00    +0.000 A 
ENDROOT
BRANCH   3  11
ATOM     11  C   UNL     1     135.044 124.384 142.305  0.00  0.00    +0.000 A 
ATOM     12  C   UNL     1     135.934 124.335 141.232  0.00  0.00    +0.000 A 
ATOM     13  C   UNL     1     135.665 123.515 140.138  0.00  0.00    +0.000 A 
ATOM     14  C   UNL     1     134.500 122.739 140.082  0.00  0.00    +0.000 A 
ATOM     15  C   UNL     1     133.627 122.787 141.177  0.00  0.00    +0.000 A 
ATOM     16  C   UNL     1     133.890 123.605 142.276  0.00  0.00    +0.000 A 
BRANCH  14  17
ATOM     17  N   UNL     1     134.251 121.874 138.991  0.00  0.00    +0.000 N 
ATOM     18  C   UNL     1     134.725 122.276 137.655  0.00  0.00    +0.000 C 
ATOM     19  C   UNL     1     134.140 122.390 136.360  0.00  0.00    +0.000 C 
ATOM     20  N   UNL     1     132.757 122.050 136.252  0.00  0.00    +0.000 N 
ATOM     21  C   UNL     1     134.897 122.869 135.174  0.00  0.00    +0.000 C 
ATOM     22  C   UNL     1     132.079 121.629 137.435  0.00  0.00    +0.000 C 
ATOM     23  H   UNL     1     132.270 122.129 135.372  0.00  0.00    +0.000 HD
ATOM     24  C   UNL     1     132.852 121.584 138.633  0.00  0.00    +0.000 C 
ATOM     25  C   UNL     1     130.629 121.304 137.405  0.00  0.00    +0.000 C 
ENDBRANCH  14  17
ENDBRANCH   3  11
BRANCH   8  26
ATOM     26  C   UNL     1     137.232 128.773 147.351  0.00  0.00    +0.000 C 
ATOM     27  C   UNL     1     137.124 129.525 148.681  0.00  0.00    +0.000 C 
BRANCH  27  28
ATOM     28  C   UNL     1     137.017 130.220 149.921  0.00  0.00    +0.000 A 
ATOM     29  C   UNL     1     136.611 129.539 151.065  0.00  0.00    +0.000 A 
ATOM     30  C   UNL     1     136.509 130.213 152.284  0.00  0.00    +0.000 A 
ATOM     31  C   UNL     1     136.823 131.573 152.342  0.00  0.00    +0.000 A 
ATOM     32  C   UNL     1     137.225 132.261 151.197  0.00  0.00    +0.000 A 
ATOM     33  C   UNL     1     137.323 131.576 149.984  0.00  0.00    +0.000 A 
BRANCH  30  34
ATOM     34  O   UNL     1     136.127 129.640 153.472  0.00  0.00    +0.000 OA
ATOM     35  C   UNL     1     135.101 130.301 154.156  0.00  0.00    +0.000 C 
ENDBRANCH  30  34
BRANCH  32  36
ATOM     36  O   UNL     1     137.508 133.593 151.373  0.00  0.00    +0.000 OA
ATOM     37  C   UNL     1     138.438 134.135 150.475  0.00  0.00    +0.000 C 
ENDBRANCH  32  36
ENDBRANCH  27  28
ENDBRANCH   8  26
TORSDOF 6
ENDMDL
MODEL 6
REMARK VINA RESULT:      -6.9     29.951     32.735
REMARK  Name = AZD4547.pdbqt.pdb
REMARK  6 active torsions:
REMARK  status: ('A' for Active; 'I' for Inactive)
REMARK    1  A    between atoms: C_3  and  C_23
REMARK    2  A    between atoms: C_8  and  C_11
REMARK    3  A    between atoms: C_12  and  C_13
REMARK    4  A    between atoms: C_15  and  O_19
REMARK    5  A    between atoms: C_17  and  O_21
REMARK    6  A    between atoms: C_26  and  N_29
REMARK                            x       y       z     vdW  Elec       q    Type
REMARK                         _______ _______ _______ _____ _____    ______ ____
ROOT
ATOM      1  O   UNL     1     140.034 115.195 114.001  0.00  0.00    +0.000 OA
ATOM      2  N   UNL     1     140.218 116.643 112.204  0.00  0.00    +0.000 N 
ATOM      3  C   UNL     1     139.534 115.964 113.187  0.00  0.00    +0.000 C 
ATOM      4  H   UNL     1     139.763 117.265 111.553  0.00  0.00    +0.000 HD
ATOM      5  C   UNL     1     141.574 116.554 111.998  0.00  0.00    +0.000 A 
ATOM      6  N   UNL     1     142.123 117.263 111.006  0.00  0.00    +0.000 NA
ATOM      7  N   UNL     1     143.431 116.955 111.080  0.00  0.00    +0.000 N 
ATOM      8  C   UNL     1     143.732 116.081 112.082  0.00  0.00    +0.000 A 
ATOM      9  H   UNL     1     144.068 117.379 110.415  0.00  0.00    +0.000 HD
ATOM     10  C   UNL     1     142.542 115.796 112.702  0.00  0.00    +0.000 A 
ENDROOT
BRANCH   3  11
ATOM     11  C   UNL     1     138.070 116.202 113.242  0.00  0.00    +0.000 A 
ATOM     12  C   UNL     1     137.240 115.430 112.431  0.00  0.00    +0.000 A 
ATOM     13  C   UNL     1     135.861 115.625 112.456  0.00  0.00    +0.000 A 
ATOM     14  C   UNL     1     135.281 116.602 113.276  0.00  0.00    +0.000 A 
ATOM     15  C   UNL     1     136.130 117.357 114.097  0.00  0.00    +0.000 A 
ATOM     16  C   UNL     1     137.511 117.166 114.078  0.00  0.00    +0.000 A 
BRANCH  14  17
ATOM     17  N   UNL     1     133.877 116.769 113.332  0.00  0.00    +0.000 N 
ATOM     18  C   UNL     1     133.053 116.133 112.290  0.00  0.00    +0.000 C 
ATOM     19  C   UNL     1     132.029 116.567 111.398  0.00  0.00    +0.000 C 
ATOM     20  N   UNL     1     131.656 117.944 111.474  0.00  0.00    +0.000 N 
ATOM     21  C   UNL     1     131.388 115.662 110.407  0.00  0.00    +0.000 C 
ATOM     22  C   UNL     1     132.333 118.766 112.424  0.00  0.00    +0.000 C 
ATOM     23  H   UNL     1     130.956 118.327 110.858  0.00  0.00    +0.000 HD
ATOM     24  C   UNL     1     133.329 118.132 113.223  0.00  0.00    +0.000 C 
ATOM     25  C   UNL     1     132.027 120.218 112.526  0.00  0.00    +0.000 C 
ENDBRANCH  14  17
ENDBRANCH   3  11
BRANCH   8  26
ATOM     26  C   UNL     1     145.027 115.595 112.381  0.00  0.00    +0.000 C 
ATOM     27  C   UNL     1     146.430 115.069 112.702  0.00  0.00    +0.000 C 
BRANCH  27  28
ATOM     28  C   UNL     1     147.737 114.579 112.991  0.00  0.00    +0.000 A 
ATOM     29  C   UNL     1     148.486 113.969 111.989  0.00  0.00    +0.000 A 
ATOM     30  C   UNL     1     149.770 113.492 112.266  0.00  0.00    +0.000 A 
ATOM     31  C   UNL     1     150.292 113.638 113.553  0.00  0.00    +0.000 A 
ATOM     32  C   UNL     1     149.542 114.245 114.561  0.00  0.00    +0.000 A 
ATOM     33  C   UNL     1     148.261 114.717 114.273  0.00  0.00    +0.000 A 
BRANCH  30  34
ATOM     34  O   UNL     1     150.597 112.882 111.354  0.00  0.00    +0.000 OA
ATOM     35  C   UNL     1     151.335 113.749 110.540  0.00  0.00    +0.000 C 
ENDBRANCH  30  34
BRANCH  32  36
ATOM     36  O   UNL     1     150.157 114.334 115.786  0.00  0.00    +0.000 OA
ATOM     37  C   UNL     1     150.229 113.137 116.512  0.00  0.00    +0.000 C 
ENDBRANCH  32  36
ENDBRANCH  27  28
ENDBRANCH   8  26
TORSDOF 6
ENDMDL
MODEL 7
REMARK VINA RESULT:      -6.8      2.906      4.808
REMARK  Name = AZD4547.pdbqt.pdb
REMARK  6 active torsions:
REMARK  status: ('A' for Active; 'I' for Inactive)
REMARK    1  A    between atoms: C_3  and  C_23
REMARK    2  A    between atoms: C_8  and  C_11
REMARK    3  A    between atoms: C_12  and  C_13
REMARK    4  A    between atoms: C_15  and  O_19
REMARK    5  A    between atoms: C_17  and  O_21
REMARK    6  A    between atoms: C_26  and  N_29
REMARK                            x       y       z     vdW  Elec       q    Type
REMARK                         _______ _______ _______ _____ _____    ______ ____
ROOT
ATOM      1  O   UNL     1     137.881 125.990 146.822  0.00  0.00    +0.000 OA
ATOM      2  N   UNL     1     136.649 127.811 146.095  0.00  0.00    +0.000 N 
ATOM      3  C   UNL     1     137.433 127.119 146.991  0.00  0.00    +0.000 C 
ATOM      4  H   UNL     1     136.300 128.739 146.279  0.00  0.00    +0.000 HD
ATOM      5  C   UNL     1     136.260 127.328 144.869  0.00  0.00    +0.000 A 
ATOM      6  N   UNL     1     135.494 128.096 144.087  0.00  0.00    +0.000 NA
ATOM      7  N   UNL     1     135.301 127.341 142.989  0.00  0.00    +0.000 N 
ATOM      8  C   UNL     1     135.915 126.126 143.044  0.00  0.00    +0.000 A 
ATOM      9  H   UNL     1     134.738 127.718 142.234  0.00  0.00    +0.000 HD
ATOM     10  C   UNL     1     136.551 126.082 144.260  0.00  0.00    +0.000 A 
ENDROOT
BRANCH   3  11
ATOM     11  C   UNL     1     137.744 127.822 148.260  0.00  0.00    +0.000 A 
ATOM     12  C   UNL     1     138.642 127.231 149.146  0.00  0.00    +0.000 A 
ATOM     13  C   UNL     1     138.957 127.862 150.348  0.00  0.00    +0.000 A 
ATOM     14  C   UNL     1     138.374 129.087 150.698  0.00  0.00    +0.000 A 
ATOM     15  C   UNL     1     137.487 129.676 149.786  0.00  0.00    +0.000 A 
ATOM     16  C   UNL     1     137.168 129.049 148.582  0.00  0.00    +0.000 A 
BRANCH  14  17
ATOM     17  N   UNL     1     138.729 129.748 151.898  0.00  0.00    +0.000 N 
ATOM     18  C   UNL     1     138.189 131.097 152.140  0.00  0.00    +0.000 C 
ATOM     19  C   UNL     1     138.739 132.364 152.496  0.00  0.00    +0.000 C 
ATOM     20  N   UNL     1     140.155 132.417 152.679  0.00  0.00    +0.000 N 
ATOM     21  C   UNL     1     137.909 133.588 152.643  0.00  0.00    +0.000 C 
ATOM     22  C   UNL     1     140.897 131.213 152.491  0.00  0.00    +0.000 C 
ATOM     23  H   UNL     1     140.616 133.284 152.909  0.00  0.00    +0.000 HD
ATOM     24  C   UNL     1     140.151 130.051 152.136  0.00  0.00    +0.000 C 
ATOM     25  C   UNL     1     142.378 131.206 152.621  0.00  0.00    +0.000 C 
ENDBRANCH  14  17
ENDBRANCH   3  11
BRANCH   8  26
ATOM     26  C   UNL     1     135.876 125.143 142.028  0.00  0.00    +0.000 C 
ATOM     27  C   UNL     1     135.836 124.075 140.929  0.00  0.00    +0.000 C 
BRANCH  27  28
ATOM     28  C   UNL     1     135.802 123.076 139.914  0.00  0.00    +0.000 A 
ATOM     29  C   UNL     1     134.685 122.255 139.786  0.00  0.00    +0.000 A 
ATOM     30  C   UNL     1     134.644 121.277 138.789  0.00  0.00    +0.000 A 
ATOM     31  C   UNL     1     135.731 121.136 137.923  0.00  0.00    +0.000 A 
ATOM     32  C   UNL     1     136.855 121.953 138.052  0.00  0.00    +0.000 A 
ATOM     33  C   UNL     1     136.884 122.927 139.052  0.00  0.00    +0.000 A 
BRANCH  30  34
ATOM     34  O   UNL     1     133.593 120.421 138.568  0.00  0.00    +0.000 OA
ATOM     35  C   UNL     1     132.323 121.008 138.599  0.00  0.00    +0.000 C 
ENDBRANCH  30  34
BRANCH  32  36
ATOM     36  O   UNL     1     137.861 121.725 137.146  0.00  0.00    +0.000 OA
ATOM     37  C   UNL     1     137.441 121.399 135.849  0.00  0.00    +0.000 C 
ENDBRANCH  32  36
ENDBRANCH  27  28
ENDBRANCH   8  26
TORSDOF 6
ENDMDL
MODEL 8
REMARK VINA RESULT:      -6.7     27.465     31.823
REMARK  Name = AZD4547.pdbqt.pdb
REMARK  6 active torsions:
REMARK  status: ('A' for Active; 'I' for Inactive)
REMARK    1  A    between atoms: C_3  and  C_23
REMARK    2  A    between atoms: C_8  and  C_11
REMARK    3  A    between atoms: C_12  and  C_13
REMARK    4  A    between atoms: C_15  and  O_19
REMARK    5  A    between atoms: C_17  and  O_21
REMARK    6  A    between atoms: C_26  and  N_29
REMARK                            x       y       z     vdW  Elec       q    Type
REMARK                         _______ _______ _______ _____ _____    ______ ____
ROOT
ATOM      1  O   UNL     1     140.539 115.195 114.540  0.00  0.00    +0.000 OA
ATOM      2  N   UNL     1     140.627 116.197 112.454  0.00  0.00    +0.000 N 
ATOM      3  C   UNL     1     139.994 115.753 113.593  0.00  0.00    +0.000 C 
ATOM      4  H   UNL     1     140.136 116.649 111.698  0.00  0.00    +0.000 HD
ATOM      5  C   UNL     1     141.977 116.082 112.219  0.00  0.00    +0.000 A 
ATOM      6  N   UNL     1     142.474 116.552 111.071  0.00  0.00    +0.000 NA
ATOM      7  N   UNL     1     143.790 116.286 111.161  0.00  0.00    +0.000 N 
ATOM      8  C   UNL     1     144.146 115.667 112.321  0.00  0.00    +0.000 A 
ATOM      9  H   UNL     1     144.393 116.555 110.391  0.00  0.00    +0.000 HD
ATOM     10  C   UNL     1     142.985 115.516 113.038  0.00  0.00    +0.000 A 
ENDROOT
BRANCH   3  11
ATOM     11  C   UNL     1     138.529 115.978 113.651  0.00  0.00    +0.000 A 
ATOM     12  C   UNL     1     137.796 115.339 114.649  0.00  0.00    +0.000 A 
ATOM     13  C   UNL     1     136.418 115.527 114.734  0.00  0.00    +0.000 A 
ATOM     14  C   UNL     1     135.739 116.342 113.819  0.00  0.00    +0.000 A 
ATOM     15  C   UNL     1     136.495 116.992 112.834  0.00  0.00    +0.000 A 
ATOM     16  C   UNL     1     137.875 116.808 112.743  0.00  0.00    +0.000 A 
BRANCH  14  17
ATOM     17  N   UNL     1     134.347 116.567 113.934  0.00  0.00    +0.000 N 
ATOM     18  C   UNL     1     133.795 117.828 113.408  0.00  0.00    +0.000 C 
ATOM     19  C   UNL     1     132.956 118.862 113.918  0.00  0.00    +0.000 C 
ATOM     20  N   UNL     1     132.499 118.709 115.263  0.00  0.00    +0.000 N 
ATOM     21  C   UNL     1     132.588 120.065 113.125  0.00  0.00    +0.000 C 
ATOM     22  C   UNL     1     132.914 117.547 115.980  0.00  0.00    +0.000 C 
ATOM     23  H   UNL     1     131.921 119.411 115.697  0.00  0.00    +0.000 HD
ATOM     24  C   UNL     1     133.757 116.633 115.282  0.00  0.00    +0.000 C 
ATOM     25  C   UNL     1     132.513 117.346 117.397  0.00  0.00    +0.000 C 
ENDBRANCH  14  17
ENDBRANCH   3  11
BRANCH   8  26
ATOM     26  C   UNL     1     145.461 115.278 112.672  0.00  0.00    +0.000 C 
ATOM     27  C   UNL     1     146.886 114.859 113.047  0.00  0.00    +0.000 C 
BRANCH  27  28
ATOM     28  C   UNL     1     148.214 114.471 113.387  0.00  0.00    +0.000 A 
ATOM     29  C   UNL     1     148.727 114.780 114.644  0.00  0.00    +0.000 A 
ATOM     30  C   UNL     1     150.027 114.399 114.985  0.00  0.00    +0.000 A 
ATOM     31  C   UNL     1     150.802 113.701 114.056  0.00  0.00    +0.000 A 
ATOM     32  C   UNL     1     150.294 113.394 112.792  0.00  0.00    +0.000 A 
ATOM     33  C   UNL     1     148.993 113.781 112.463  0.00  0.00    +0.000 A 
BRANCH  30  34
ATOM     34  O   UNL     1     150.628 114.644 116.195  0.00  0.00    +0.000 OA
ATOM     35  C   UNL     1     150.676 113.555 117.073  0.00  0.00    +0.000 C 
ENDBRANCH  30  34
BRANCH  32  36
ATOM     36  O   UNL     1     151.144 112.707 111.962  0.00  0.00    +0.000 OA
ATOM     37  C   UNL     1     150.986 112.962 110.593  0.00  0.00    +0.000 C 
ENDBRANCH  32  36
ENDBRANCH  27  28
ENDBRANCH   8  26
TORSDOF 6
ENDMDL
MODEL 9
REMARK VINA RESULT:      -6.6     28.088     32.093
REMARK  Name = AZD4547.pdbqt.pdb
REMARK  6 active torsions:
REMARK  status: ('A' for Active; 'I' for Inactive)
REMARK    1  A    between atoms: C_3  and  C_23
REMARK    2  A    between atoms: C_8  and  C_11
REMARK    3  A    between atoms: C_12  and  C_13
REMARK    4  A    between atoms: C_15  and  O_19
REMARK    5  A    between atoms: C_17  and  O_21
REMARK    6  A    between atoms: C_26  and  N_29
REMARK                            x       y       z     vdW  Elec       q    Type
REMARK                         _______ _______ _______ _____ _____    ______ ____
ROOT
ATOM      1  O   UNL     1     140.248 117.325 111.568  0.00  0.00    +0.000 OA
ATOM      2  N   UNL     1     139.991 115.771 113.265  0.00  0.00    +0.000 N 
ATOM      3  C   UNL     1     140.697 116.447 112.296  0.00  0.00    +0.000 C 
ATOM      4  H   UNL     1     140.403 115.052 113.839  0.00  0.00    +0.000 HD
ATOM      5  C   UNL     1     138.667 115.995 113.560  0.00  0.00    +0.000 A 
ATOM      6  N   UNL     1     138.090 115.271 114.524  0.00  0.00    +0.000 NA
ATOM      7  N   UNL     1     136.825 115.731 114.555  0.00  0.00    +0.000 N 
ATOM      8  C   UNL     1     136.579 116.719 113.649  0.00  0.00    +0.000 A 
ATOM      9  H   UNL     1     136.178 115.326 115.222  0.00  0.00    +0.000 HD
ATOM     10  C   UNL     1     137.761 116.917 112.979  0.00  0.00    +0.000 A 
ENDROOT
BRANCH   3  11
ATOM     11  C   UNL     1     142.121 116.056 112.139  0.00  0.00    +0.000 A 
ATOM     12  C   UNL     1     142.677 116.068 110.861  0.00  0.00    +0.000 A 
ATOM     13  C   UNL     1     144.010 115.707 110.676  0.00  0.00    +0.000 A 
ATOM     14  C   UNL     1     144.811 115.312 111.755  0.00  0.00    +0.000 A 
ATOM     15  C   UNL     1     144.240 115.324 113.035  0.00  0.00    +0.000 A 
ATOM     16  C   UNL     1     142.906 115.684 113.228  0.00  0.00    +0.000 A 
BRANCH  14  17
ATOM     17  N   UNL     1     146.176 114.989 111.572  0.00  0.00    +0.000 N 
ATOM     18  C   UNL     1     146.527 113.602 111.219  0.00  0.00    +0.000 C 
ATOM     19  C   UNL     1     147.432 112.622 111.723  0.00  0.00    +0.000 C 
ATOM     20  N   UNL     1     148.228 113.005 112.845  0.00  0.00    +0.000 N 
ATOM     21  C   UNL     1     147.537 111.254 111.151  0.00  0.00    +0.000 C 
ATOM     22  C   UNL     1     148.055 114.322 113.368  0.00  0.00    +0.000 C 
ATOM     23  H   UNL     1     148.873 112.356 113.269  0.00  0.00    +0.000 HD
ATOM     24  C   UNL     1     147.093 115.147 112.713  0.00  0.00    +0.000 C 
ATOM     25  C   UNL     1     148.817 114.772 114.562  0.00  0.00    +0.000 C 
ENDBRANCH  14  17
ENDBRANCH   3  11
BRANCH   8  26
ATOM     26  C   UNL     1     135.339 117.377 113.472  0.00  0.00    +0.000 C 
ATOM     27  C   UNL     1     133.997 118.092 113.285  0.00  0.00    +0.000 C 
BRANCH  27  28
ATOM     28  C   UNL     1     132.752 118.763 113.117  0.00  0.00    +0.000 A 
ATOM     29  C   UNL     1     131.922 118.430 112.051  0.00  0.00    +0.000 A 
ATOM     30  C   UNL     1     130.697 119.081 111.884  0.00  0.00    +0.000 A 
ATOM     31  C   UNL     1     130.314 120.064 112.800  0.00  0.00    +0.000 A 
ATOM     32  C   UNL     1     131.146 120.405 113.868  0.00  0.00    +0.000 A 
ATOM     33  C   UNL     1     132.367 119.747 114.023  0.00  0.00    +0.000 A 
BRANCH  30  34
ATOM     34  O   UNL     1     129.800 118.827 110.876  0.00  0.00    +0.000 OA
ATOM     35  C   UNL     1     129.312 119.955 110.207  0.00  0.00    +0.000 C 
ENDBRANCH  30  34
BRANCH  32  36
ATOM     36  O   UNL     1     130.667 121.384 114.704  0.00  0.00    +0.000 OA
ATOM     37  C   UNL     1     131.479 121.686 115.805  0.00  0.00    +0.000 C 
ENDBRANCH  32  36
ENDBRANCH  27  28
ENDBRANCH   8  26
TORSDOF 6
ENDMDL
