MODEL 1
REMARK VINA RESULT:      -6.6      0.000      0.000
REMARK  Name = Belinostat.pdbqt.pdb
REMARK  6 active torsions:
REMARK  status: ('A' for Active; 'I' for Inactive)
REMARK    1  A    between atoms: C_1  and  S_7
REMARK    2  A    between atoms: C_3  and  C_18
REMARK    3  A    between atoms: S_7  and  N_10
REMARK    4  A    between atoms: N_10  and  C_12
REMARK    5  A    between atoms: C_19  and  C_20
REMARK    6  A    between atoms: N_22  and  O_24
REMARK                            x       y       z     vdW  Elec       q    Type
REMARK                         _______ _______ _______ _____ _____    ______ ____
ROOT
ATOM      1  C   UNL     1     145.151 125.978 101.178  0.00  0.00    +0.000 A 
ATOM      2  C   UNL     1     145.861 126.624 100.173  0.00  0.00    +0.000 A 
ATOM      3  C   UNL     1     146.685 127.693 100.509  0.00  0.00    +0.000 A 
ATOM      4  C   UNL     1     145.270 126.356 102.511  0.00  0.00    +0.000 A 
ATOM      5  C   UNL     1     146.805 128.095 101.839  0.00  0.00    +0.000 A 
ATOM      6  C   UNL     1     146.098 127.426 102.839  0.00  0.00    +0.000 A 
ENDROOT
BRANCH   1   7
ATOM      7  S   UNL     1     144.138 124.602 100.770  0.00  0.00    +0.000 S 
ATOM      8  O   UNL     1     144.176 123.698 101.899  0.00  0.00    +0.000 OA
ATOM      9  O   UNL     1     144.497 124.154  99.442  0.00  0.00    +0.000 OA
BRANCH   7  10
ATOM     10  N   UNL     1     142.595 125.252 100.735  0.00  0.00    +0.000 N 
ATOM     11  H   UNL     1     141.931 124.797 101.360  0.00  0.00    +0.000 HD
BRANCH  10  12
ATOM     12  C   UNL     1     142.305 126.550 100.226  0.00  0.00    +0.000 A 
ATOM     13  C   UNL     1     142.168 127.668 101.046  0.00  0.00    +0.000 A 
ATOM     14  C   UNL     1     141.966 128.929 100.491  0.00  0.00    +0.000 A 
ATOM     15  C   UNL     1     141.927 129.081  99.108  0.00  0.00    +0.000 A 
ATOM     16  C   UNL     1     142.100 127.974  98.283  0.00  0.00    +0.000 A 
ATOM     17  C   UNL     1     142.301 126.714  98.841  0.00  0.00    +0.000 A 
ENDBRANCH  10  12
ENDBRANCH   7  10
ENDBRANCH   1   7
BRANCH   3  18
ATOM     18  C   UNL     1     147.410 128.378  99.489  0.00  0.00    +0.000 C 
ATOM     19  C   UNL     1     148.018 128.954  98.628  0.00  0.00    +0.000 C 
BRANCH  19  20
ATOM     20  C   UNL     1     148.748 129.646  97.595  0.00  0.00    +0.000 C 
ATOM     21  O   UNL     1     149.678 130.390  97.882  0.00  0.00    +0.000 OA
ATOM     22  N   UNL     1     148.339 129.407  96.313  0.00  0.00    +0.000 N 
ATOM     23  H   UNL     1     147.611 128.751  96.055  0.00  0.00    +0.000 HD
BRANCH  22  24
ATOM     24  O   UNL     1     149.061 130.029  95.271  0.00  0.00    +0.000 OA
ATOM     25  H   UNL     1     148.817 129.490  94.487  0.00  0.00    +0.000 HD
ENDBRANCH  22  24
ENDBRANCH  19  20
ENDBRANCH   3  18
TORSDOF 6
ENDMDL
MODEL 2
REMARK VINA RESULT:      -6.6      2.182      2.875
REMARK  Name = Belinostat.pdbqt.pdb
REMARK  6 active torsions:
REMARK  status: ('A' for Active; 'I' for Inactive)
REMARK    1  A    between atoms: C_1  and  S_7
REMARK    2  A    between atoms: C_3  and  C_18
REMARK    3  A    between atoms: S_7  and  N_10
REMARK    4  A    between atoms: N_10  and  C_12
REMARK    5  A    between atoms: C_19  and  C_20
REMARK    6  A    between atoms: N_22  and  O_24
REMARK                            x       y       z     vdW  Elec       q    Type
REMARK                         _______ _______ _______ _____ _____    ______ ____
ROOT
ATOM      1  C   UNL     1     144.184 127.353 101.707  0.00  0.00    +0.000 A 
ATOM      2  C   UNL     1     144.714 127.637 100.453  0.00  0.00    +0.000 A 
ATOM      3  C   UNL     1     146.045 128.028 100.356  0.00  0.00    +0.000 A 
ATOM      4  C   UNL     1     144.962 127.422 102.858  0.00  0.00    +0.000 A 
ATOM      5  C   UNL     1     146.836 128.118 101.502  0.00  0.00    +0.000 A 
ATOM      6  C   UNL     1     146.294 127.813 102.752  0.00  0.00    +0.000 A 
ENDROOT
BRANCH   1   7
ATOM      7  S   UNL     1     142.516 126.820 101.837  0.00  0.00    +0.000 S 
ATOM      8  O   UNL     1     141.734 127.650 100.945  0.00  0.00    +0.000 OA
ATOM      9  O   UNL     1     142.184 126.711 103.241  0.00  0.00    +0.000 OA
BRANCH   7  10
ATOM     10  N   UNL     1     142.543 125.289 101.157  0.00  0.00    +0.000 N 
ATOM     11  H   UNL     1     142.685 124.533 101.825  0.00  0.00    +0.000 HD
BRANCH  10  12
ATOM     12  C   UNL     1     142.015 124.997  99.868  0.00  0.00    +0.000 A 
ATOM     13  C   UNL     1     142.668 125.346  98.688  0.00  0.00    +0.000 A 
ATOM     14  C   UNL     1     142.148 124.963  97.454  0.00  0.00    +0.000 A 
ATOM     15  C   UNL     1     140.983 124.204  97.397  0.00  0.00    +0.000 A 
ATOM     16  C   UNL     1     140.346 123.820  98.573  0.00  0.00    +0.000 A 
ATOM     17  C   UNL     1     140.868 124.205  99.805  0.00  0.00    +0.000 A 
ENDBRANCH  10  12
ENDBRANCH   7  10
ENDBRANCH   1   7
BRANCH   3  18
ATOM     18  C   UNL     1     146.603 128.338  99.080  0.00  0.00    +0.000 C 
ATOM     19  C   UNL     1     147.069 128.597  98.004  0.00  0.00    +0.000 C 
BRANCH  19  20
ATOM     20  C   UNL     1     147.629 128.908  96.712  0.00  0.00    +0.000 C 
ATOM     21  O   UNL     1     147.165 128.403  95.696  0.00  0.00    +0.000 OA
ATOM     22  N   UNL     1     148.675 129.787  96.710  0.00  0.00    +0.000 N 
ATOM     23  H   UNL     1     149.033 130.257  97.534  0.00  0.00    +0.000 HD
BRANCH  22  24
ATOM     24  O   UNL     1     149.218 130.152  95.458  0.00  0.00    +0.000 OA
ATOM     25  H   UNL     1     149.929 129.487  95.329  0.00  0.00    +0.000 HD
ENDBRANCH  22  24
ENDBRANCH  19  20
ENDBRANCH   3  18
TORSDOF 6
ENDMDL
MODEL 3
REMARK VINA RESULT:      -6.6     35.079     36.834
REMARK  Name = Belinostat.pdbqt.pdb
REMARK  6 active torsions:
REMARK  status: ('A' for Active; 'I' for Inactive)
REMARK    1  A    between atoms: C_1  and  S_7
REMARK    2  A    between atoms: C_3  and  C_18
REMARK    3  A    between atoms: S_7  and  N_10
REMARK    4  A    between atoms: N_10  and  C_12
REMARK    5  A    between atoms: C_19  and  C_20
REMARK    6  A    between atoms: N_22  and  O_24
REMARK                            x       y       z     vdW  Elec       q    Type
REMARK                         _______ _______ _______ _____ _____    ______ ____
ROOT
ATOM      1  C   UNL     1     138.493 123.352 134.370  0.00  0.00    +0.000 A 
ATOM      2  C   UNL     1     138.098 122.063 134.709  0.00  0.00    +0.000 A 
ATOM      3  C   UNL     1     136.777 121.683 134.494  0.00  0.00    +0.000 A 
ATOM      4  C   UNL     1     137.605 124.257 133.797  0.00  0.00    +0.000 A 
ATOM      5  C   UNL     1     135.870 122.583 133.934  0.00  0.00    +0.000 A 
ATOM      6  C   UNL     1     136.286 123.869 133.585  0.00  0.00    +0.000 A 
ENDROOT
BRANCH   1   7
ATOM      7  S   UNL     1     140.167 123.829 134.599  0.00  0.00    +0.000 S 
ATOM      8  O   UNL     1     140.191 124.790 135.681  0.00  0.00    +0.000 OA
ATOM      9  O   UNL     1     140.727 124.148 133.303  0.00  0.00    +0.000 OA
BRANCH   7  10
ATOM     10  N   UNL     1     140.891 122.437 135.185  0.00  0.00    +0.000 N 
ATOM     11  H   UNL     1     140.262 121.641 135.279  0.00  0.00    +0.000 HD
BRANCH  10  12
ATOM     12  C   UNL     1     142.298 122.221 135.167  0.00  0.00    +0.000 A 
ATOM     13  C   UNL     1     143.176 122.893 136.014  0.00  0.00    +0.000 A 
ATOM     14  C   UNL     1     144.534 122.584 136.013  0.00  0.00    +0.000 A 
ATOM     15  C   UNL     1     145.016 121.579 135.180  0.00  0.00    +0.000 A 
ATOM     16  C   UNL     1     144.139 120.878 134.357  0.00  0.00    +0.000 A 
ATOM     17  C   UNL     1     142.782 121.190 134.361  0.00  0.00    +0.000 A 
ENDBRANCH  10  12
ENDBRANCH   7  10
ENDBRANCH   1   7
BRANCH   3  18
ATOM     18  C   UNL     1     136.351 120.369 134.848  0.00  0.00    +0.000 C 
ATOM     19  C   UNL     1     135.994 119.261 135.144  0.00  0.00    +0.000 C 
BRANCH  19  20
ATOM     20  C   UNL     1     135.565 117.931 135.499  0.00  0.00    +0.000 C 
ATOM     21  O   UNL     1     134.968 117.729 136.550  0.00  0.00    +0.000 OA
ATOM     22  N   UNL     1     135.860 116.947 134.597  0.00  0.00    +0.000 N 
ATOM     23  H   UNL     1     136.302 117.105 133.699  0.00  0.00    +0.000 HD
BRANCH  22  24
ATOM     24  O   UNL     1     135.414 115.639 134.888  0.00  0.00    +0.000 OA
ATOM     25  H   UNL     1     135.660 115.532 135.833  0.00  0.00    +0.000 HD
ENDBRANCH  22  24
ENDBRANCH  19  20
ENDBRANCH   3  18
TORSDOF 6
ENDMDL
MODEL 4
REMARK VINA RESULT:      -6.6     34.372     37.012
REMARK  Name = Belinostat.pdbqt.pdb
REMARK  6 active torsions:
REMARK  status: ('A' for Active; 'I' for Inactive)
REMARK    1  A    between atoms: C_1  and  S_7
REMARK    2  A    between atoms: C_3  and  C_18
REMARK    3  A    between atoms: S_7  and  N_10
REMARK    4  A    between atoms: N_10  and  C_12
REMARK    5  A    between atoms: C_19  and  C_20
REMARK    6  A    between atoms: N_22  and  O_24
REMARK                            x       y       z     vdW  Elec       q    Type
REMARK                         _______ _______ _______ _____ _____    ______ ____
ROOT
ATOM      1  C   UNL     1     137.306 123.505 133.849  0.00  0.00    +0.000 A 
ATOM      2  C   UNL     1     138.446 122.899 134.363  0.00  0.00    +0.000 A 
ATOM      3  C   UNL     1     139.689 123.254 133.849  0.00  0.00    +0.000 A 
ATOM      4  C   UNL     1     137.383 124.476 132.856  0.00  0.00    +0.000 A 
ATOM      5  C   UNL     1     139.784 124.214 132.843  0.00  0.00    +0.000 A 
ATOM      6  C   UNL     1     138.631 124.826 132.348  0.00  0.00    +0.000 A 
ENDROOT
BRANCH   1   7
ATOM      7  S   UNL     1     135.735 123.095 134.518  0.00  0.00    +0.000 S 
ATOM      8  O   UNL     1     135.022 122.352 133.502  0.00  0.00    +0.000 OA
ATOM      9  O   UNL     1     135.169 124.289 135.107  0.00  0.00    +0.000 OA
BRANCH   7  10
ATOM     10  N   UNL     1     136.104 122.002 135.733  0.00  0.00    +0.000 N 
ATOM     11  H   UNL     1     136.648 121.197 135.426  0.00  0.00    +0.000 HD
BRANCH  10  12
ATOM     12  C   UNL     1     136.051 122.326 137.118  0.00  0.00    +0.000 A 
ATOM     13  C   UNL     1     134.855 122.407 137.829  0.00  0.00    +0.000 A 
ATOM     14  C   UNL     1     134.865 122.646 139.201  0.00  0.00    +0.000 A 
ATOM     15  C   UNL     1     136.076 122.779 139.874  0.00  0.00    +0.000 A 
ATOM     16  C   UNL     1     137.275 122.664 139.176  0.00  0.00    +0.000 A 
ATOM     17  C   UNL     1     137.261 122.425 137.805  0.00  0.00    +0.000 A 
ENDBRANCH  10  12
ENDBRANCH   7  10
ENDBRANCH   1   7
BRANCH   3  18
ATOM     18  C   UNL     1     140.870 122.632 134.355  0.00  0.00    +0.000 C 
ATOM     19  C   UNL     1     141.865 122.109 134.777  0.00  0.00    +0.000 C 
BRANCH  19  20
ATOM     20  C   UNL     1     143.060 121.481 135.285  0.00  0.00    +0.000 C 
ATOM     21  O   UNL     1     143.893 121.017 134.515  0.00  0.00    +0.000 OA
ATOM     22  N   UNL     1     143.189 121.454 136.645  0.00  0.00    +0.000 N 
ATOM     23  H   UNL     1     142.539 121.884 137.292  0.00  0.00    +0.000 HD
BRANCH  22  24
ATOM     24  O   UNL     1     144.370 120.891 137.177  0.00  0.00    +0.000 OA
ATOM     25  H   UNL     1     144.208 120.925 138.145  0.00  0.00    +0.000 HD
ENDBRANCH  22  24
ENDBRANCH  19  20
ENDBRANCH   3  18
TORSDOF 6
ENDMDL
MODEL 5
REMARK VINA RESULT:      -6.4     35.024     37.969
REMARK  Name = Belinostat.pdbqt.pdb
REMARK  6 active torsions:
REMARK  status: ('A' for Active; 'I' for Inactive)
REMARK    1  A    between atoms: C_1  and  S_7
REMARK    2  A    between atoms: C_3  and  C_18
REMARK    3  A    between atoms: S_7  and  N_10
REMARK    4  A    between atoms: N_10  and  C_12
REMARK    5  A    between atoms: C_19  and  C_20
REMARK    6  A    between atoms: N_22  and  O_24
REMARK                            x       y       z     vdW  Elec       q    Type
REMARK                         _______ _______ _______ _____ _____    ______ ____
ROOT
ATOM      1  C   UNL     1     135.271 122.300 134.249  0.00  0.00    +0.000 A 
ATOM      2  C   UNL     1     135.641 122.587 135.557  0.00  0.00    +0.000 A 
ATOM      3  C   UNL     1     134.803 122.197 136.597  0.00  0.00    +0.000 A 
ATOM      4  C   UNL     1     134.099 121.609 133.959  0.00  0.00    +0.000 A 
ATOM      5  C   UNL     1     133.616 121.516 136.324  0.00  0.00    +0.000 A 
ATOM      6  C   UNL     1     133.266 121.221 135.005  0.00  0.00    +0.000 A 
ENDROOT
BRANCH   1   7
ATOM      7  S   UNL     1     136.341 122.751 132.931  0.00  0.00    +0.000 S 
ATOM      8  O   UNL     1     136.341 124.197 132.861  0.00  0.00    +0.000 OA
ATOM      9  O   UNL     1     136.002 121.947 131.778  0.00  0.00    +0.000 OA
BRANCH   7  10
ATOM     10  N   UNL     1     137.855 122.304 133.490  0.00  0.00    +0.000 N 
ATOM     11  H   UNL     1     138.104 121.333 133.304  0.00  0.00    +0.000 HD
BRANCH  10  12
ATOM     12  C   UNL     1     138.876 123.240 133.816  0.00  0.00    +0.000 A 
ATOM     13  C   UNL     1     139.144 123.641 135.123  0.00  0.00    +0.000 A 
ATOM     14  C   UNL     1     140.209 124.497 135.394  0.00  0.00    +0.000 A 
ATOM     15  C   UNL     1     141.029 124.935 134.359  0.00  0.00    +0.000 A 
ATOM     16  C   UNL     1     140.789 124.509 133.055  0.00  0.00    +0.000 A 
ATOM     17  C   UNL     1     139.724 123.654 132.788  0.00  0.00    +0.000 A 
ENDBRANCH  10  12
ENDBRANCH   7  10
ENDBRANCH   1   7
BRANCH   3  18
ATOM     18  C   UNL     1     135.159 122.495 137.946  0.00  0.00    +0.000 C 
ATOM     19  C   UNL     1     135.457 122.743 139.082  0.00  0.00    +0.000 C 
BRANCH  19  20
ATOM     20  C   UNL     1     135.815 123.041 140.447  0.00  0.00    +0.000 C 
ATOM     21  O   UNL     1     135.926 124.202 140.821  0.00  0.00    +0.000 OA
ATOM     22  N   UNL     1     136.006 121.962 141.264  0.00  0.00    +0.000 N 
ATOM     23  H   UNL     1     135.862 120.998 140.986  0.00  0.00    +0.000 HD
BRANCH  22  24
ATOM     24  O   UNL     1     136.310 122.215 142.620  0.00  0.00    +0.000 OA
ATOM     25  H   UNL     1     136.324 123.196 142.658  0.00  0.00    +0.000 HD
ENDBRANCH  22  24
ENDBRANCH  19  20
ENDBRANCH   3  18
TORSDOF 6
ENDMDL
MODEL 6
REMARK VINA RESULT:      -6.4      2.684      3.986
REMARK  Name = Belinostat.pdbqt.pdb
REMARK  6 active torsions:
REMARK  status: ('A' for Active; 'I' for Inactive)
REMARK    1  A    between atoms: C_1  and  S_7
REMARK    2  A    between atoms: C_3  and  C_18
REMARK    3  A    between atoms: S_7  and  N_10
REMARK    4  A    between atoms: N_10  and  C_12
REMARK    5  A    between atoms: C_19  and  C_20
REMARK    6  A    between atoms: N_22  and  O_24
REMARK                            x       y       z     vdW  Elec       q    Type
REMARK                         _______ _______ _______ _____ _____    ______ ____
ROOT
ATOM      1  C   UNL     1     143.426 126.266  99.588  0.00  0.00    +0.000 A 
ATOM      2  C   UNL     1     144.550 126.587  98.835  0.00  0.00    +0.000 A 
ATOM      3  C   UNL     1     144.456 127.593  97.879  0.00  0.00    +0.000 A 
ATOM      4  C   UNL     1     142.224 126.948  99.428  0.00  0.00    +0.000 A 
ATOM      5  C   UNL     1     143.254 128.277  97.694  0.00  0.00    +0.000 A 
ATOM      6  C   UNL     1     142.140 127.954  98.470  0.00  0.00    +0.000 A 
ENDROOT
BRANCH   1   7
ATOM      7  S   UNL     1     143.544 125.026 100.825  0.00  0.00    +0.000 S 
ATOM      8  O   UNL     1     142.993 125.585 102.041  0.00  0.00    +0.000 OA
ATOM      9  O   UNL     1     144.884 124.480 100.793  0.00  0.00    +0.000 OA
BRANCH   7  10
ATOM     10  N   UNL     1     142.461 123.858 100.308  0.00  0.00    +0.000 N 
ATOM     11  H   UNL     1     141.684 123.689 100.947  0.00  0.00    +0.000 HD
BRANCH  10  12
ATOM     12  C   UNL     1     142.362 123.428  98.955  0.00  0.00    +0.000 A 
ATOM     13  C   UNL     1     143.355 122.680  98.327  0.00  0.00    +0.000 A 
ATOM     14  C   UNL     1     143.172 122.214  97.027  0.00  0.00    +0.000 A 
ATOM     15  C   UNL     1     141.979 122.473  96.358  0.00  0.00    +0.000 A 
ATOM     16  C   UNL     1     140.968 123.188  96.994  0.00  0.00    +0.000 A 
ATOM     17  C   UNL     1     141.155 123.652  98.293  0.00  0.00    +0.000 A 
ENDBRANCH  10  12
ENDBRANCH   7  10
ENDBRANCH   1   7
BRANCH   3  18
ATOM     18  C   UNL     1     145.595 127.927  97.086  0.00  0.00    +0.000 C 
ATOM     19  C   UNL     1     146.551 128.206  96.416  0.00  0.00    +0.000 C 
BRANCH  19  20
ATOM     20  C   UNL     1     147.699 128.542  95.611  0.00  0.00    +0.000 C 
ATOM     21  O   UNL     1     148.008 127.849  94.648  0.00  0.00    +0.000 OA
ATOM     22  N   UNL     1     148.387 129.661  95.988  0.00  0.00    +0.000 N 
ATOM     23  H   UNL     1     148.112 130.276  96.745  0.00  0.00    +0.000 HD
BRANCH  22  24
ATOM     24  O   UNL     1     149.490 130.048  95.195  0.00  0.00    +0.000 OA
ATOM     25  H   UNL     1     149.125 130.006  94.284  0.00  0.00    +0.000 HD
ENDBRANCH  22  24
ENDBRANCH  19  20
ENDBRANCH   3  18
TORSDOF 6
ENDMDL
MODEL 7
REMARK VINA RESULT:      -6.4      4.363      6.981
REMARK  Name = Belinostat.pdbqt.pdb
REMARK  6 active torsions:
REMARK  status: ('A' for Active; 'I' for Inactive)
REMARK    1  A    between atoms: C_1  and  S_7
REMARK    2  A    between atoms: C_3  and  C_18
REMARK    3  A    between atoms: S_7  and  N_10
REMARK    4  A    between atoms: N_10  and  C_12
REMARK    5  A    between atoms: C_19  and  C_20
REMARK    6  A    between atoms: N_22  and  O_24
REMARK                            x       y       z     vdW  Elec       q    Type
REMARK                         _______ _______ _______ _____ _____    ______ ____
ROOT
ATOM      1  C   UNL     1     143.202 123.762  99.607  0.00  0.00    +0.000 A 
ATOM      2  C   UNL     1     143.594 123.011  98.506  0.00  0.00    +0.000 A 
ATOM      3  C   UNL     1     142.645 122.669  97.548  0.00  0.00    +0.000 A 
ATOM      4  C   UNL     1     141.891 124.203  99.757  0.00  0.00    +0.000 A 
ATOM      5  C   UNL     1     141.323 123.090  97.690  0.00  0.00    +0.000 A 
ATOM      6  C   UNL     1     140.947 123.858  98.793  0.00  0.00    +0.000 A 
ENDROOT
BRANCH   1   7
ATOM      7  S   UNL     1     144.400 124.233 100.801  0.00  0.00    +0.000 S 
ATOM      8  O   UNL     1     145.700 124.057 100.190  0.00  0.00    +0.000 OA
ATOM      9  O   UNL     1     144.069 123.589 102.053  0.00  0.00    +0.000 OA
BRANCH   7  10
ATOM     10  N   UNL     1     144.169 125.885 100.953  0.00  0.00    +0.000 N 
ATOM     11  H   UNL     1     143.485 126.153 101.660  0.00  0.00    +0.000 HD
BRANCH  10  12
ATOM     12  C   UNL     1     145.097 126.852 100.473  0.00  0.00    +0.000 A 
ATOM     13  C   UNL     1     146.150 127.335 101.246  0.00  0.00    +0.000 A 
ATOM     14  C   UNL     1     147.078 128.219 100.701  0.00  0.00    +0.000 A 
ATOM     15  C   UNL     1     146.971 128.603  99.367  0.00  0.00    +0.000 A 
ATOM     16  C   UNL     1     145.942 128.096  98.579  0.00  0.00    +0.000 A 
ATOM     17  C   UNL     1     145.016 127.213  99.128  0.00  0.00    +0.000 A 
ENDBRANCH  10  12
ENDBRANCH   7  10
ENDBRANCH   1   7
BRANCH   3  18
ATOM     18  C   UNL     1     143.026 121.887  96.418  0.00  0.00    +0.000 C 
ATOM     19  C   UNL     1     143.345 121.226  95.467  0.00  0.00    +0.000 C 
BRANCH  19  20
ATOM     20  C   UNL     1     143.726 120.432  94.326  0.00  0.00    +0.000 C 
ATOM     21  O   UNL     1     144.141 120.970  93.305  0.00  0.00    +0.000 OA
ATOM     22  N   UNL     1     143.603 119.079  94.470  0.00  0.00    +0.000 N 
ATOM     23  H   UNL     1     143.318 118.616  95.326  0.00  0.00    +0.000 HD
BRANCH  22  24
ATOM     24  O   UNL     1     144.013 118.267  93.390  0.00  0.00    +0.000 OA
ATOM     25  H   UNL     1     144.518 117.552  93.837  0.00  0.00    +0.000 HD
ENDBRANCH  22  24
ENDBRANCH  19  20
ENDBRANCH   3  18
TORSDOF 6
ENDMDL
MODEL 8
REMARK VINA RESULT:      -6.4     34.892     36.209
REMARK  Name = Belinostat.pdbqt.pdb
REMARK  6 active torsions:
REMARK  status: ('A' for Active; 'I' for Inactive)
REMARK    1  A    between atoms: C_1  and  S_7
REMARK    2  A    between atoms: C_3  and  C_18
REMARK    3  A    between atoms: S_7  and  N_10
REMARK    4  A    between atoms: N_10  and  C_12
REMARK    5  A    between atoms: C_19  and  C_20
REMARK    6  A    between atoms: N_22  and  O_24
REMARK                            x       y       z     vdW  Elec       q    Type
REMARK                         _______ _______ _______ _____ _____    ______ ____
ROOT
ATOM      1  C   UNL     1     137.221 122.763 134.373  0.00  0.00    +0.000 A 
ATOM      2  C   UNL     1     138.356 123.164 135.068  0.00  0.00    +0.000 A 
ATOM      3  C   UNL     1     139.140 124.188 134.547  0.00  0.00    +0.000 A 
ATOM      4  C   UNL     1     136.839 123.381 133.187  0.00  0.00    +0.000 A 
ATOM      5  C   UNL     1     138.779 124.809 133.351  0.00  0.00    +0.000 A 
ATOM      6  C   UNL     1     137.628 124.406 132.673  0.00  0.00    +0.000 A 
ENDROOT
BRANCH   1   7
ATOM      7  S   UNL     1     136.202 121.499 135.042  0.00  0.00    +0.000 S 
ATOM      8  O   UNL     1     136.081 121.758 136.461  0.00  0.00    +0.000 OA
ATOM      9  O   UNL     1     136.682 120.225 134.553  0.00  0.00    +0.000 OA
BRANCH   7  10
ATOM     10  N   UNL     1     134.700 121.816 134.373  0.00  0.00    +0.000 N 
ATOM     11  H   UNL     1     134.513 122.803 134.203  0.00  0.00    +0.000 HD
BRANCH  10  12
ATOM     12  C   UNL     1     133.915 120.830 133.712  0.00  0.00    +0.000 A 
ATOM     13  C   UNL     1     132.967 120.052 134.373  0.00  0.00    +0.000 A 
ATOM     14  C   UNL     1     132.168 119.159 133.664  0.00  0.00    +0.000 A 
ATOM     15  C   UNL     1     132.295 119.059 132.282  0.00  0.00    +0.000 A 
ATOM     16  C   UNL     1     133.215 119.860 131.610  0.00  0.00    +0.000 A 
ATOM     17  C   UNL     1     134.013 120.751 132.322  0.00  0.00    +0.000 A 
ENDBRANCH  10  12
ENDBRANCH   7  10
ENDBRANCH   1   7
BRANCH   3  18
ATOM     18  C   UNL     1     140.316 124.604 135.239  0.00  0.00    +0.000 C 
ATOM     19  C   UNL     1     141.305 124.957 135.822  0.00  0.00    +0.000 C 
BRANCH  19  20
ATOM     20  C   UNL     1     142.493 125.381 136.521  0.00  0.00    +0.000 C 
ATOM     21  O   UNL     1     142.958 126.500 136.335  0.00  0.00    +0.000 OA
ATOM     22  N   UNL     1     143.035 124.472 137.385  0.00  0.00    +0.000 N 
ATOM     23  H   UNL     1     142.631 123.566 137.593  0.00  0.00    +0.000 HD
BRANCH  22  24
ATOM     24  O   UNL     1     144.171 124.870 138.124  0.00  0.00    +0.000 OA
ATOM     25  H   UNL     1     143.989 125.818 138.306  0.00  0.00    +0.000 HD
ENDBRANCH  22  24
ENDBRANCH  19  20
ENDBRANCH   3  18
TORSDOF 6
ENDMDL
MODEL 9
REMARK VINA RESULT:      -6.3      3.302      5.790
REMARK  Name = Belinostat.pdbqt.pdb
REMARK  6 active torsions:
REMARK  status: ('A' for Active; 'I' for Inactive)
REMARK    1  A    between atoms: C_1  and  S_7
REMARK    2  A    between atoms: C_3  and  C_18
REMARK    3  A    between atoms: S_7  and  N_10
REMARK    4  A    between atoms: N_10  and  C_12
REMARK    5  A    between atoms: C_19  and  C_20
REMARK    6  A    between atoms: N_22  and  O_24
REMARK                            x       y       z     vdW  Elec       q    Type
REMARK                         _______ _______ _______ _____ _____    ______ ____
ROOT
ATOM      1  C   UNL     1     144.931 127.991  98.996  0.00  0.00    +0.000 A 
ATOM      2  C   UNL     1     144.913 127.530 100.308  0.00  0.00    +0.000 A 
ATOM      3  C   UNL     1     146.055 127.670 101.089  0.00  0.00    +0.000 A 
ATOM      4  C   UNL     1     146.055 128.613  98.460  0.00  0.00    +0.000 A 
ATOM      5  C   UNL     1     147.195 128.277 100.562  0.00  0.00    +0.000 A 
ATOM      6  C   UNL     1     147.193 128.749  99.249  0.00  0.00    +0.000 A 
ENDROOT
BRANCH   1   7
ATOM      7  S   UNL     1     143.482 127.857  98.014  0.00  0.00    +0.000 S 
ATOM      8  O   UNL     1     143.748 128.543  96.769  0.00  0.00    +0.000 OA
ATOM      9  O   UNL     1     142.345 128.212  98.836  0.00  0.00    +0.000 OA
BRANCH   7  10
ATOM     10  N   UNL     1     143.410 126.223  97.650  0.00  0.00    +0.000 N 
ATOM     11  H   UNL     1     144.296 125.817  97.354  0.00  0.00    +0.000 HD
BRANCH  10  12
ATOM     12  C   UNL     1     142.359 125.370  98.090  0.00  0.00    +0.000 A 
ATOM     13  C   UNL     1     141.503 124.712  97.210  0.00  0.00    +0.000 A 
ATOM     14  C   UNL     1     140.543 123.824  97.690  0.00  0.00    +0.000 A 
ATOM     15  C   UNL     1     140.456 123.568  99.055  0.00  0.00    +0.000 A 
ATOM     16  C   UNL     1     141.333 124.194  99.937  0.00  0.00    +0.000 A 
ATOM     17  C   UNL     1     142.289 125.082  99.453  0.00  0.00    +0.000 A 
ENDBRANCH  10  12
ENDBRANCH   7  10
ENDBRANCH   1   7
BRANCH   3  18
ATOM     18  C   UNL     1     146.059 127.190 102.433  0.00  0.00    +0.000 C 
ATOM     19  C   UNL     1     146.065 126.784 103.563  0.00  0.00    +0.000 C 
BRANCH  19  20
ATOM     20  C   UNL     1     146.072 126.297 104.920  0.00  0.00    +0.000 C 
ATOM     21  O   UNL     1     145.074 126.400 105.623  0.00  0.00    +0.000 OA
ATOM     22  N   UNL     1     147.238 125.723 105.343  0.00  0.00    +0.000 N 
ATOM     23  H   UNL     1     148.053 125.579 104.757  0.00  0.00    +0.000 HD
BRANCH  22  24
ATOM     24  O   UNL     1     147.268 125.191 106.651  0.00  0.00    +0.000 OA
ATOM     25  H   UNL     1     148.110 125.545 107.009  0.00  0.00    +0.000 HD
ENDBRANCH  22  24
ENDBRANCH  19  20
ENDBRANCH   3  18
TORSDOF 6
ENDMDL
