MODEL 1
REMARK VINA RESULT:      -8.0      0.000      0.000
REMARK  Name = Benzo[a]pyrene.pdbqt.pdb
REMARK  0 active torsions:
REMARK  status: ('A' for Active; 'I' for Inactive)
REMARK                            x       y       z     vdW  Elec       q    Type
REMARK                         _______ _______ _______ _____ _____    ______ ____
ROOT
ATOM      1  C   UNL     1     143.642 124.910 100.649  0.00  0.00    +0.000 A 
ATOM      2  C   UNL     1     142.842 124.264  99.681  0.00  0.00    +0.000 A 
ATOM      3  C   UNL     1     145.038 124.691 100.685  0.00  0.00    +0.000 A 
ATOM      4  C   UNL     1     143.030 125.777 101.579  0.00  0.00    +0.000 A 
ATOM      5  C   UNL     1     145.816 125.352 101.666  0.00  0.00    +0.000 A 
ATOM      6  C   UNL     1     143.433 123.394  98.743  0.00  0.00    +0.000 A 
ATOM      7  C   UNL     1     141.449 124.486  99.650  0.00  0.00    +0.000 A 
ATOM      8  C   UNL     1     145.184 126.216 102.589  0.00  0.00    +0.000 A 
ATOM      9  C   UNL     1     143.807 126.419 102.538  0.00  0.00    +0.000 A 
ATOM     10  C   UNL     1     145.594 123.818  99.734  0.00  0.00    +0.000 A 
ATOM     11  C   UNL     1     141.652 125.987 101.536  0.00  0.00    +0.000 A 
ATOM     12  C   UNL     1     144.808 123.178  98.777  0.00  0.00    +0.000 A 
ATOM     13  C   UNL     1     140.866 125.347 100.579  0.00  0.00    +0.000 A 
ATOM     14  C   UNL     1     142.635 122.761  97.791  0.00  0.00    +0.000 A 
ATOM     15  C   UNL     1     140.668 123.843  98.690  0.00  0.00    +0.000 A 
ATOM     16  C   UNL     1     147.208 125.187 101.767  0.00  0.00    +0.000 A 
ATOM     17  C   UNL     1     145.931 126.877 103.564  0.00  0.00    +0.000 A 
ATOM     18  C   UNL     1     141.259 122.984  97.764  0.00  0.00    +0.000 A 
ATOM     19  C   UNL     1     147.948 125.850 102.743  0.00  0.00    +0.000 A 
ATOM     20  C   UNL     1     147.309 126.696 103.642  0.00  0.00    +0.000 A 
ENDROOT
TORSDOF 0
ENDMDL
MODEL 2
REMARK VINA RESULT:      -7.9      1.072      5.424
REMARK  Name = Benzo[a]pyrene.pdbqt.pdb
REMARK  0 active torsions:
REMARK  status: ('A' for Active; 'I' for Inactive)
REMARK                            x       y       z     vdW  Elec       q    Type
REMARK                         _______ _______ _______ _____ _____    ______ ____
ROOT
ATOM      1  C   UNL     1     143.016 124.815 100.232  0.00  0.00    +0.000 A 
ATOM      2  C   UNL     1     143.660 125.494 101.290  0.00  0.00    +0.000 A 
ATOM      3  C   UNL     1     143.759 124.006  99.343  0.00  0.00    +0.000 A 
ATOM      4  C   UNL     1     141.620 124.954 100.075  0.00  0.00    +0.000 A 
ATOM      5  C   UNL     1     143.087 123.337  98.291  0.00  0.00    +0.000 A 
ATOM      6  C   UNL     1     145.053 125.368 101.465  0.00  0.00    +0.000 A 
ATOM      7  C   UNL     1     142.913 126.299 102.174  0.00  0.00    +0.000 A 
ATOM      8  C   UNL     1     141.689 123.490  98.151  0.00  0.00    +0.000 A 
ATOM      9  C   UNL     1     140.974 124.291  99.037  0.00  0.00    +0.000 A 
ATOM     10  C   UNL     1     145.146 123.904  99.547  0.00  0.00    +0.000 A 
ATOM     11  C   UNL     1     140.895 125.754 100.957  0.00  0.00    +0.000 A 
ATOM     12  C   UNL     1     145.787 124.572 100.589  0.00  0.00    +0.000 A 
ATOM     13  C   UNL     1     141.535 126.422 102.000  0.00  0.00    +0.000 A 
ATOM     14  C   UNL     1     145.680 126.042 102.512  0.00  0.00    +0.000 A 
ATOM     15  C   UNL     1     143.559 126.965 103.215  0.00  0.00    +0.000 A 
ATOM     16  C   UNL     1     143.755 122.516  97.366  0.00  0.00    +0.000 A 
ATOM     17  C   UNL     1     141.007 122.841  97.122  0.00  0.00    +0.000 A 
ATOM     18  C   UNL     1     144.937 126.837 103.383  0.00  0.00    +0.000 A 
ATOM     19  C   UNL     1     143.068 121.870  96.341  0.00  0.00    +0.000 A 
ATOM     20  C   UNL     1     141.693 122.033  96.219  0.00  0.00    +0.000 A 
ENDROOT
TORSDOF 0
ENDMDL
MODEL 3
REMARK VINA RESULT:      -7.8      0.687      2.912
REMARK  Name = Benzo[a]pyrene.pdbqt.pdb
REMARK  0 active torsions:
REMARK  status: ('A' for Active; 'I' for Inactive)
REMARK                            x       y       z     vdW  Elec       q    Type
REMARK                         _______ _______ _______ _____ _____    ______ ____
ROOT
ATOM      1  C   UNL     1     144.005 124.798 100.493  0.00  0.00    +0.000 A 
ATOM      2  C   UNL     1     142.916 124.298  99.745  0.00  0.00    +0.000 A 
ATOM      3  C   UNL     1     143.788 125.718 101.544  0.00  0.00    +0.000 A 
ATOM      4  C   UNL     1     145.311 124.367 100.178  0.00  0.00    +0.000 A 
ATOM      5  C   UNL     1     144.898 126.203 102.278  0.00  0.00    +0.000 A 
ATOM      6  C   UNL     1     141.603 124.716 100.043  0.00  0.00    +0.000 A 
ATOM      7  C   UNL     1     143.138 123.380  98.697  0.00  0.00    +0.000 A 
ATOM      8  C   UNL     1     146.198 125.759 101.946  0.00  0.00    +0.000 A 
ATOM      9  C   UNL     1     146.391 124.852 100.908  0.00  0.00    +0.000 A 
ATOM     10  C   UNL     1     142.466 126.113 101.814  0.00  0.00    +0.000 A 
ATOM     11  C   UNL     1     145.515 123.459  99.140  0.00  0.00    +0.000 A 
ATOM     12  C   UNL     1     141.388 125.622 101.078  0.00  0.00    +0.000 A 
ATOM     13  C   UNL     1     144.437 122.968  98.404  0.00  0.00    +0.000 A 
ATOM     14  C   UNL     1     140.535 124.217  99.299  0.00  0.00    +0.000 A 
ATOM     15  C   UNL     1     142.056 122.893  97.965  0.00  0.00    +0.000 A 
ATOM     16  C   UNL     1     144.766 127.119 103.335  0.00  0.00    +0.000 A 
ATOM     17  C   UNL     1     147.306 126.223 102.655  0.00  0.00    +0.000 A 
ATOM     18  C   UNL     1     140.760 123.310  98.264  0.00  0.00    +0.000 A 
ATOM     19  C   UNL     1     145.876 127.579 104.040  0.00  0.00    +0.000 A 
ATOM     20  C   UNL     1     147.146 127.131 103.700  0.00  0.00    +0.000 A 
ENDROOT
TORSDOF 0
ENDMDL
MODEL 4
REMARK VINA RESULT:      -7.7      0.975      6.081
REMARK  Name = Benzo[a]pyrene.pdbqt.pdb
REMARK  0 active torsions:
REMARK  status: ('A' for Active; 'I' for Inactive)
REMARK                            x       y       z     vdW  Elec       q    Type
REMARK                         _______ _______ _______ _____ _____    ______ ____
ROOT
ATOM      1  C   UNL     1     143.860 124.697 100.168  0.00  0.00    +0.000 A 
ATOM      2  C   UNL     1     144.128 125.528 101.279  0.00  0.00    +0.000 A 
ATOM      3  C   UNL     1     142.537 124.541  99.695  0.00  0.00    +0.000 A 
ATOM      4  C   UNL     1     144.929 124.025  99.539  0.00  0.00    +0.000 A 
ATOM      5  C   UNL     1     142.298 123.702  98.579  0.00  0.00    +0.000 A 
ATOM      6  C   UNL     1     143.075 126.208 101.922  0.00  0.00    +0.000 A 
ATOM      7  C   UNL     1     145.450 125.679 101.747  0.00  0.00    +0.000 A 
ATOM      8  C   UNL     1     143.383 123.038  97.962  0.00  0.00    +0.000 A 
ATOM      9  C   UNL     1     144.678 123.204  98.444  0.00  0.00    +0.000 A 
ATOM     10  C   UNL     1     141.512 125.234 100.360  0.00  0.00    +0.000 A 
ATOM     11  C   UNL     1     146.230 124.185 100.013  0.00  0.00    +0.000 A 
ATOM     12  C   UNL     1     141.772 126.055 101.457  0.00  0.00    +0.000 A 
ATOM     13  C   UNL     1     146.491 125.006 101.110  0.00  0.00    +0.000 A 
ATOM     14  C   UNL     1     143.349 127.026 103.018  0.00  0.00    +0.000 A 
ATOM     15  C   UNL     1     145.703 126.502 102.845  0.00  0.00    +0.000 A 
ATOM     16  C   UNL     1     141.013 123.495  98.049  0.00  0.00    +0.000 A 
ATOM     17  C   UNL     1     143.169 122.207  96.863  0.00  0.00    +0.000 A 
ATOM     18  C   UNL     1     144.657 127.172 103.477  0.00  0.00    +0.000 A 
ATOM     19  C   UNL     1     140.806 122.664  96.950  0.00  0.00    +0.000 A 
ATOM     20  C   UNL     1     141.885 122.020  96.357  0.00  0.00    +0.000 A 
ENDROOT
TORSDOF 0
ENDMDL
MODEL 5
REMARK VINA RESULT:      -7.7     32.745     34.825
REMARK  Name = Benzo[a]pyrene.pdbqt.pdb
REMARK  0 active torsions:
REMARK  status: ('A' for Active; 'I' for Inactive)
REMARK                            x       y       z     vdW  Elec       q    Type
REMARK                         _______ _______ _______ _____ _____    ______ ____
ROOT
ATOM      1  C   UNL     1     136.327 122.317 134.359  0.00  0.00    +0.000 A 
ATOM      2  C   UNL     1     135.170 121.778 134.964  0.00  0.00    +0.000 A 
ATOM      3  C   UNL     1     137.361 122.862 135.153  0.00  0.00    +0.000 A 
ATOM      4  C   UNL     1     136.436 122.303 132.952  0.00  0.00    +0.000 A 
ATOM      5  C   UNL     1     138.511 123.395 134.519  0.00  0.00    +0.000 A 
ATOM      6  C   UNL     1     135.040 121.782 136.368  0.00  0.00    +0.000 A 
ATOM      7  C   UNL     1     134.140 121.235 134.167  0.00  0.00    +0.000 A 
ATOM      8  C   UNL     1     138.601 123.371 133.109  0.00  0.00    +0.000 A 
ATOM      9  C   UNL     1     137.571 122.830 132.344  0.00  0.00    +0.000 A 
ATOM     10  C   UNL     1     137.199 122.849 136.549  0.00  0.00    +0.000 A 
ATOM     11  C   UNL     1     135.411 121.762 132.177  0.00  0.00    +0.000 A 
ATOM     12  C   UNL     1     136.058 122.319 137.151  0.00  0.00    +0.000 A 
ATOM     13  C   UNL     1     134.270 121.232 132.779  0.00  0.00    +0.000 A 
ATOM     14  C   UNL     1     133.894 121.248 136.956  0.00  0.00    +0.000 A 
ATOM     15  C   UNL     1     133.002 120.706 134.775  0.00  0.00    +0.000 A 
ATOM     16  C   UNL     1     139.581 123.954 135.237  0.00  0.00    +0.000 A 
ATOM     17  C   UNL     1     139.723 123.891 132.464  0.00  0.00    +0.000 A 
ATOM     18  C   UNL     1     132.880 120.713 136.164  0.00  0.00    +0.000 A 
ATOM     19  C   UNL     1     140.699 124.472 134.587  0.00  0.00    +0.000 A 
ATOM     20  C   UNL     1     140.770 124.440 133.200  0.00  0.00    +0.000 A 
ENDROOT
TORSDOF 0
ENDMDL
MODEL 6
REMARK VINA RESULT:      -7.6     32.674     34.671
REMARK  Name = Benzo[a]pyrene.pdbqt.pdb
REMARK  0 active torsions:
REMARK  status: ('A' for Active; 'I' for Inactive)
REMARK                            x       y       z     vdW  Elec       q    Type
REMARK                         _______ _______ _______ _____ _____    ______ ____
ROOT
ATOM      1  C   UNL     1     136.385 122.147 134.652  0.00  0.00    +0.000 A 
ATOM      2  C   UNL     1     135.156 121.454 134.595  0.00  0.00    +0.000 A 
ATOM      3  C   UNL     1     137.040 122.539 133.462  0.00  0.00    +0.000 A 
ATOM      4  C   UNL     1     136.950 122.443 135.911  0.00  0.00    +0.000 A 
ATOM      5  C   UNL     1     138.272 123.233 133.549  0.00  0.00    +0.000 A 
ATOM      6  C   UNL     1     134.574 121.148 133.348  0.00  0.00    +0.000 A 
ATOM      7  C   UNL     1     134.506 121.065 135.785  0.00  0.00    +0.000 A 
ATOM      8  C   UNL     1     138.821 123.520 134.820  0.00  0.00    +0.000 A 
ATOM      9  C   UNL     1     138.160 123.125 135.980  0.00  0.00    +0.000 A 
ATOM     10  C   UNL     1     136.432 122.218 132.237  0.00  0.00    +0.000 A 
ATOM     11  C   UNL     1     136.296 122.052 137.078  0.00  0.00    +0.000 A 
ATOM     12  C   UNL     1     135.219 121.534 132.176  0.00  0.00    +0.000 A 
ATOM     13  C   UNL     1     135.083 121.368 137.018  0.00  0.00    +0.000 A 
ATOM     14  C   UNL     1     133.360 120.464 133.302  0.00  0.00    +0.000 A 
ATOM     15  C   UNL     1     133.293 120.381 135.718  0.00  0.00    +0.000 A 
ATOM     16  C   UNL     1     138.985 123.657 132.414  0.00  0.00    +0.000 A 
ATOM     17  C   UNL     1     140.032 124.202 134.928  0.00  0.00    +0.000 A 
ATOM     18  C   UNL     1     132.722 120.082 134.481  0.00  0.00    +0.000 A 
ATOM     19  C   UNL     1     140.194 124.338 132.529  0.00  0.00    +0.000 A 
ATOM     20  C   UNL     1     140.718 124.611 133.787  0.00  0.00    +0.000 A 
ENDROOT
TORSDOF 0
ENDMDL
MODEL 7
REMARK VINA RESULT:      -7.5      2.126      4.306
REMARK  Name = Benzo[a]pyrene.pdbqt.pdb
REMARK  0 active torsions:
REMARK  status: ('A' for Active; 'I' for Inactive)
REMARK                            x       y       z     vdW  Elec       q    Type
REMARK                         _______ _______ _______ _____ _____    ______ ____
ROOT
ATOM      1  C   UNL     1     142.859 124.219  98.764  0.00  0.00    +0.000 A 
ATOM      2  C   UNL     1     142.880 123.341  97.658  0.00  0.00    +0.000 A 
ATOM      3  C   UNL     1     141.636 124.551  99.390  0.00  0.00    +0.000 A 
ATOM      4  C   UNL     1     144.074 124.759  99.236  0.00  0.00    +0.000 A 
ATOM      5  C   UNL     1     141.645 125.434 100.498  0.00  0.00    +0.000 A 
ATOM      6  C   UNL     1     141.678 122.790  97.171  0.00  0.00    +0.000 A 
ATOM      7  C   UNL     1     144.104 123.013  97.036  0.00  0.00    +0.000 A 
ATOM      8  C   UNL     1     142.873 125.964 100.955  0.00  0.00    +0.000 A 
ATOM      9  C   UNL     1     144.067 125.625 100.324  0.00  0.00    +0.000 A 
ATOM     10  C   UNL     1     140.457 123.983  98.878  0.00  0.00    +0.000 A 
ATOM     11  C   UNL     1     145.275 124.426  98.611  0.00  0.00    +0.000 A 
ATOM     12  C   UNL     1     140.473 123.116  97.786  0.00  0.00    +0.000 A 
ATOM     13  C   UNL     1     145.292 123.559  97.520  0.00  0.00    +0.000 A 
ATOM     14  C   UNL     1     141.708 121.924  96.078  0.00  0.00    +0.000 A 
ATOM     15  C   UNL     1     144.113 122.145  95.945  0.00  0.00    +0.000 A 
ATOM     16  C   UNL     1     140.472 125.812 101.174  0.00  0.00    +0.000 A 
ATOM     17  C   UNL     1     142.904 126.835 102.044  0.00  0.00    +0.000 A 
ATOM     18  C   UNL     1     142.920 121.603  95.467  0.00  0.00    +0.000 A 
ATOM     19  C   UNL     1     140.511 126.682 102.261  0.00  0.00    +0.000 A 
ATOM     20  C   UNL     1     141.727 127.194 102.696  0.00  0.00    +0.000 A 
ENDROOT
TORSDOF 0
ENDMDL
MODEL 8
REMARK VINA RESULT:      -7.4     34.630     36.787
REMARK  Name = Benzo[a]pyrene.pdbqt.pdb
REMARK  0 active torsions:
REMARK  status: ('A' for Active; 'I' for Inactive)
REMARK                            x       y       z     vdW  Elec       q    Type
REMARK                         _______ _______ _______ _____ _____    ______ ____
ROOT
ATOM      1  C   UNL     1     135.592 122.489 136.377  0.00  0.00    +0.000 A 
ATOM      2  C   UNL     1     134.936 122.177 137.589  0.00  0.00    +0.000 A 
ATOM      3  C   UNL     1     136.976 122.775 136.366  0.00  0.00    +0.000 A 
ATOM      4  C   UNL     1     134.847 122.511 135.179  0.00  0.00    +0.000 A 
ATOM      5  C   UNL     1     137.608 123.084 135.136  0.00  0.00    +0.000 A 
ATOM      6  C   UNL     1     135.661 122.149 138.797  0.00  0.00    +0.000 A 
ATOM      7  C   UNL     1     133.554 121.893 137.594  0.00  0.00    +0.000 A 
ATOM      8  C   UNL     1     136.844 123.101 133.947  0.00  0.00    +0.000 A 
ATOM      9  C   UNL     1     135.481 122.817 133.979  0.00  0.00    +0.000 A 
ATOM     10  C   UNL     1     137.667 122.738 137.589  0.00  0.00    +0.000 A 
ATOM     11  C   UNL     1     133.482 122.228 135.199  0.00  0.00    +0.000 A 
ATOM     12  C   UNL     1     137.024 122.430 138.787  0.00  0.00    +0.000 A 
ATOM     13  C   UNL     1     132.839 121.921 136.397  0.00  0.00    +0.000 A 
ATOM     14  C   UNL     1     135.005 121.840 139.988  0.00  0.00    +0.000 A 
ATOM     15  C   UNL     1     132.917 121.586 138.796  0.00  0.00    +0.000 A 
ATOM     16  C   UNL     1     138.978 123.379 135.042  0.00  0.00    +0.000 A 
ATOM     17  C   UNL     1     137.445 123.403 132.726  0.00  0.00    +0.000 A 
ATOM     18  C   UNL     1     133.639 121.560 139.988  0.00  0.00    +0.000 A 
ATOM     19  C   UNL     1     139.573 123.680 133.819  0.00  0.00    +0.000 A 
ATOM     20  C   UNL     1     138.806 123.692 132.660  0.00  0.00    +0.000 A 
ENDROOT
TORSDOF 0
ENDMDL
MODEL 9
REMARK VINA RESULT:      -7.1     35.096     36.974
REMARK  Name = Benzo[a]pyrene.pdbqt.pdb
REMARK  0 active torsions:
REMARK  status: ('A' for Active; 'I' for Inactive)
REMARK                            x       y       z     vdW  Elec       q    Type
REMARK                         _______ _______ _______ _____ _____    ______ ____
ROOT
ATOM      1  C   UNL     1     134.317 121.642 135.959  0.00  0.00    +0.000 A 
ATOM      2  C   UNL     1     134.483 121.510 134.563  0.00  0.00    +0.000 A 
ATOM      3  C   UNL     1     135.238 122.396 136.720  0.00  0.00    +0.000 A 
ATOM      4  C   UNL     1     133.220 121.010 136.584  0.00  0.00    +0.000 A 
ATOM      5  C   UNL     1     135.047 122.512 138.120  0.00  0.00    +0.000 A 
ATOM      6  C   UNL     1     135.571 122.133 133.919  0.00  0.00    +0.000 A 
ATOM      7  C   UNL     1     133.560 120.756 133.807  0.00  0.00    +0.000 A 
ATOM      8  C   UNL     1     133.942 121.871 138.726  0.00  0.00    +0.000 A 
ATOM      9  C   UNL     1     133.046 121.132 137.958  0.00  0.00    +0.000 A 
ATOM     10  C   UNL     1     136.312 123.003 136.046  0.00  0.00    +0.000 A 
ATOM     11  C   UNL     1     132.317 120.268 135.824  0.00  0.00    +0.000 A 
ATOM     12  C   UNL     1     136.479 122.876 134.668  0.00  0.00    +0.000 A 
ATOM     13  C   UNL     1     132.484 120.141 134.446  0.00  0.00    +0.000 A 
ATOM     14  C   UNL     1     135.727 121.997 132.540  0.00  0.00    +0.000 A 
ATOM     15  C   UNL     1     133.734 120.632 132.429  0.00  0.00    +0.000 A 
ATOM     16  C   UNL     1     135.918 123.243 138.945  0.00  0.00    +0.000 A 
ATOM     17  C   UNL     1     133.735 121.971 140.101  0.00  0.00    +0.000 A 
ATOM     18  C   UNL     1     134.812 121.251 131.798  0.00  0.00    +0.000 A 
ATOM     19  C   UNL     1     135.706 123.339 140.318  0.00  0.00    +0.000 A 
ATOM     20  C   UNL     1     134.614 122.703 140.897  0.00  0.00    +0.000 A 
ENDROOT
TORSDOF 0
ENDMDL
