MODEL 1
REMARK VINA RESULT:      -7.8      0.000      0.000
REMARK  Name = Bicalutamide.pdbqt.pdb
REMARK  8 active torsions:
REMARK  status: ('A' for Active; 'I' for Inactive)
REMARK    1  A    between atoms: C_2  and  N_13
REMARK    2  A    between atoms: C_5  and  C_9
REMARK    3  A    between atoms: C_6  and  C_8
REMARK    4  A    between atoms: C_14  and  C_17
REMARK    5  A    between atoms: C_17  and  O_19
REMARK    6  A    between atoms: C_17  and  C_21
REMARK    7  A    between atoms: C_21  and  S_22
REMARK    8  A    between atoms: S_22  and  C_25
REMARK                            x       y       z     vdW  Elec       q    Type
REMARK                         _______ _______ _______ _____ _____    ______ ____
ROOT
ATOM      1  N   UNL     1     137.552 122.900 134.494  0.00  0.00    +0.000 N 
ATOM      2  C   UNL     1     137.617 124.013 133.659  0.00  0.00    +0.000 C 
ATOM      3  O   UNL     1     136.766 124.908 133.614  0.00  0.00    +0.000 OA
ATOM      4  H   UNL     1     138.371 122.291 134.504  0.00  0.00    +0.000 HD
ENDROOT
BRANCH   1   5
ATOM      5  C   UNL     1     136.505 122.590 135.377  0.00  0.00    +0.000 A 
ATOM      6  C   UNL     1     136.724 122.789 136.739  0.00  0.00    +0.000 A 
ATOM      7  C   UNL     1     135.279 122.088 134.951  0.00  0.00    +0.000 A 
ATOM      8  C   UNL     1     135.734 122.496 137.685  0.00  0.00    +0.000 A 
ATOM      9  C   UNL     1     134.502 121.992 137.241  0.00  0.00    +0.000 A 
ATOM     10  C   UNL     1     134.283 121.791 135.877  0.00  0.00    +0.000 A 
BRANCH   8  11
ATOM     11  C   UNL     1     136.022 122.728 139.139  0.00  0.00    +0.000 C 
ATOM     12  F   UNL     1     137.334 122.996 139.391  0.00  0.00    +0.000 F 
ATOM     13  F   UNL     1     135.326 123.781 139.642  0.00  0.00    +0.000 F 
ATOM     14  F   UNL     1     135.709 121.653 139.909  0.00  0.00    +0.000 F 
ENDBRANCH   8  11
BRANCH   9  16
ATOM     15  N   UNL     1     132.576 121.420 138.877  0.00  0.00    +0.000 NA
ATOM     16  C   UNL     1     133.440 121.668 138.145  0.00  0.00    +0.000 C 
ENDBRANCH   9  16
ENDBRANCH   1   5
BRANCH   2  17
ATOM     17  C   UNL     1     138.870 124.061 132.694  0.00  0.00    +0.000 C 
ATOM     18  C   UNL     1     139.033 125.466 132.048  0.00  0.00    +0.000 C 
BRANCH  17  19
ATOM     19  O   UNL     1     138.711 123.130 131.636  0.00  0.00    +0.000 OA
ATOM     20  H   UNL     1     137.833 122.731 131.787  0.00  0.00    +0.000 HD
ENDBRANCH  17  19
BRANCH  17  21
ATOM     21  C   UNL     1     140.029 123.707 133.453  0.00  0.00    +0.000 C 
BRANCH  21  22
ATOM     22  S   UNL     1     141.334 123.079 134.390  0.00  0.00    +0.000 S 
ATOM     23  O   UNL     1     142.316 123.003 133.338  0.00  0.00    +0.000 OA
ATOM     24  O   UNL     1     140.614 121.960 134.950  0.00  0.00    +0.000 OA
BRANCH  22  25
ATOM     25  C   UNL     1     141.774 124.234 135.603  0.00  0.00    +0.000 A 
ATOM     26  C   UNL     1     142.985 124.061 136.264  0.00  0.00    +0.000 A 
ATOM     27  C   UNL     1     143.351 124.964 137.259  0.00  0.00    +0.000 A 
ATOM     28  C   UNL     1     142.496 126.016 137.575  0.00  0.00    +0.000 A 
ATOM     29  F   UNL     1     142.848 126.885 138.533  0.00  0.00    +0.000 F 
ATOM     30  C   UNL     1     141.281 126.181 136.915  0.00  0.00    +0.000 A 
ATOM     31  C   UNL     1     140.914 125.280 135.921  0.00  0.00    +0.000 A 
ENDBRANCH  22  25
ENDBRANCH  21  22
ENDBRANCH  17  21
ENDBRANCH   2  17
TORSDOF 8
ENDMDL
MODEL 2
REMARK VINA RESULT:      -7.5      3.497      4.426
REMARK  Name = Bicalutamide.pdbqt.pdb
REMARK  8 active torsions:
REMARK  status: ('A' for Active; 'I' for Inactive)
REMARK    1  A    between atoms: C_2  and  N_13
REMARK    2  A    between atoms: C_5  and  C_9
REMARK    3  A    between atoms: C_6  and  C_8
REMARK    4  A    between atoms: C_14  and  C_17
REMARK    5  A    between atoms: C_17  and  O_19
REMARK    6  A    between atoms: C_17  and  C_21
REMARK    7  A    between atoms: C_21  and  S_22
REMARK    8  A    between atoms: S_22  and  C_25
REMARK                            x       y       z     vdW  Elec       q    Type
REMARK                         _______ _______ _______ _____ _____    ______ ____
ROOT
ATOM      1  N   UNL     1     138.222 122.245 134.055  0.00  0.00    +0.000 N 
ATOM      2  C   UNL     1     138.961 122.813 135.090  0.00  0.00    +0.000 C 
ATOM      3  O   UNL     1     138.557 122.946 136.250  0.00  0.00    +0.000 OA
ATOM      4  H   UNL     1     138.712 122.104 133.171  0.00  0.00    +0.000 HD
ENDROOT
BRANCH   1   5
ATOM      5  C   UNL     1     136.901 121.777 134.145  0.00  0.00    +0.000 A 
ATOM      6  C   UNL     1     136.705 120.460 134.560  0.00  0.00    +0.000 A 
ATOM      7  C   UNL     1     135.797 122.561 133.827  0.00  0.00    +0.000 A 
ATOM      8  C   UNL     1     135.420 119.915 134.667  0.00  0.00    +0.000 A 
ATOM      9  C   UNL     1     134.315 120.718 134.345  0.00  0.00    +0.000 A 
ATOM     10  C   UNL     1     134.511 122.036 133.927  0.00  0.00    +0.000 A 
BRANCH   8  11
ATOM     11  C   UNL     1     135.266 118.493 135.119  0.00  0.00    +0.000 C 
ATOM     12  F   UNL     1     134.709 118.380 136.357  0.00  0.00    +0.000 F 
ATOM     13  F   UNL     1     134.470 117.769 134.288  0.00  0.00    +0.000 F 
ATOM     14  F   UNL     1     136.454 117.837 135.186  0.00  0.00    +0.000 F 
ENDBRANCH   8  11
BRANCH   9  16
ATOM     15  N   UNL     1     131.876 119.858 134.498  0.00  0.00    +0.000 NA
ATOM     16  C   UNL     1     132.970 120.235 134.428  0.00  0.00    +0.000 C 
ENDBRANCH   9  16
ENDBRANCH   1   5
BRANCH   2  17
ATOM     17  C   UNL     1     140.395 123.345 134.683  0.00  0.00    +0.000 C 
ATOM     18  C   UNL     1     141.334 122.177 134.269  0.00  0.00    +0.000 C 
BRANCH  17  19
ATOM     19  O   UNL     1     141.005 124.004 135.780  0.00  0.00    +0.000 OA
ATOM     20  H   UNL     1     141.911 124.202 135.477  0.00  0.00    +0.000 HD
ENDBRANCH  17  19
BRANCH  17  21
ATOM     21  C   UNL     1     140.234 124.279 133.611  0.00  0.00    +0.000 C 
BRANCH  21  22
ATOM     22  S   UNL     1     139.819 125.376 132.347  0.00  0.00    +0.000 S 
ATOM     23  O   UNL     1     138.424 125.033 132.235  0.00  0.00    +0.000 OA
ATOM     24  O   UNL     1     140.859 124.976 131.431  0.00  0.00    +0.000 OA
BRANCH  22  25
ATOM     25  C   UNL     1     140.042 127.000 132.905  0.00  0.00    +0.000 A 
ATOM     26  C   UNL     1     140.906 127.213 133.975  0.00  0.00    +0.000 A 
ATOM     27  C   UNL     1     141.084 128.506 134.457  0.00  0.00    +0.000 A 
ATOM     28  C   UNL     1     140.392 129.559 133.863  0.00  0.00    +0.000 A 
ATOM     29  F   UNL     1     140.564 130.804 134.328  0.00  0.00    +0.000 F 
ATOM     30  C   UNL     1     139.524 129.340 132.797  0.00  0.00    +0.000 A 
ATOM     31  C   UNL     1     139.344 128.048 132.314  0.00  0.00    +0.000 A 
ENDBRANCH  22  25
ENDBRANCH  21  22
ENDBRANCH  17  21
ENDBRANCH   2  17
TORSDOF 8
ENDMDL
MODEL 3
REMARK VINA RESULT:      -7.4     35.345     38.352
REMARK  Name = Bicalutamide.pdbqt.pdb
REMARK  8 active torsions:
REMARK  status: ('A' for Active; 'I' for Inactive)
REMARK    1  A    between atoms: C_2  and  N_13
REMARK    2  A    between atoms: C_5  and  C_9
REMARK    3  A    between atoms: C_6  and  C_8
REMARK    4  A    between atoms: C_14  and  C_17
REMARK    5  A    between atoms: C_17  and  O_19
REMARK    6  A    between atoms: C_17  and  C_21
REMARK    7  A    between atoms: C_21  and  S_22
REMARK    8  A    between atoms: S_22  and  C_25
REMARK                            x       y       z     vdW  Elec       q    Type
REMARK                         _______ _______ _______ _____ _____    ______ ____
ROOT
ATOM      1  N   UNL     1     146.221 125.010  98.530  0.00  0.00    +0.000 N 
ATOM      2  C   UNL     1     146.487 124.418  99.762  0.00  0.00    +0.000 C 
ATOM      3  O   UNL     1     146.483 123.201  99.972  0.00  0.00    +0.000 OA
ATOM      4  H   UNL     1     146.357 126.020  98.472  0.00  0.00    +0.000 HD
ENDROOT
BRANCH   1   5
ATOM      5  C   UNL     1     145.865 124.336  97.351  0.00  0.00    +0.000 A 
ATOM      6  C   UNL     1     144.681 123.600  97.355  0.00  0.00    +0.000 A 
ATOM      7  C   UNL     1     146.644 124.365  96.198  0.00  0.00    +0.000 A 
ATOM      8  C   UNL     1     144.261 122.893  96.222  0.00  0.00    +0.000 A 
ATOM      9  C   UNL     1     145.055 122.932  95.066  0.00  0.00    +0.000 A 
ATOM     10  C   UNL     1     146.242 123.667  95.062  0.00  0.00    +0.000 A 
BRANCH   8  11
ATOM     11  C   UNL     1     142.978 122.116  96.281  0.00  0.00    +0.000 C 
ATOM     12  F   UNL     1     142.537 121.902  97.551  0.00  0.00    +0.000 F 
ATOM     13  F   UNL     1     141.962 122.748  95.637  0.00  0.00    +0.000 F 
ATOM     14  F   UNL     1     143.090 120.886  95.715  0.00  0.00    +0.000 F 
ENDBRANCH   8  11
BRANCH   9  16
ATOM     15  N   UNL     1     144.409 121.661  92.903  0.00  0.00    +0.000 NA
ATOM     16  C   UNL     1     144.695 122.236  93.868  0.00  0.00    +0.000 C 
ENDBRANCH   9  16
ENDBRANCH   1   5
BRANCH   2  17
ATOM     17  C   UNL     1     146.768 125.426 100.949  0.00  0.00    +0.000 C 
ATOM     18  C   UNL     1     147.660 126.612 100.485  0.00  0.00    +0.000 C 
BRANCH  17  19
ATOM     19  O   UNL     1     147.458 124.769 102.000  0.00  0.00    +0.000 OA
ATOM     20  H   UNL     1     147.373 125.370 102.765  0.00  0.00    +0.000 HD
ENDBRANCH  17  19
BRANCH  17  21
ATOM     21  C   UNL     1     145.508 125.893 101.441  0.00  0.00    +0.000 C 
BRANCH  21  22
ATOM     22  S   UNL     1     144.045 126.357 102.227  0.00  0.00    +0.000 S 
ATOM     23  O   UNL     1     144.132 127.775 101.990  0.00  0.00    +0.000 OA
ATOM     24  O   UNL     1     144.313 125.696 103.482  0.00  0.00    +0.000 OA
BRANCH  22  25
ATOM     25  C   UNL     1     142.702 125.645 101.398  0.00  0.00    +0.000 A 
ATOM     26  C   UNL     1     142.953 124.586 100.531  0.00  0.00    +0.000 A 
ATOM     27  C   UNL     1     141.893 124.013  99.835  0.00  0.00    +0.000 A 
ATOM     28  C   UNL     1     140.606 124.512 100.016  0.00  0.00    +0.000 A 
ATOM     29  F   UNL     1     139.586 123.960  99.345  0.00  0.00    +0.000 F 
ATOM     30  C   UNL     1     140.360 125.577 100.878  0.00  0.00    +0.000 A 
ATOM     31  C   UNL     1     141.418 126.152 101.575  0.00  0.00    +0.000 A 
ENDBRANCH  22  25
ENDBRANCH  21  22
ENDBRANCH  17  21
ENDBRANCH   2  17
TORSDOF 8
ENDMDL
MODEL 4
REMARK VINA RESULT:      -7.3     34.447     36.422
REMARK  Name = Bicalutamide.pdbqt.pdb
REMARK  8 active torsions:
REMARK  status: ('A' for Active; 'I' for Inactive)
REMARK    1  A    between atoms: C_2  and  N_13
REMARK    2  A    between atoms: C_5  and  C_9
REMARK    3  A    between atoms: C_6  and  C_8
REMARK    4  A    between atoms: C_14  and  C_17
REMARK    5  A    between atoms: C_17  and  O_19
REMARK    6  A    between atoms: C_17  and  C_21
REMARK    7  A    between atoms: C_21  and  S_22
REMARK    8  A    between atoms: S_22  and  C_25
REMARK                            x       y       z     vdW  Elec       q    Type
REMARK                         _______ _______ _______ _____ _____    ______ ____
ROOT
ATOM      1  N   UNL     1     143.932 126.832 101.693  0.00  0.00    +0.000 N 
ATOM      2  C   UNL     1     144.781 126.598 102.772  0.00  0.00    +0.000 C 
ATOM      3  O   UNL     1     144.502 125.888 103.744  0.00  0.00    +0.000 OA
ATOM      4  H   UNL     1     144.325 127.356 100.910  0.00  0.00    +0.000 HD
ENDROOT
BRANCH   1   5
ATOM      5  C   UNL     1     142.622 126.344 101.553  0.00  0.00    +0.000 A 
ATOM      6  C   UNL     1     142.371 125.444 100.518  0.00  0.00    +0.000 A 
ATOM      7  C   UNL     1     141.577 126.729 102.387  0.00  0.00    +0.000 A 
ATOM      8  C   UNL     1     141.091 124.920 100.305  0.00  0.00    +0.000 A 
ATOM      9  C   UNL     1     140.047 125.315 101.155  0.00  0.00    +0.000 A 
ATOM     10  C   UNL     1     140.297 126.218 102.190  0.00  0.00    +0.000 A 
BRANCH   8  11
ATOM     11  C   UNL     1     140.876 123.954  99.177  0.00  0.00    +0.000 C 
ATOM     12  F   UNL     1     141.832 124.037  98.209  0.00  0.00    +0.000 F 
ATOM     13  F   UNL     1     140.883 122.661  99.594  0.00  0.00    +0.000 F 
ATOM     14  F   UNL     1     139.690 124.151  98.544  0.00  0.00    +0.000 F 
ENDBRANCH   8  11
BRANCH   9  16
ATOM     15  N   UNL     1     137.624 124.438 100.887  0.00  0.00    +0.000 NA
ATOM     16  C   UNL     1     138.711 124.823 101.004  0.00  0.00    +0.000 C 
ENDBRANCH   9  16
ENDBRANCH   1   5
BRANCH   2  17
ATOM     17  C   UNL     1     146.170 127.354 102.714  0.00  0.00    +0.000 C 
ATOM     18  C   UNL     1     147.240 126.639 103.587  0.00  0.00    +0.000 C 
BRANCH  17  19
ATOM     19  O   UNL     1     146.033 128.673 103.215  0.00  0.00    +0.000 OA
ATOM     20  H   UNL     1     145.653 128.560 104.107  0.00  0.00    +0.000 HD
ENDBRANCH  17  19
BRANCH  17  21
ATOM     21  C   UNL     1     146.583 127.418 101.346  0.00  0.00    +0.000 C 
BRANCH  21  22
ATOM     22  S   UNL     1     146.967 127.305  99.668  0.00  0.00    +0.000 S 
ATOM     23  O   UNL     1     148.385 127.086  99.803  0.00  0.00    +0.000 OA
ATOM     24  O   UNL     1     146.342 128.543  99.270  0.00  0.00    +0.000 OA
BRANCH  22  25
ATOM     25  C   UNL     1     146.163 125.930  98.990  0.00  0.00    +0.000 A 
ATOM     26  C   UNL     1     146.182 124.739  99.709  0.00  0.00    +0.000 A 
ATOM     27  C   UNL     1     145.562 123.613  99.174  0.00  0.00    +0.000 A 
ATOM     28  C   UNL     1     144.942 123.700  97.930  0.00  0.00    +0.000 A 
ATOM     29  F   UNL     1     144.346 122.616  97.416  0.00  0.00    +0.000 F 
ATOM     30  C   UNL     1     144.932 124.892  97.211  0.00  0.00    +0.000 A 
ATOM     31  C   UNL     1     145.551 126.018  97.743  0.00  0.00    +0.000 A 
ENDBRANCH  22  25
ENDBRANCH  21  22
ENDBRANCH  17  21
ENDBRANCH   2  17
TORSDOF 8
ENDMDL
MODEL 5
REMARK VINA RESULT:      -6.9      2.570      3.361
REMARK  Name = Bicalutamide.pdbqt.pdb
REMARK  8 active torsions:
REMARK  status: ('A' for Active; 'I' for Inactive)
REMARK    1  A    between atoms: C_2  and  N_13
REMARK    2  A    between atoms: C_5  and  C_9
REMARK    3  A    between atoms: C_6  and  C_8
REMARK    4  A    between atoms: C_14  and  C_17
REMARK    5  A    between atoms: C_17  and  O_19
REMARK    6  A    between atoms: C_17  and  C_21
REMARK    7  A    between atoms: C_21  and  S_22
REMARK    8  A    between atoms: S_22  and  C_25
REMARK                            x       y       z     vdW  Elec       q    Type
REMARK                         _______ _______ _______ _____ _____    ______ ____
ROOT
ATOM      1  N   UNL     1     136.067 122.580 136.309  0.00  0.00    +0.000 N 
ATOM      2  C   UNL     1     137.379 122.322 135.919  0.00  0.00    +0.000 C 
ATOM      3  O   UNL     1     138.186 121.650 136.569  0.00  0.00    +0.000 OA
ATOM      4  H   UNL     1     135.477 123.064 135.631  0.00  0.00    +0.000 HD
ENDROOT
BRANCH   1   5
ATOM      5  C   UNL     1     135.465 122.162 137.508  0.00  0.00    +0.000 A 
ATOM      6  C   UNL     1     135.692 122.929 138.650  0.00  0.00    +0.000 A 
ATOM      7  C   UNL     1     134.673 121.023 137.600  0.00  0.00    +0.000 A 
ATOM      8  C   UNL     1     135.136 122.575 139.885  0.00  0.00    +0.000 A 
ATOM      9  C   UNL     1     134.337 121.424 139.963  0.00  0.00    +0.000 A 
ATOM     10  C   UNL     1     134.112 120.655 138.820  0.00  0.00    +0.000 A 
BRANCH   8  11
ATOM     11  C   UNL     1     135.412 123.436 141.083  0.00  0.00    +0.000 C 
ATOM     12  F   UNL     1     136.159 124.537 140.793  0.00  0.00    +0.000 F 
ATOM     13  F   UNL     1     134.272 123.902 141.659  0.00  0.00    +0.000 F 
ATOM     14  F   UNL     1     136.093 122.771 142.054  0.00  0.00    +0.000 F 
ENDBRANCH   8  11
BRANCH   9  16
ATOM     15  N   UNL     1     133.240 120.636 142.174  0.00  0.00    +0.000 NA
ATOM     16  C   UNL     1     133.733 120.996 141.188  0.00  0.00    +0.000 C 
ENDBRANCH   9  16
ENDBRANCH   1   5
BRANCH   2  17
ATOM     17  C   UNL     1     137.824 122.999 134.560  0.00  0.00    +0.000 C 
ATOM     18  C   UNL     1     136.825 124.110 134.127  0.00  0.00    +0.000 C 
BRANCH  17  19
ATOM     19  O   UNL     1     137.855 122.036 133.518  0.00  0.00    +0.000 OA
ATOM     20  H   UNL     1     137.986 121.183 133.975  0.00  0.00    +0.000 HD
ENDBRANCH  17  19
BRANCH  17  21
ATOM     21  C   UNL     1     139.139 123.532 134.739  0.00  0.00    +0.000 C 
BRANCH  21  22
ATOM     22  S   UNL     1     140.671 124.323 134.796  0.00  0.00    +0.000 S 
ATOM     23  O   UNL     1     140.507 124.982 136.066  0.00  0.00    +0.000 OA
ATOM     24  O   UNL     1     140.581 124.955 133.502  0.00  0.00    +0.000 OA
BRANCH  22  25
ATOM     25  C   UNL     1     141.926 123.131 134.845  0.00  0.00    +0.000 A 
ATOM     26  C   UNL     1     142.964 123.308 135.754  0.00  0.00    +0.000 A 
ATOM     27  C   UNL     1     143.996 122.376 135.797  0.00  0.00    +0.000 A 
ATOM     28  C   UNL     1     143.973 121.289 134.927  0.00  0.00    +0.000 A 
ATOM     29  F   UNL     1     144.967 120.392 134.968  0.00  0.00    +0.000 F 
ATOM     30  C   UNL     1     142.936 121.119 134.013  0.00  0.00    +0.000 A 
ATOM     31  C   UNL     1     141.903 122.050 133.969  0.00  0.00    +0.000 A 
ENDBRANCH  22  25
ENDBRANCH  21  22
ENDBRANCH  17  21
ENDBRANCH   2  17
TORSDOF 8
ENDMDL
MODEL 6
REMARK VINA RESULT:      -6.9     35.657     38.866
REMARK  Name = Bicalutamide.pdbqt.pdb
REMARK  8 active torsions:
REMARK  status: ('A' for Active; 'I' for Inactive)
REMARK    1  A    between atoms: C_2  and  N_13
REMARK    2  A    between atoms: C_5  and  C_9
REMARK    3  A    between atoms: C_6  and  C_8
REMARK    4  A    between atoms: C_14  and  C_17
REMARK    5  A    between atoms: C_17  and  O_19
REMARK    6  A    between atoms: C_17  and  C_21
REMARK    7  A    between atoms: C_21  and  S_22
REMARK    8  A    between atoms: S_22  and  C_25
REMARK                            x       y       z     vdW  Elec       q    Type
REMARK                         _______ _______ _______ _____ _____    ______ ____
ROOT
ATOM      1  N   UNL     1     142.872 127.390  99.386  0.00  0.00    +0.000 N 
ATOM      2  C   UNL     1     144.131 127.805  99.812  0.00  0.00    +0.000 C 
ATOM      3  O   UNL     1     144.894 128.522  99.156  0.00  0.00    +0.000 OA
ATOM      4  H   UNL     1     142.305 126.884 100.067  0.00  0.00    +0.000 HD
ENDROOT
BRANCH   1   5
ATOM      5  C   UNL     1     142.286 127.678  98.142  0.00  0.00    +0.000 A 
ATOM      6  C   UNL     1     142.492 126.773  97.102  0.00  0.00    +0.000 A 
ATOM      7  C   UNL     1     141.528 128.821  97.909  0.00  0.00    +0.000 A 
ATOM      8  C   UNL     1     141.949 126.991  95.830  0.00  0.00    +0.000 A 
ATOM      9  C   UNL     1     141.185 128.147  95.609  0.00  0.00    +0.000 A 
ATOM     10  C   UNL     1     140.980 129.054  96.650  0.00  0.00    +0.000 A 
BRANCH   8  11
ATOM     11  C   UNL     1     142.203 125.984  94.746  0.00  0.00    +0.000 C 
ATOM     12  F   UNL     1     143.008 124.960  95.141  0.00  0.00    +0.000 F 
ATOM     13  F   UNL     1     141.057 125.404  94.302  0.00  0.00    +0.000 F 
ATOM     14  F   UNL     1     142.806 126.533  93.659  0.00  0.00    +0.000 F 
ENDBRANCH   8  11
BRANCH   9  16
ATOM     15  N   UNL     1     140.111 128.690  93.315  0.00  0.00    +0.000 NA
ATOM     16  C   UNL     1     140.597 128.442  94.338  0.00  0.00    +0.000 C 
ENDBRANCH   9  16
ENDBRANCH   1   5
BRANCH   2  17
ATOM     17  C   UNL     1     144.581 127.252 101.225  0.00  0.00    +0.000 C 
ATOM     18  C   UNL     1     143.678 127.806 102.362  0.00  0.00    +0.000 C 
BRANCH  17  19
ATOM     19  O   UNL     1     145.910 127.657 101.511  0.00  0.00    +0.000 OA
ATOM     20  H   UNL     1     146.471 127.027 101.020  0.00  0.00    +0.000 HD
ENDBRANCH  17  19
BRANCH  17  21
ATOM     21  C   UNL     1     144.532 125.823 101.179  0.00  0.00    +0.000 C 
BRANCH  21  22
ATOM     22  S   UNL     1     144.529 124.120 100.909  0.00  0.00    +0.000 S 
ATOM     23  O   UNL     1     144.062 123.713 102.210  0.00  0.00    +0.000 OA
ATOM     24  O   UNL     1     145.889 124.024 100.436  0.00  0.00    +0.000 OA
BRANCH  22  25
ATOM     25  C   UNL     1     143.386 123.741  99.664  0.00  0.00    +0.000 A 
ATOM     26  C   UNL     1     142.053 124.075  99.875  0.00  0.00    +0.000 A 
ATOM     27  C   UNL     1     141.111 123.761  98.899  0.00  0.00    +0.000 A 
ATOM     28  C   UNL     1     141.521 123.114  97.737  0.00  0.00    +0.000 A 
ATOM     29  F   UNL     1     140.615 122.812  96.798  0.00  0.00    +0.000 F 
ATOM     30  C   UNL     1     142.856 122.775  97.533  0.00  0.00    +0.000 A 
ATOM     31  C   UNL     1     143.798 123.089  98.507  0.00  0.00    +0.000 A 
ENDBRANCH  22  25
ENDBRANCH  21  22
ENDBRANCH  17  21
ENDBRANCH   2  17
TORSDOF 8
ENDMDL
MODEL 7
REMARK VINA RESULT:      -6.8     34.214     37.250
REMARK  Name = Bicalutamide.pdbqt.pdb
REMARK  8 active torsions:
REMARK  status: ('A' for Active; 'I' for Inactive)
REMARK    1  A    between atoms: C_2  and  N_13
REMARK    2  A    between atoms: C_5  and  C_9
REMARK    3  A    between atoms: C_6  and  C_8
REMARK    4  A    between atoms: C_14  and  C_17
REMARK    5  A    between atoms: C_17  and  O_19
REMARK    6  A    between atoms: C_17  and  C_21
REMARK    7  A    between atoms: C_21  and  S_22
REMARK    8  A    between atoms: S_22  and  C_25
REMARK                            x       y       z     vdW  Elec       q    Type
REMARK                         _______ _______ _______ _____ _____    ______ ____
ROOT
ATOM      1  N   UNL     1     145.883 125.697  98.942  0.00  0.00    +0.000 N 
ATOM      2  C   UNL     1     146.396 126.868  98.391  0.00  0.00    +0.000 C 
ATOM      3  O   UNL     1     146.079 127.322  97.286  0.00  0.00    +0.000 OA
ATOM      4  H   UNL     1     146.154 125.490  99.904  0.00  0.00    +0.000 HD
ENDROOT
BRANCH   1   5
ATOM      5  C   UNL     1     144.969 124.827  98.327  0.00  0.00    +0.000 A 
ATOM      6  C   UNL     1     143.646 124.857  98.767  0.00  0.00    +0.000 A 
ATOM      7  C   UNL     1     145.330 123.938  97.319  0.00  0.00    +0.000 A 
ATOM      8  C   UNL     1     142.675 124.015  98.211  0.00  0.00    +0.000 A 
ATOM      9  C   UNL     1     143.053 123.126  97.194  0.00  0.00    +0.000 A 
ATOM     10  C   UNL     1     144.378 123.093  96.755  0.00  0.00    +0.000 A 
BRANCH   8  11
ATOM     11  C   UNL     1     141.266 124.090  98.721  0.00  0.00    +0.000 C 
ATOM     12  F   UNL     1     141.055 125.135  99.568  0.00  0.00    +0.000 F 
ATOM     13  F   UNL     1     140.360 124.236  97.719  0.00  0.00    +0.000 F 
ATOM     14  F   UNL     1     140.904 122.976  99.411  0.00  0.00    +0.000 F 
ENDBRANCH   8  11
BRANCH   9  16
ATOM     15  N   UNL     1     141.359 121.521  96.067  0.00  0.00    +0.000 NA
ATOM     16  C   UNL     1     142.120 122.233  96.575  0.00  0.00    +0.000 C 
ENDBRANCH   9  16
ENDBRANCH   1   5
BRANCH   2  17
ATOM     17  C   UNL     1     147.488 127.605  99.267  0.00  0.00    +0.000 C 
ATOM     18  C   UNL     1     147.584 129.113  98.902  0.00  0.00    +0.000 C 
BRANCH  17  19
ATOM     19  O   UNL     1     148.768 127.037  99.038  0.00  0.00    +0.000 OA
ATOM     20  H   UNL     1     149.288 127.273  99.830  0.00  0.00    +0.000 HD
ENDBRANCH  17  19
BRANCH  17  21
ATOM     21  C   UNL     1     147.143 127.431 100.645  0.00  0.00    +0.000 C 
BRANCH  21  22
ATOM     22  S   UNL     1     146.606 127.046 102.238  0.00  0.00    +0.000 S 
ATOM     23  O   UNL     1     147.093 128.228 102.903  0.00  0.00    +0.000 OA
ATOM     24  O   UNL     1     147.207 125.736 102.305  0.00  0.00    +0.000 OA
BRANCH  22  25
ATOM     25  C   UNL     1     144.876 126.964 102.253  0.00  0.00    +0.000 A 
ATOM     26  C   UNL     1     144.177 127.692 101.295  0.00  0.00    +0.000 A 
ATOM     27  C   UNL     1     142.786 127.660 101.300  0.00  0.00    +0.000 A 
ATOM     28  C   UNL     1     142.123 126.907 102.265  0.00  0.00    +0.000 A 
ATOM     29  F   UNL     1     140.783 126.877 102.270  0.00  0.00    +0.000 F 
ATOM     30  C   UNL     1     142.826 126.186 103.226  0.00  0.00    +0.000 A 
ATOM     31  C   UNL     1     144.217 126.216 103.223  0.00  0.00    +0.000 A 
ENDBRANCH  22  25
ENDBRANCH  21  22
ENDBRANCH  17  21
ENDBRANCH   2  17
TORSDOF 8
ENDMDL
MODEL 8
REMARK VINA RESULT:      -6.3     34.245     37.474
REMARK  Name = Bicalutamide.pdbqt.pdb
REMARK  8 active torsions:
REMARK  status: ('A' for Active; 'I' for Inactive)
REMARK    1  A    between atoms: C_2  and  N_13
REMARK    2  A    between atoms: C_5  and  C_9
REMARK    3  A    between atoms: C_6  and  C_8
REMARK    4  A    between atoms: C_14  and  C_17
REMARK    5  A    between atoms: C_17  and  O_19
REMARK    6  A    between atoms: C_17  and  C_21
REMARK    7  A    between atoms: C_21  and  S_22
REMARK    8  A    between atoms: S_22  and  C_25
REMARK                            x       y       z     vdW  Elec       q    Type
REMARK                         _______ _______ _______ _____ _____    ______ ____
ROOT
ATOM      1  N   UNL     1     144.450 125.028  99.023  0.00  0.00    +0.000 N 
ATOM      2  C   UNL     1     143.990 123.757  98.685  0.00  0.00    +0.000 C 
ATOM      3  O   UNL     1     144.144 122.747  99.378  0.00  0.00    +0.000 OA
ATOM      4  H   UNL     1     144.167 125.793  98.409  0.00  0.00    +0.000 HD
ENDROOT
BRANCH   1   5
ATOM      5  C   UNL     1     145.191 125.359 100.169  0.00  0.00    +0.000 A 
ATOM      6  C   UNL     1     144.550 126.087 101.170  0.00  0.00    +0.000 A 
ATOM      7  C   UNL     1     146.526 125.004 100.335  0.00  0.00    +0.000 A 
ATOM      8  C   UNL     1     145.222 126.464 102.339  0.00  0.00    +0.000 A 
ATOM      9  C   UNL     1     146.567 126.098 102.494  0.00  0.00    +0.000 A 
ATOM     10  C   UNL     1     147.211 125.371 101.491  0.00  0.00    +0.000 A 
BRANCH   8  11
ATOM     11  C   UNL     1     144.484 127.247 103.385  0.00  0.00    +0.000 C 
ATOM     12  F   UNL     1     144.442 126.622 104.594  0.00  0.00    +0.000 F 
ATOM     13  F   UNL     1     145.047 128.462 103.615  0.00  0.00    +0.000 F 
ATOM     14  F   UNL     1     143.189 127.479 103.042  0.00  0.00    +0.000 F 
ENDBRANCH   8  11
BRANCH   9  16
ATOM     15  N   UNL     1     147.924 126.730 104.609  0.00  0.00    +0.000 NA
ATOM     16  C   UNL     1     147.324 126.445 103.659  0.00  0.00    +0.000 C 
ENDBRANCH   9  16
ENDBRANCH   1   5
BRANCH   2  17
ATOM     17  C   UNL     1     143.263 123.654  97.283  0.00  0.00    +0.000 C 
ATOM     18  C   UNL     1     141.732 123.446  97.453  0.00  0.00    +0.000 C 
BRANCH  17  19
ATOM     19  O   UNL     1     143.758 122.543  96.553  0.00  0.00    +0.000 OA
ATOM     20  H   UNL     1     143.399 121.763  97.017  0.00  0.00    +0.000 HD
ENDBRANCH  17  19
BRANCH  17  21
ATOM     21  C   UNL     1     143.540 124.851  96.550  0.00  0.00    +0.000 C 
BRANCH  21  22
ATOM     22  S   UNL     1     143.799 126.404  95.846  0.00  0.00    +0.000 S 
ATOM     23  O   UNL     1     143.086 126.185  94.613  0.00  0.00    +0.000 OA
ATOM     24  O   UNL     1     145.234 126.418  95.996  0.00  0.00    +0.000 OA
BRANCH  22  25
ATOM     25  C   UNL     1     143.036 127.610  96.827  0.00  0.00    +0.000 A 
ATOM     26  C   UNL     1     141.762 128.037  96.469  0.00  0.00    +0.000 A 
ATOM     27  C   UNL     1     141.137 129.021  97.229  0.00  0.00    +0.000 A 
ATOM     28  C   UNL     1     141.801 129.562  98.327  0.00  0.00    +0.000 A 
ATOM     29  F   UNL     1     141.199 130.510  99.058  0.00  0.00    +0.000 F 
ATOM     30  C   UNL     1     143.080 129.137  98.678  0.00  0.00    +0.000 A 
ATOM     31  C   UNL     1     143.706 128.153  97.919  0.00  0.00    +0.000 A 
ENDBRANCH  22  25
ENDBRANCH  21  22
ENDBRANCH  17  21
ENDBRANCH   2  17
TORSDOF 8
ENDMDL
MODEL 9
REMARK VINA RESULT:      -6.3     34.594     37.840
REMARK  Name = Bicalutamide.pdbqt.pdb
REMARK  8 active torsions:
REMARK  status: ('A' for Active; 'I' for Inactive)
REMARK    1  A    between atoms: C_2  and  N_13
REMARK    2  A    between atoms: C_5  and  C_9
REMARK    3  A    between atoms: C_6  and  C_8
REMARK    4  A    between atoms: C_14  and  C_17
REMARK    5  A    between atoms: C_17  and  O_19
REMARK    6  A    between atoms: C_17  and  C_21
REMARK    7  A    between atoms: C_21  and  S_22
REMARK    8  A    between atoms: S_22  and  C_25
REMARK                            x       y       z     vdW  Elec       q    Type
REMARK                         _______ _______ _______ _____ _____    ______ ____
ROOT
ATOM      1  N   UNL     1     145.943 125.625  98.679  0.00  0.00    +0.000 N 
ATOM      2  C   UNL     1     147.109 126.180  98.158  0.00  0.00    +0.000 C 
ATOM      3  O   UNL     1     147.970 126.761  98.827  0.00  0.00    +0.000 OA
ATOM      4  H   UNL     1     145.367 125.085  98.031  0.00  0.00    +0.000 HD
ENDROOT
BRANCH   1   5
ATOM      5  C   UNL     1     145.536 125.671 100.022  0.00  0.00    +0.000 A 
ATOM      6  C   UNL     1     146.042 126.696 100.820  0.00  0.00    +0.000 A 
ATOM      7  C   UNL     1     144.668 124.738 100.582  0.00  0.00    +0.000 A 
ATOM      8  C   UNL     1     145.692 126.806 102.171  0.00  0.00    +0.000 A 
ATOM      9  C   UNL     1     144.815 125.860 102.723  0.00  0.00    +0.000 A 
ATOM     10  C   UNL     1     144.309 124.832 101.925  0.00  0.00    +0.000 A 
BRANCH   8  11
ATOM     11  C   UNL     1     146.266 127.929 102.985  0.00  0.00    +0.000 C 
ATOM     12  F   UNL     1     147.062 127.502 104.004  0.00  0.00    +0.000 F 
ATOM     13  F   UNL     1     147.035 128.766 102.240  0.00  0.00    +0.000 F 
ATOM     14  F   UNL     1     145.304 128.696 103.562  0.00  0.00    +0.000 F 
ENDBRANCH   8  11
BRANCH   9  16
ATOM     15  N   UNL     1     144.093 125.935 105.210  0.00  0.00    +0.000 NA
ATOM     16  C   UNL     1     144.409 125.904 104.095  0.00  0.00    +0.000 C 
ENDBRANCH   9  16
ENDBRANCH   1   5
BRANCH   2  17
ATOM     17  C   UNL     1     147.269 126.064  96.588  0.00  0.00    +0.000 C 
ATOM     18  C   UNL     1     148.661 125.488  96.202  0.00  0.00    +0.000 C 
BRANCH  17  19
ATOM     19  O   UNL     1     147.165 127.345  95.987  0.00  0.00    +0.000 OA
ATOM     20  H   UNL     1     147.414 127.201  95.054  0.00  0.00    +0.000 HD
ENDBRANCH  17  19
BRANCH  17  21
ATOM     21  C   UNL     1     146.214 125.233  96.095  0.00  0.00    +0.000 C 
BRANCH  21  22
ATOM     22  S   UNL     1     144.982 124.324  95.300  0.00  0.00    +0.000 S 
ATOM     23  O   UNL     1     145.785 123.187  94.926  0.00  0.00    +0.000 OA
ATOM     24  O   UNL     1     144.546 125.374  94.412  0.00  0.00    +0.000 OA
BRANCH  22  25
ATOM     25  C   UNL     1     143.757 123.900  96.448  0.00  0.00    +0.000 A 
ATOM     26  C   UNL     1     142.816 124.865  96.789  0.00  0.00    +0.000 A 
ATOM     27  C   UNL     1     141.834 124.555  97.727  0.00  0.00    +0.000 A 
ATOM     28  C   UNL     1     141.818 123.290  98.306  0.00  0.00    +0.000 A 
ATOM     29  F   UNL     1     140.873 122.992  99.209  0.00  0.00    +0.000 F 
ATOM     30  C   UNL     1     142.766 122.329  97.967  0.00  0.00    +0.000 A 
ATOM     31  C   UNL     1     143.748 122.636  97.031  0.00  0.00    +0.000 A 
ENDBRANCH  22  25
ENDBRANCH  21  22
ENDBRANCH  17  21
ENDBRANCH   2  17
TORSDOF 8
ENDMDL
