REMARK  Name = Bicalutamide.pdbqt.pdb
REMARK  8 active torsions:
REMARK  status: ('A' for Active; 'I' for Inactive)
REMARK    1  A    between atoms: C_2  and  N_13
REMARK    2  A    between atoms: C_5  and  C_9
REMARK    3  A    between atoms: C_6  and  C_8
REMARK    4  A    between atoms: C_14  and  C_17
REMARK    5  A    between atoms: C_17  and  O_19
REMARK    6  A    between atoms: C_17  and  C_21
REMARK    7  A    between atoms: C_21  and  S_22
REMARK    8  A    between atoms: S_22  and  C_25
REMARK                            x       y       z     vdW  Elec       q    Type
REMARK                         _______ _______ _______ _____ _____    ______ ____
ROOT
ATOM      1  N   UNL     1      -0.841   1.002   0.564  0.00  0.00    +0.000 N 
ATOM      2  C   UNL     1       0.040   2.015   0.194  0.00  0.00    +0.000 C 
ATOM      3  O   UNL     1      -0.244   2.953  -0.558  0.00  0.00    +0.000 OA
ATOM      4  H   UNL     1      -0.508   0.345   1.271  0.00  0.00    +0.000 HD
ENDROOT
BRANCH   1   5
ATOM      5  C   UNL     1      -2.164   0.855   0.117  0.00  0.00    +0.000 A 
ATOM      6  C   UNL     1      -2.913  -0.199   0.639  0.00  0.00    +0.000 A 
ATOM      7  C   UNL     1      -2.744   1.701  -0.823  0.00  0.00    +0.000 A 
ATOM      8  C   UNL     1      -4.236  -0.419   0.238  0.00  0.00    +0.000 A 
ATOM      9  C   UNL     1      -4.809   0.443  -0.709  0.00  0.00    +0.000 A 
ATOM     10  C   UNL     1      -4.059   1.497  -1.234  0.00  0.00    +0.000 A 
BRANCH   8  11
ATOM     11  C   UNL     1      -4.997  -1.568   0.832  0.00  0.00    +0.000 C 
ATOM     12  F   UNL     1      -4.269  -2.288   1.730  0.00  0.00    +0.000 F 
ATOM     13  F   UNL     1      -6.110  -1.162   1.498  0.00  0.00    +0.000 F 
ATOM     14  F   UNL     1      -5.411  -2.458  -0.108  0.00  0.00    +0.000 F 
ENDBRANCH   8  11
BRANCH   9  16
ATOM     15  N   UNL     1      -7.247   0.146  -1.534  0.00  0.00    +0.000 NA
ATOM     16  C   UNL     1      -6.155   0.285  -1.170  0.00  0.00    +0.000 C 
ENDBRANCH   9  16
ENDBRANCH   1   5
BRANCH   2  17
ATOM     17  C   UNL     1       1.506   1.880   0.775  0.00  0.00    +0.000 C 
ATOM     18  C   UNL     1       1.490   1.324   2.227  0.00  0.00    +0.000 C 
BRANCH  17  19
ATOM     19  O   UNL     1       2.136   3.150   0.820  0.00  0.00    +0.000 OA
ATOM     20  H   UNL     1       1.702   3.666   0.114  0.00  0.00    +0.000 HD
ENDBRANCH  17  19
BRANCH  17  21
ATOM     21  C   UNL     1       2.251   1.023  -0.095  0.00  0.00    +0.000 C 
BRANCH  21  22
ATOM     22  S   UNL     1       2.952  -0.095  -1.206  0.00  0.00    +0.000 S 
ATOM     23  O   UNL     1       3.186   0.824  -2.291  0.00  0.00    +0.000 OA
ATOM     24  O   UNL     1       1.894  -1.074  -1.147  0.00  0.00    +0.000 OA
BRANCH  22  25
ATOM     25  C   UNL     1       4.432  -0.704  -0.545  0.00  0.00    +0.000 A 
ATOM     26  C   UNL     1       4.972  -1.859  -1.101  0.00  0.00    +0.000 A 
ATOM     27  C   UNL     1       6.149  -2.381  -0.572  0.00  0.00    +0.000 A 
ATOM     28  C   UNL     1       6.758  -1.741   0.504  0.00  0.00    +0.000 A 
ATOM     29  F   UNL     1       7.891  -2.244   1.013  0.00  0.00    +0.000 F 
ATOM     30  C   UNL     1       6.210  -0.589   1.062  0.00  0.00    +0.000 A 
ATOM     31  C   UNL     1       5.034  -0.066   0.535  0.00  0.00    +0.000 A 
ENDBRANCH  22  25
ENDBRANCH  21  22
ENDBRANCH  17  21
ENDBRANCH   2  17
TORSDOF 8
