MODEL 1
REMARK VINA RESULT:      -6.4      0.000      0.000
REMARK  Name = Bisphenol_A.pdbqt.pdb
REMARK  4 active torsions:
REMARK  status: ('A' for Active; 'I' for Inactive)
REMARK    1  A    between atoms: C_1  and  C_4
REMARK    2  A    between atoms: C_1  and  C_12
REMARK    3  A    between atoms: C_7  and  O_10
REMARK    4  A    between atoms: C_15  and  O_18
REMARK                            x       y       z     vdW  Elec       q    Type
REMARK                         _______ _______ _______ _____ _____    ______ ____
ROOT
ATOM      1  C   UNL     1     140.031 124.098 133.811  0.00  0.00    +0.000 C 
ATOM      2  C   UNL     1     140.957 122.903 134.234  0.00  0.00    +0.000 C 
ATOM      3  C   UNL     1     140.089 124.229 132.247  0.00  0.00    +0.000 C 
ENDROOT
BRANCH   1   4
ATOM      4  C   UNL     1     138.615 123.758 134.301  0.00  0.00    +0.000 A 
ATOM      5  C   UNL     1     137.495 124.239 133.599  0.00  0.00    +0.000 A 
ATOM      6  C   UNL     1     136.197 123.965 134.025  0.00  0.00    +0.000 A 
ATOM      7  C   UNL     1     136.005 123.206 135.173  0.00  0.00    +0.000 A 
ATOM      8  C   UNL     1     137.088 122.722 135.896  0.00  0.00    +0.000 A 
ATOM      9  C   UNL     1     138.382 123.005 135.461  0.00  0.00    +0.000 A 
BRANCH   7  10
ATOM     10  O   UNL     1     134.749 122.916 135.617  0.00  0.00    +0.000 OA
ATOM     11  H   UNL     1     134.485 123.592 136.265  0.00  0.00    +0.000 HD
ENDBRANCH   7  10
ENDBRANCH   1   4
BRANCH   1  12
ATOM     12  C   UNL     1     140.523 125.433 134.388  0.00  0.00    +0.000 A 
ATOM     13  C   UNL     1     140.429 126.608 133.619  0.00  0.00    +0.000 A 
ATOM     14  C   UNL     1     140.882 127.832 134.105  0.00  0.00    +0.000 A 
ATOM     15  C   UNL     1     141.443 127.894 135.375  0.00  0.00    +0.000 A 
ATOM     16  C   UNL     1     141.557 126.752 136.159  0.00  0.00    +0.000 A 
ATOM     17  C   UNL     1     141.103 125.533 135.661  0.00  0.00    +0.000 A 
BRANCH  15  18
ATOM     18  O   UNL     1     141.891 129.077 135.883  0.00  0.00    +0.000 OA
ATOM     19  H   UNL     1     142.698 129.334 135.404  0.00  0.00    +0.000 HD
ENDBRANCH  15  18
ENDBRANCH   1  12
TORSDOF 4
ENDMDL
MODEL 2
REMARK VINA RESULT:      -6.4      0.410      5.484
REMARK  Name = Bisphenol_A.pdbqt.pdb
REMARK  4 active torsions:
REMARK  status: ('A' for Active; 'I' for Inactive)
REMARK    1  A    between atoms: C_1  and  C_4
REMARK    2  A    between atoms: C_1  and  C_12
REMARK    3  A    between atoms: C_7  and  O_10
REMARK    4  A    between atoms: C_15  and  O_18
REMARK                            x       y       z     vdW  Elec       q    Type
REMARK                         _______ _______ _______ _____ _____    ______ ____
ROOT
ATOM      1  C   UNL     1     140.061 124.436 133.475  0.00  0.00    +0.000 C 
ATOM      2  C   UNL     1     139.967 124.681 131.927  0.00  0.00    +0.000 C 
ATOM      3  C   UNL     1     141.107 123.292 133.725  0.00  0.00    +0.000 C 
ENDROOT
BRANCH   1   4
ATOM      4  C   UNL     1     140.506 125.762 134.109  0.00  0.00    +0.000 A 
ATOM      5  C   UNL     1     140.291 126.973 133.427  0.00  0.00    +0.000 A 
ATOM      6  C   UNL     1     140.698 128.193 133.965  0.00  0.00    +0.000 A 
ATOM      7  C   UNL     1     141.335 128.212 135.199  0.00  0.00    +0.000 A 
ATOM      8  C   UNL     1     141.572 127.034 135.897  0.00  0.00    +0.000 A 
ATOM      9  C   UNL     1     141.162 125.820 135.347  0.00  0.00    +0.000 A 
BRANCH   7  10
ATOM     10  O   UNL     1     141.743 129.388 135.756  0.00  0.00    +0.000 OA
ATOM     11  H   UNL     1     141.531 129.371 136.706  0.00  0.00    +0.000 HD
ENDBRANCH   7  10
ENDBRANCH   1   4
BRANCH   1  12
ATOM     12  C   UNL     1     138.726 123.951 134.058  0.00  0.00    +0.000 A 
ATOM     13  C   UNL     1     137.513 124.401 133.505  0.00  0.00    +0.000 A 
ATOM     14  C   UNL     1     136.284 123.995 134.020  0.00  0.00    +0.000 A 
ATOM     15  C   UNL     1     136.256 123.131 135.107  0.00  0.00    +0.000 A 
ATOM     16  C   UNL     1     137.434 122.672 135.683  0.00  0.00    +0.000 A 
ATOM     17  C   UNL     1     138.657 123.087 135.161  0.00  0.00    +0.000 A 
BRANCH  15  18
ATOM     18  O   UNL     1     135.070 122.709 135.633  0.00  0.00    +0.000 OA
ATOM     19  H   UNL     1     134.553 122.282 134.928  0.00  0.00    +0.000 HD
ENDBRANCH  15  18
ENDBRANCH   1  12
TORSDOF 4
ENDMDL
MODEL 3
REMARK VINA RESULT:      -6.2      2.034      5.615
REMARK  Name = Bisphenol_A.pdbqt.pdb
REMARK  4 active torsions:
REMARK  status: ('A' for Active; 'I' for Inactive)
REMARK    1  A    between atoms: C_1  and  C_4
REMARK    2  A    between atoms: C_1  and  C_12
REMARK    3  A    between atoms: C_7  and  O_10
REMARK    4  A    between atoms: C_15  and  O_18
REMARK                            x       y       z     vdW  Elec       q    Type
REMARK                         _______ _______ _______ _____ _____    ______ ____
ROOT
ATOM      1  C   UNL     1     138.878 124.288 133.585  0.00  0.00    +0.000 C 
ATOM      2  C   UNL     1     138.769 125.823 133.276  0.00  0.00    +0.000 C 
ATOM      3  C   UNL     1     138.831 123.512 132.220  0.00  0.00    +0.000 C 
ENDROOT
BRANCH   1   4
ATOM      4  C   UNL     1     140.213 124.075 134.314  0.00  0.00    +0.000 A 
ATOM      5  C   UNL     1     140.953 122.898 134.095  0.00  0.00    +0.000 A 
ATOM      6  C   UNL     1     142.158 122.664 134.754  0.00  0.00    +0.000 A 
ATOM      7  C   UNL     1     142.637 123.611 135.651  0.00  0.00    +0.000 A 
ATOM      8  C   UNL     1     141.928 124.781 135.898  0.00  0.00    +0.000 A 
ATOM      9  C   UNL     1     140.723 125.002 135.235  0.00  0.00    +0.000 A 
BRANCH   7  10
ATOM     10  O   UNL     1     143.815 123.416 136.309  0.00  0.00    +0.000 OA
ATOM     11  H   UNL     1     143.731 123.778 137.208  0.00  0.00    +0.000 HD
ENDBRANCH   7  10
ENDBRANCH   1   4
BRANCH   1  12
ATOM     12  C   UNL     1     137.691 123.788 134.421  0.00  0.00    +0.000 A 
ATOM     13  C   UNL     1     136.378 124.143 134.061  0.00  0.00    +0.000 A 
ATOM     14  C   UNL     1     135.281 123.722 134.807  0.00  0.00    +0.000 A 
ATOM     15  C   UNL     1     135.487 122.937 135.935  0.00  0.00    +0.000 A 
ATOM     16  C   UNL     1     136.770 122.572 136.324  0.00  0.00    +0.000 A 
ATOM     17  C   UNL     1     137.861 123.002 135.571  0.00  0.00    +0.000 A 
BRANCH  15  18
ATOM     18  O   UNL     1     134.435 122.502 136.685  0.00  0.00    +0.000 OA
ATOM     19  H   UNL     1     134.644 121.615 137.027  0.00  0.00    +0.000 HD
ENDBRANCH  15  18
ENDBRANCH   1  12
TORSDOF 4
ENDMDL
MODEL 4
REMARK VINA RESULT:      -6.1      2.932      7.249
REMARK  Name = Bisphenol_A.pdbqt.pdb
REMARK  4 active torsions:
REMARK  status: ('A' for Active; 'I' for Inactive)
REMARK    1  A    between atoms: C_1  and  C_4
REMARK    2  A    between atoms: C_1  and  C_12
REMARK    3  A    between atoms: C_7  and  O_10
REMARK    4  A    between atoms: C_15  and  O_18
REMARK                            x       y       z     vdW  Elec       q    Type
REMARK                         _______ _______ _______ _____ _____    ______ ____
ROOT
ATOM      1  C   UNL     1     135.745 122.867 135.029  0.00  0.00    +0.000 C 
ATOM      2  C   UNL     1     136.116 122.053 136.319  0.00  0.00    +0.000 C 
ATOM      3  C   UNL     1     134.780 124.032 135.449  0.00  0.00    +0.000 C 
ENDROOT
BRANCH   1   4
ATOM      4  C   UNL     1     137.062 123.401 134.446  0.00  0.00    +0.000 A 
ATOM      5  C   UNL     1     138.273 122.744 134.731  0.00  0.00    +0.000 A 
ATOM      6  C   UNL     1     139.488 123.211 134.234  0.00  0.00    +0.000 A 
ATOM      7  C   UNL     1     139.504 124.354 133.444  0.00  0.00    +0.000 A 
ATOM      8  C   UNL     1     138.328 125.033 133.149  0.00  0.00    +0.000 A 
ATOM      9  C   UNL     1     137.120 124.557 133.655  0.00  0.00    +0.000 A 
BRANCH   7  10
ATOM     10  O   UNL     1     140.675 124.836 132.938  0.00  0.00    +0.000 OA
ATOM     11  H   UNL     1     141.337 124.853 133.650  0.00  0.00    +0.000 HD
ENDBRANCH   7  10
ENDBRANCH   1   4
BRANCH   1  12
ATOM     12  C   UNL     1     134.985 122.006 134.010  0.00  0.00    +0.000 A 
ATOM     13  C   UNL     1     133.942 121.164 134.440  0.00  0.00    +0.000 A 
ATOM     14  C   UNL     1     133.244 120.358 133.546  0.00  0.00    +0.000 A 
ATOM     15  C   UNL     1     133.587 120.381 132.199  0.00  0.00    +0.000 A 
ATOM     16  C   UNL     1     134.616 121.194 131.740  0.00  0.00    +0.000 A 
ATOM     17  C   UNL     1     135.309 121.995 132.646  0.00  0.00    +0.000 A 
BRANCH  15  18
ATOM     18  O   UNL     1     132.920 119.608 131.295  0.00  0.00    +0.000 OA
ATOM     19  H   UNL     1     133.198 119.869 130.400  0.00  0.00    +0.000 HD
ENDBRANCH  15  18
ENDBRANCH   1  12
TORSDOF 4
ENDMDL
MODEL 5
REMARK VINA RESULT:      -5.9     33.061     34.389
REMARK  Name = Bisphenol_A.pdbqt.pdb
REMARK  4 active torsions:
REMARK  status: ('A' for Active; 'I' for Inactive)
REMARK    1  A    between atoms: C_1  and  C_4
REMARK    2  A    between atoms: C_1  and  C_12
REMARK    3  A    between atoms: C_7  and  O_10
REMARK    4  A    between atoms: C_15  and  O_18
REMARK                            x       y       z     vdW  Elec       q    Type
REMARK                         _______ _______ _______ _____ _____    ______ ____
ROOT
ATOM      1  C   UNL     1     142.988 126.867  99.703  0.00  0.00    +0.000 C 
ATOM      2  C   UNL     1     143.084 126.751  98.141  0.00  0.00    +0.000 C 
ATOM      3  C   UNL     1     142.858 128.387 100.072  0.00  0.00    +0.000 C 
ENDROOT
BRANCH   1   4
ATOM      4  C   UNL     1     141.748 126.069 100.133  0.00  0.00    +0.000 A 
ATOM      5  C   UNL     1     141.456 124.839  99.517  0.00  0.00    +0.000 A 
ATOM      6  C   UNL     1     140.330 124.098  99.869  0.00  0.00    +0.000 A 
ATOM      7  C   UNL     1     139.473 124.589 100.847  0.00  0.00    +0.000 A 
ATOM      8  C   UNL     1     139.726 125.804 101.471  0.00  0.00    +0.000 A 
ATOM      9  C   UNL     1     140.854 126.536 101.108  0.00  0.00    +0.000 A 
BRANCH   7  10
ATOM     10  O   UNL     1     138.364 123.888 101.219  0.00  0.00    +0.000 OA
ATOM     11  H   UNL     1     138.314 123.078 100.682  0.00  0.00    +0.000 HD
ENDBRANCH   7  10
ENDBRANCH   1   4
BRANCH   1  12
ATOM     12  C   UNL     1     144.259 126.349 100.393  0.00  0.00    +0.000 A 
ATOM     13  C   UNL     1     145.194 125.590  99.666  0.00  0.00    +0.000 A 
ATOM     14  C   UNL     1     146.348 125.091 100.264  0.00  0.00    +0.000 A 
ATOM     15  C   UNL     1     146.579 125.344 101.611  0.00  0.00    +0.000 A 
ATOM     16  C   UNL     1     145.674 126.085 102.361  0.00  0.00    +0.000 A 
ATOM     17  C   UNL     1     144.521 126.577 101.752  0.00  0.00    +0.000 A 
BRANCH  15  18
ATOM     18  O   UNL     1     147.701 124.876 102.227  0.00  0.00    +0.000 OA
ATOM     19  H   UNL     1     147.434 124.362 103.009  0.00  0.00    +0.000 HD
ENDBRANCH  15  18
ENDBRANCH   1  12
TORSDOF 4
ENDMDL
MODEL 6
REMARK VINA RESULT:      -5.8     33.682     35.698
REMARK  Name = Bisphenol_A.pdbqt.pdb
REMARK  4 active torsions:
REMARK  status: ('A' for Active; 'I' for Inactive)
REMARK    1  A    between atoms: C_1  and  C_4
REMARK    2  A    between atoms: C_1  and  C_12
REMARK    3  A    between atoms: C_7  and  O_10
REMARK    4  A    between atoms: C_15  and  O_18
REMARK                            x       y       z     vdW  Elec       q    Type
REMARK                         _______ _______ _______ _____ _____    ______ ____
ROOT
ATOM      1  C   UNL     1     146.251 126.186 101.146  0.00  0.00    +0.000 C 
ATOM      2  C   UNL     1     145.392 126.858 102.275  0.00  0.00    +0.000 C 
ATOM      3  C   UNL     1     147.546 125.594 101.807  0.00  0.00    +0.000 C 
ENDROOT
BRANCH   1   4
ATOM      4  C   UNL     1     145.380 125.088 100.519  0.00  0.00    +0.000 A 
ATOM      5  C   UNL     1     145.928 124.222  99.555  0.00  0.00    +0.000 A 
ATOM      6  C   UNL     1     145.162 123.226  98.953  0.00  0.00    +0.000 A 
ATOM      7  C   UNL     1     143.825 123.090  99.307  0.00  0.00    +0.000 A 
ATOM      8  C   UNL     1     143.248 123.933 100.248  0.00  0.00    +0.000 A 
ATOM      9  C   UNL     1     144.025 124.927 100.842  0.00  0.00    +0.000 A 
BRANCH   7  10
ATOM     10  O   UNL     1     143.048 122.124  98.740  0.00  0.00    +0.000 OA
ATOM     11  H   UNL     1     143.614 121.550  98.195  0.00  0.00    +0.000 HD
ENDBRANCH   7  10
ENDBRANCH   1   4
BRANCH   1  12
ATOM     12  C   UNL     1     146.714 127.208 100.098  0.00  0.00    +0.000 A 
ATOM     13  C   UNL     1     145.782 128.079  99.505  0.00  0.00    +0.000 A 
ATOM     14  C   UNL     1     146.165 129.005  98.538  0.00  0.00    +0.000 A 
ATOM     15  C   UNL     1     147.497 129.067  98.147  0.00  0.00    +0.000 A 
ATOM     16  C   UNL     1     148.444 128.218  98.706  0.00  0.00    +0.000 A 
ATOM     17  C   UNL     1     148.048 127.293  99.671  0.00  0.00    +0.000 A 
BRANCH  15  18
ATOM     18  O   UNL     1     147.908 129.966  97.207  0.00  0.00    +0.000 OA
ATOM     19  H   UNL     1     147.380 130.778  97.305  0.00  0.00    +0.000 HD
ENDBRANCH  15  18
ENDBRANCH   1  12
TORSDOF 4
ENDMDL
MODEL 7
REMARK VINA RESULT:      -5.7     32.796     34.903
REMARK  Name = Bisphenol_A.pdbqt.pdb
REMARK  4 active torsions:
REMARK  status: ('A' for Active; 'I' for Inactive)
REMARK    1  A    between atoms: C_1  and  C_4
REMARK    2  A    between atoms: C_1  and  C_12
REMARK    3  A    between atoms: C_7  and  O_10
REMARK    4  A    between atoms: C_15  and  O_18
REMARK                            x       y       z     vdW  Elec       q    Type
REMARK                         _______ _______ _______ _____ _____    ______ ____
ROOT
ATOM      1  C   UNL     1     145.624 126.122  99.912  0.00  0.00    +0.000 C 
ATOM      2  C   UNL     1     146.194 124.673  99.711  0.00  0.00    +0.000 C 
ATOM      3  C   UNL     1     144.275 126.229  99.115  0.00  0.00    +0.000 C 
ENDROOT
BRANCH   1   4
ATOM      4  C   UNL     1     145.409 126.310 101.421  0.00  0.00    +0.000 A 
ATOM      5  C   UNL     1     144.333 125.670 102.063  0.00  0.00    +0.000 A 
ATOM      6  C   UNL     1     144.099 125.833 103.426  0.00  0.00    +0.000 A 
ATOM      7  C   UNL     1     144.943 126.651 104.168  0.00  0.00    +0.000 A 
ATOM      8  C   UNL     1     146.010 127.305 103.565  0.00  0.00    +0.000 A 
ATOM      9  C   UNL     1     146.233 127.136 102.200  0.00  0.00    +0.000 A 
BRANCH   7  10
ATOM     10  O   UNL     1     144.745 126.829 105.505  0.00  0.00    +0.000 OA
ATOM     11  H   UNL     1     145.612 126.923 105.937  0.00  0.00    +0.000 HD
ENDBRANCH   7  10
ENDBRANCH   1   4
BRANCH   1  12
ATOM     12  C   UNL     1     146.565 127.190  99.338  0.00  0.00    +0.000 A 
ATOM     13  C   UNL     1     146.037 128.387  98.819  0.00  0.00    +0.000 A 
ATOM     14  C   UNL     1     146.860 129.369  98.274  0.00  0.00    +0.000 A 
ATOM     15  C   UNL     1     148.234 129.161  98.239  0.00  0.00    +0.000 A 
ATOM     16  C   UNL     1     148.789 127.989  98.737  0.00  0.00    +0.000 A 
ATOM     17  C   UNL     1     147.955 127.012  99.276  0.00  0.00    +0.000 A 
BRANCH  15  18
ATOM     18  O   UNL     1     149.070 130.104  97.719  0.00  0.00    +0.000 OA
ATOM     19  H   UNL     1     149.928 130.043  98.175  0.00  0.00    +0.000 HD
ENDBRANCH  15  18
ENDBRANCH   1  12
TORSDOF 4
ENDMDL
MODEL 8
REMARK VINA RESULT:      -5.6      2.556      4.269
REMARK  Name = Bisphenol_A.pdbqt.pdb
REMARK  4 active torsions:
REMARK  status: ('A' for Active; 'I' for Inactive)
REMARK    1  A    between atoms: C_1  and  C_4
REMARK    2  A    between atoms: C_1  and  C_12
REMARK    3  A    between atoms: C_7  and  O_10
REMARK    4  A    between atoms: C_15  and  O_18
REMARK                            x       y       z     vdW  Elec       q    Type
REMARK                         _______ _______ _______ _____ _____    ______ ____
ROOT
ATOM      1  C   UNL     1     136.521 122.312 134.824  0.00  0.00    +0.000 C 
ATOM      2  C   UNL     1     136.875 120.806 134.561  0.00  0.00    +0.000 C 
ATOM      3  C   UNL     1     135.195 122.643 134.050  0.00  0.00    +0.000 C 
ENDROOT
BRANCH   1   4
ATOM      4  C   UNL     1     136.348 122.471 136.342  0.00  0.00    +0.000 A 
ATOM      5  C   UNL     1     137.439 122.241 137.200  0.00  0.00    +0.000 A 
ATOM      6  C   UNL     1     137.313 122.358 138.583  0.00  0.00    +0.000 A 
ATOM      7  C   UNL     1     136.082 122.703 139.126  0.00  0.00    +0.000 A 
ATOM      8  C   UNL     1     134.981 122.930 138.309  0.00  0.00    +0.000 A 
ATOM      9  C   UNL     1     135.119 122.807 136.928  0.00  0.00    +0.000 A 
BRANCH   7  10
ATOM     10  O   UNL     1     135.925 122.831 140.474  0.00  0.00    +0.000 OA
ATOM     11  H   UNL     1     135.010 123.110 140.655  0.00  0.00    +0.000 HD
ENDBRANCH   7  10
ENDBRANCH   1   4
BRANCH   1  12
ATOM     12  C   UNL     1     137.601 123.256 134.277  0.00  0.00    +0.000 A 
ATOM     13  C   UNL     1     138.960 122.909 134.388  0.00  0.00    +0.000 A 
ATOM     14  C   UNL     1     139.966 123.749 133.918  0.00  0.00    +0.000 A 
ATOM     15  C   UNL     1     139.620 124.960 133.331  0.00  0.00    +0.000 A 
ATOM     16  C   UNL     1     138.289 125.339 133.211  0.00  0.00    +0.000 A 
ATOM     17  C   UNL     1     137.291 124.491 133.687  0.00  0.00    +0.000 A 
BRANCH  15  18
ATOM     18  O   UNL     1     140.579 125.805 132.855  0.00  0.00    +0.000 OA
ATOM     19  H   UNL     1     140.159 126.651 132.621  0.00  0.00    +0.000 HD
ENDBRANCH  15  18
ENDBRANCH   1  12
TORSDOF 4
ENDMDL
MODEL 9
REMARK VINA RESULT:      -5.6     33.026     35.379
REMARK  Name = Bisphenol_A.pdbqt.pdb
REMARK  4 active torsions:
REMARK  status: ('A' for Active; 'I' for Inactive)
REMARK    1  A    between atoms: C_1  and  C_4
REMARK    2  A    between atoms: C_1  and  C_12
REMARK    3  A    between atoms: C_7  and  O_10
REMARK    4  A    between atoms: C_15  and  O_18
REMARK                            x       y       z     vdW  Elec       q    Type
REMARK                         _______ _______ _______ _____ _____    ______ ____
ROOT
ATOM      1  C   UNL     1     146.392 125.638 100.650  0.00  0.00    +0.000 C 
ATOM      2  C   UNL     1     146.201 124.289  99.872  0.00  0.00    +0.000 C 
ATOM      3  C   UNL     1     147.401 125.384 101.826  0.00  0.00    +0.000 C 
ENDROOT
BRANCH   1   4
ATOM      4  C   UNL     1     146.939 126.660  99.642  0.00  0.00    +0.000 A 
ATOM      5  C   UNL     1     147.205 127.979 100.054  0.00  0.00    +0.000 A 
ATOM      6  C   UNL     1     147.684 128.936  99.161  0.00  0.00    +0.000 A 
ATOM      7  C   UNL     1     147.899 128.581  97.835  0.00  0.00    +0.000 A 
ATOM      8  C   UNL     1     147.639 127.290  97.392  0.00  0.00    +0.000 A 
ATOM      9  C   UNL     1     147.157 126.343  98.294  0.00  0.00    +0.000 A 
BRANCH   7  10
ATOM     10  O   UNL     1     148.371 129.491  96.937  0.00  0.00    +0.000 OA
ATOM     11  H   UNL     1     147.704 129.613  96.239  0.00  0.00    +0.000 HD
ENDBRANCH   7  10
ENDBRANCH   1   4
BRANCH   1  12
ATOM     12  C   UNL     1     145.080 126.120 101.287  0.00  0.00    +0.000 A 
ATOM     13  C   UNL     1     144.992 126.275 102.683  0.00  0.00    +0.000 A 
ATOM     14  C   UNL     1     143.813 126.693 103.294  0.00  0.00    +0.000 A 
ATOM     15  C   UNL     1     142.697 126.958 102.509  0.00  0.00    +0.000 A 
ATOM     16  C   UNL     1     142.746 126.809 101.128  0.00  0.00    +0.000 A 
ATOM     17  C   UNL     1     143.931 126.388 100.528  0.00  0.00    +0.000 A 
BRANCH  15  18
ATOM     18  O   UNL     1     141.528 127.375 103.075  0.00  0.00    +0.000 OA
ATOM     19  H   UNL     1     141.648 127.414 104.040  0.00  0.00    +0.000 HD
ENDBRANCH  15  18
ENDBRANCH   1  12
TORSDOF 4
ENDMDL
