MODEL 1
REMARK VINA RESULT:      -2.9      0.000      0.000
REMARK  Name = CadmiumAcetate.pdbqt.pdb
REMARK  1 active torsions:
REMARK  status: ('A' for Active; 'I' for Inactive)
REMARK    1  A    between atoms: C_3  and  O_4
REMARK                            x       y       z     vdW  Elec       q    Type
REMARK                         _______ _______ _______ _____ _____    ______ ____
ROOT
ATOM      1  O   UNL     1     139.815 127.067 114.694  0.00  0.00    +0.000 OA
ATOM      2  C   UNL     1     140.102 126.325 112.537  0.00  0.00    +0.000 C 
ATOM      3  C   UNL     1     139.880 126.091 113.976  0.00  0.00    +0.000 C 
ENDROOT
BRANCH   3   4
ATOM      4  O   UNL     1     139.769 124.818 114.353  0.00  0.00    +0.000 OA
ATOM      5  H   UNL     1     140.482 124.729 115.012  0.00  0.00    +0.000 HD
ENDBRANCH   3   4
TORSDOF 1
ENDMDL
MODEL 2
REMARK VINA RESULT:      -2.9      8.199      8.662
REMARK  Name = CadmiumAcetate.pdbqt.pdb
REMARK  1 active torsions:
REMARK  status: ('A' for Active; 'I' for Inactive)
REMARK    1  A    between atoms: C_3  and  O_4
REMARK                            x       y       z     vdW  Elec       q    Type
REMARK                         _______ _______ _______ _____ _____    ______ ____
ROOT
ATOM      1  O   UNL     1     142.537 127.542 121.325  0.00  0.00    +0.000 OA
ATOM      2  C   UNL     1     142.320 126.592 123.407  0.00  0.00    +0.000 C 
ATOM      3  C   UNL     1     141.867 126.808 122.020  0.00  0.00    +0.000 C 
ENDROOT
BRANCH   3   4
ATOM      4  O   UNL     1     140.754 126.170 121.660  0.00  0.00    +0.000 OA
ATOM      5  H   UNL     1     140.146 126.903 121.454  0.00  0.00    +0.000 HD
ENDBRANCH   3   4
TORSDOF 1
ENDMDL
MODEL 3
REMARK VINA RESULT:      -2.8      8.245      8.655
REMARK  Name = CadmiumAcetate.pdbqt.pdb
REMARK  1 active torsions:
REMARK  status: ('A' for Active; 'I' for Inactive)
REMARK    1  A    between atoms: C_3  and  O_4
REMARK                            x       y       z     vdW  Elec       q    Type
REMARK                         _______ _______ _______ _____ _____    ______ ____
ROOT
ATOM      1  O   UNL     1     143.740 125.393 106.284  0.00  0.00    +0.000 OA
ATOM      2  C   UNL     1     144.645 126.295 108.196  0.00  0.00    +0.000 C 
ATOM      3  C   UNL     1     144.751 125.524 106.942  0.00  0.00    +0.000 C 
ENDROOT
BRANCH   3   4
ATOM      4  O   UNL     1     145.958 125.043 106.649  0.00  0.00    +0.000 OA
ATOM      5  H   UNL     1     146.402 125.813 106.247  0.00  0.00    +0.000 HD
ENDBRANCH   3   4
TORSDOF 1
ENDMDL
MODEL 4
REMARK VINA RESULT:      -2.6      2.344      2.767
REMARK  Name = CadmiumAcetate.pdbqt.pdb
REMARK  1 active torsions:
REMARK  status: ('A' for Active; 'I' for Inactive)
REMARK    1  A    between atoms: C_3  and  O_4
REMARK                            x       y       z     vdW  Elec       q    Type
REMARK                         _______ _______ _______ _____ _____    ______ ____
ROOT
ATOM      1  O   UNL     1     140.481 125.350 112.470  0.00  0.00    +0.000 OA
ATOM      2  C   UNL     1     140.938 127.303 111.346  0.00  0.00    +0.000 C 
ATOM      3  C   UNL     1     140.079 126.141 111.643  0.00  0.00    +0.000 C 
ENDROOT
BRANCH   3   4
ATOM      4  O   UNL     1     138.932 126.072 110.969  0.00  0.00    +0.000 OA
ATOM      5  H   UNL     1     139.189 126.379 110.079  0.00  0.00    +0.000 HD
ENDBRANCH   3   4
TORSDOF 1
ENDMDL
MODEL 5
REMARK VINA RESULT:      -2.5     22.786     23.094
REMARK  Name = CadmiumAcetate.pdbqt.pdb
REMARK  1 active torsions:
REMARK  status: ('A' for Active; 'I' for Inactive)
REMARK    1  A    between atoms: C_3  and  O_4
REMARK                            x       y       z     vdW  Elec       q    Type
REMARK                         _______ _______ _______ _____ _____    ______ ____
ROOT
ATOM      1  O   UNL     1     141.637 128.155 136.232  0.00  0.00    +0.000 OA
ATOM      2  C   UNL     1     141.374 126.230 137.461  0.00  0.00    +0.000 C 
ATOM      3  C   UNL     1     142.205 127.206 136.732  0.00  0.00    +0.000 C 
ENDROOT
BRANCH   3   4
ATOM      4  O   UNL     1     143.512 126.951 136.693  0.00  0.00    +0.000 OA
ATOM      5  H   UNL     1     143.589 126.356 135.924  0.00  0.00    +0.000 HD
ENDBRANCH   3   4
TORSDOF 1
ENDMDL
MODEL 6
REMARK VINA RESULT:      -2.5     14.777     15.361
REMARK  Name = CadmiumAcetate.pdbqt.pdb
REMARK  1 active torsions:
REMARK  status: ('A' for Active; 'I' for Inactive)
REMARK    1  A    between atoms: C_3  and  O_4
REMARK                            x       y       z     vdW  Elec       q    Type
REMARK                         _______ _______ _______ _____ _____    ______ ____
ROOT
ATOM      1  O   UNL     1     141.793 133.169 101.404  0.00  0.00    +0.000 OA
ATOM      2  C   UNL     1     142.614 134.989 102.545  0.00  0.00    +0.000 C 
ATOM      3  C   UNL     1     142.216 134.302 101.302  0.00  0.00    +0.000 C 
ENDROOT
BRANCH   3   4
ATOM      4  O   UNL     1     142.360 134.998 100.175  0.00  0.00    +0.000 OA
ATOM      5  H   UNL     1     141.746 134.548  99.567  0.00  0.00    +0.000 HD
ENDBRANCH   3   4
TORSDOF 1
ENDMDL
MODEL 7
REMARK VINA RESULT:      -2.5      3.344      3.540
REMARK  Name = CadmiumAcetate.pdbqt.pdb
REMARK  1 active torsions:
REMARK  status: ('A' for Active; 'I' for Inactive)
REMARK    1  A    between atoms: C_3  and  O_4
REMARK                            x       y       z     vdW  Elec       q    Type
REMARK                         _______ _______ _______ _____ _____    ______ ____
ROOT
ATOM      1  O   UNL     1     139.058 128.295 110.412  0.00  0.00    +0.000 OA
ATOM      2  C   UNL     1     141.114 127.555 111.129  0.00  0.00    +0.000 C 
ATOM      3  C   UNL     1     139.694 127.335 110.795  0.00  0.00    +0.000 C 
ENDROOT
BRANCH   3   4
ATOM      4  O   UNL     1     139.241 126.091 110.947  0.00  0.00    +0.000 OA
ATOM      5  H   UNL     1     139.022 126.059 111.896  0.00  0.00    +0.000 HD
ENDBRANCH   3   4
TORSDOF 1
ENDMDL
MODEL 8
REMARK VINA RESULT:      -2.4     14.091     14.406
REMARK  Name = CadmiumAcetate.pdbqt.pdb
REMARK  1 active torsions:
REMARK  status: ('A' for Active; 'I' for Inactive)
REMARK    1  A    between atoms: C_3  and  O_4
REMARK                            x       y       z     vdW  Elec       q    Type
REMARK                         _______ _______ _______ _____ _____    ______ ____
ROOT
ATOM      1  O   UNL     1     146.686 124.450 101.162  0.00  0.00    +0.000 OA
ATOM      2  C   UNL     1     147.313 126.661 101.090  0.00  0.00    +0.000 C 
ATOM      3  C   UNL     1     147.340 125.319 101.701  0.00  0.00    +0.000 C 
ENDROOT
BRANCH   3   4
ATOM      4  O   UNL     1     148.088 125.187 102.796  0.00  0.00    +0.000 OA
ATOM      5  H   UNL     1     147.878 125.998 103.295  0.00  0.00    +0.000 HD
ENDBRANCH   3   4
TORSDOF 1
ENDMDL
MODEL 9
REMARK VINA RESULT:      -2.4     13.961     14.522
REMARK  Name = CadmiumAcetate.pdbqt.pdb
REMARK  1 active torsions:
REMARK  status: ('A' for Active; 'I' for Inactive)
REMARK    1  A    between atoms: C_3  and  O_4
REMARK                            x       y       z     vdW  Elec       q    Type
REMARK                         _______ _______ _______ _____ _____    ______ ____
ROOT
ATOM      1  O   UNL     1     142.778 135.703 102.029  0.00  0.00    +0.000 OA
ATOM      2  C   UNL     1     142.224 136.386 104.154  0.00  0.00    +0.000 C 
ATOM      3  C   UNL     1     142.748 135.389 103.201  0.00  0.00    +0.000 C 
ENDROOT
BRANCH   3   4
ATOM      4  O   UNL     1     143.144 134.229 103.723  0.00  0.00    +0.000 OA
ATOM      5  H   UNL     1     142.991 134.362 104.677  0.00  0.00    +0.000 HD
ENDBRANCH   3   4
TORSDOF 1
ENDMDL
