MODEL 1
REMARK VINA RESULT:      -7.7      0.000      0.000
REMARK  Name = Calcitriol.pdbqt.pdb
REMARK  9 active torsions:
REMARK  status: ('A' for Active; 'I' for Inactive)
REMARK    1  A    between atoms: C_2  and  C_24
REMARK    2  A    between atoms: C_7  and  C_11
REMARK    3  A    between atoms: C_12  and  C_13
REMARK    4  A    between atoms: C_16  and  O_20
REMARK    5  A    between atoms: C_18  and  O_22
REMARK    6  A    between atoms: C_24  and  C_26
REMARK    7  A    between atoms: C_27  and  C_28
REMARK    8  A    between atoms: C_28  and  C_29
REMARK    9  A    between atoms: C_29  and  O_32
REMARK                            x       y       z     vdW  Elec       q    Type
REMARK                         _______ _______ _______ _____ _____    ______ ____
ROOT
ATOM      1  C   UNL     1     139.954 127.224 132.778  0.00  0.00    +0.000 C 
ATOM      2  C   UNL     1     140.225 127.014 131.291  0.00  0.00    +0.000 C 
ATOM      3  C   UNL     1     139.153 128.636 132.806  0.00  0.00    +0.000 C 
ATOM      4  C   UNL     1     139.563 128.027 130.535  0.00  0.00    +0.000 C 
ATOM      5  C   UNL     1     138.883 129.007 131.451  0.00  0.00    +0.000 C 
ATOM      6  C   UNL     1     141.162 127.410 133.597  0.00  0.00    +0.000 C 
ATOM      7  C   UNL     1     139.455 129.653 133.821  0.00  0.00    +0.000 C 
ATOM      8  C   UNL     1     138.975 126.145 133.323  0.00  0.00    +0.000 C 
ATOM      9  C   UNL     1     141.750 128.395 134.592  0.00  0.00    +0.000 C 
ATOM     10  C   UNL     1     140.660 129.446 134.545  0.00  0.00    +0.000 C 
ENDROOT
BRANCH   7  11
ATOM     11  C   UNL     1     138.784 130.750 133.982  0.00  0.00    +0.000 C 
ATOM     12  C   UNL     1     138.001 132.054 134.178  0.00  0.00    +0.000 C 
BRANCH  12  13
ATOM     13  C   UNL     1     137.346 133.163 134.343  0.00  0.00    +0.000 A 
ATOM     14  C   UNL     1     137.416 133.846 135.600  0.00  0.00    +0.000 A 
ATOM     15  C   UNL     1     136.437 133.822 133.353  0.00  0.00    +0.000 A 
ATOM     16  C   UNL     1     136.796 135.026 136.103  0.00  0.00    +0.000 A 
ATOM     17  C   UNL     1     135.962 135.539 135.069  0.00  0.00    +0.000 A 
ATOM     18  C   UNL     1     135.712 135.071 133.747  0.00  0.00    +0.000 A 
ATOM     19  C   UNL     1     136.255 133.333 132.113  0.00  0.00    +0.000 C 
BRANCH  16  20
ATOM     20  O   UNL     1     137.441 135.843 136.986  0.00  0.00    +0.000 OA
ATOM     21  H   UNL     1     136.809 136.364 137.510  0.00  0.00    +0.000 HD
ENDBRANCH  16  20
BRANCH  18  22
ATOM     22  O   UNL     1     134.871 135.725 132.879  0.00  0.00    +0.000 OA
ATOM     23  H   UNL     1     134.241 135.095 132.479  0.00  0.00    +0.000 HD
ENDBRANCH  18  22
ENDBRANCH  12  13
ENDBRANCH   7  11
BRANCH   2  24
ATOM     24  C   UNL     1     140.894 125.885 130.727  0.00  0.00    +0.000 C 
ATOM     25  C   UNL     1     141.304 124.683 131.538  0.00  0.00    +0.000 C 
BRANCH  24  26
ATOM     26  C   UNL     1     141.383 125.912 129.392  0.00  0.00    +0.000 C 
ATOM     27  C   UNL     1     141.924 125.948 127.957  0.00  0.00    +0.000 C 
BRANCH  27  28
ATOM     28  C   UNL     1     142.476 125.990 126.527  0.00  0.00    +0.000 C 
BRANCH  28  29
ATOM     29  C   UNL     1     142.999 126.029 125.162  0.00  0.00    +0.000 C 
ATOM     30  C   UNL     1     143.958 127.202 124.925  0.00  0.00    +0.000 C 
ATOM     31  C   UNL     1     143.643 124.709 124.723  0.00  0.00    +0.000 C 
BRANCH  29  32
ATOM     32  O   UNL     1     141.929 126.233 124.266  0.00  0.00    +0.000 OA
ATOM     33  H   UNL     1     141.437 125.418 124.443  0.00  0.00    +0.000 HD
ENDBRANCH  29  32
ENDBRANCH  28  29
ENDBRANCH  27  28
ENDBRANCH  24  26
ENDBRANCH   2  24
TORSDOF 9
ENDMDL
MODEL 2
REMARK VINA RESULT:      -6.6     22.216     28.418
REMARK  Name = Calcitriol.pdbqt.pdb
REMARK  9 active torsions:
REMARK  status: ('A' for Active; 'I' for Inactive)
REMARK    1  A    between atoms: C_2  and  C_24
REMARK    2  A    between atoms: C_7  and  C_11
REMARK    3  A    between atoms: C_12  and  C_13
REMARK    4  A    between atoms: C_16  and  O_20
REMARK    5  A    between atoms: C_18  and  O_22
REMARK    6  A    between atoms: C_24  and  C_26
REMARK    7  A    between atoms: C_27  and  C_28
REMARK    8  A    between atoms: C_28  and  C_29
REMARK    9  A    between atoms: C_29  and  O_32
REMARK                            x       y       z     vdW  Elec       q    Type
REMARK                         _______ _______ _______ _____ _____    ______ ____
ROOT
ATOM      1  C   UNL     1     143.008 115.856 111.762  0.00  0.00    +0.000 C 
ATOM      2  C   UNL     1     141.727 115.093 112.086  0.00  0.00    +0.000 C 
ATOM      3  C   UNL     1     143.255 115.505 110.196  0.00  0.00    +0.000 C 
ATOM      4  C   UNL     1     141.196 114.519 110.893  0.00  0.00    +0.000 C 
ATOM      5  C   UNL     1     142.108 114.790 109.728  0.00  0.00    +0.000 C 
ATOM      6  C   UNL     1     144.198 115.384 112.490  0.00  0.00    +0.000 C 
ATOM      7  C   UNL     1     144.598 115.188 109.698  0.00  0.00    +0.000 C 
ATOM      8  C   UNL     1     142.778 117.391 111.846  0.00  0.00    +0.000 C 
ATOM      9  C   UNL     1     145.610 114.898 112.215  0.00  0.00    +0.000 C 
ATOM     10  C   UNL     1     145.566 114.913 110.701  0.00  0.00    +0.000 C 
ENDROOT
BRANCH   7  11
ATOM     11  C   UNL     1     144.895 115.015 108.448  0.00  0.00    +0.000 C 
ATOM     12  C   UNL     1     145.235 114.820 106.966  0.00  0.00    +0.000 C 
BRANCH  12  13
ATOM     13  C   UNL     1     145.520 114.663 105.708  0.00  0.00    +0.000 A 
ATOM     14  C   UNL     1     146.889 114.569 105.298  0.00  0.00    +0.000 A 
ATOM     15  C   UNL     1     144.550 114.622 104.569  0.00  0.00    +0.000 A 
ATOM     16  C   UNL     1     147.519 114.444 104.027  0.00  0.00    +0.000 A 
ATOM     17  C   UNL     1     146.488 114.426 103.045  0.00  0.00    +0.000 A 
ATOM     18  C   UNL     1     145.071 114.499 103.171  0.00  0.00    +0.000 A 
ATOM     19  C   UNL     1     143.219 114.683 104.759  0.00  0.00    +0.000 C 
BRANCH  16  20
ATOM     20  O   UNL     1     148.676 113.736 103.876  0.00  0.00    +0.000 OA
ATOM     21  H   UNL     1     148.496 112.789 103.752  0.00  0.00    +0.000 HD
ENDBRANCH  16  20
BRANCH  18  22
ATOM     22  O   UNL     1     144.229 114.448 102.086  0.00  0.00    +0.000 OA
ATOM     23  H   UNL     1     144.733 114.233 101.277  0.00  0.00    +0.000 HD
ENDBRANCH  18  22
ENDBRANCH  12  13
ENDBRANCH   7  11
BRANCH   2  24
ATOM     24  C   UNL     1     141.067 115.091 113.353  0.00  0.00    +0.000 C 
ATOM     25  C   UNL     1     141.668 114.479 114.592  0.00  0.00    +0.000 C 
BRANCH  24  26
ATOM     26  C   UNL     1     139.713 115.506 113.476  0.00  0.00    +0.000 C 
ATOM     27  C   UNL     1     138.247 115.938 113.611  0.00  0.00    +0.000 C 
BRANCH  27  28
ATOM     28  C   UNL     1     136.778 116.356 113.747  0.00  0.00    +0.000 C 
BRANCH  28  29
ATOM     29  C   UNL     1     135.377 116.757 113.881  0.00  0.00    +0.000 C 
ATOM     30  C   UNL     1     134.468 116.099 112.836  0.00  0.00    +0.000 C 
ATOM     31  C   UNL     1     134.820 116.542 115.293  0.00  0.00    +0.000 C 
BRANCH  29  32
ATOM     32  O   UNL     1     135.273 118.144 113.649  0.00  0.00    +0.000 OA
ATOM     33  H   UNL     1     135.017 118.419 114.542  0.00  0.00    +0.000 HD
ENDBRANCH  29  32
ENDBRANCH  28  29
ENDBRANCH  27  28
ENDBRANCH  24  26
ENDBRANCH   2  24
TORSDOF 9
ENDMDL
MODEL 3
REMARK VINA RESULT:      -6.6     11.429     16.208
REMARK  Name = Calcitriol.pdbqt.pdb
REMARK  9 active torsions:
REMARK  status: ('A' for Active; 'I' for Inactive)
REMARK    1  A    between atoms: C_2  and  C_24
REMARK    2  A    between atoms: C_7  and  C_11
REMARK    3  A    between atoms: C_12  and  C_13
REMARK    4  A    between atoms: C_16  and  O_20
REMARK    5  A    between atoms: C_18  and  O_22
REMARK    6  A    between atoms: C_24  and  C_26
REMARK    7  A    between atoms: C_27  and  C_28
REMARK    8  A    between atoms: C_28  and  C_29
REMARK    9  A    between atoms: C_29  and  O_32
REMARK                            x       y       z     vdW  Elec       q    Type
REMARK                         _______ _______ _______ _____ _____    ______ ____
ROOT
ATOM      1  C   UNL     1     135.067 124.110 144.361  0.00  0.00    +0.000 C 
ATOM      2  C   UNL     1     135.822 123.353 145.450  0.00  0.00    +0.000 C 
ATOM      3  C   UNL     1     135.427 123.271 143.019  0.00  0.00    +0.000 C 
ATOM      4  C   UNL     1     136.398 122.170 144.900  0.00  0.00    +0.000 C 
ATOM      5  C   UNL     1     136.139 122.097 143.421  0.00  0.00    +0.000 C 
ATOM      6  C   UNL     1     135.540 125.486 144.136  0.00  0.00    +0.000 C 
ATOM      7  C   UNL     1     135.754 123.960 141.765  0.00  0.00    +0.000 C 
ATOM      8  C   UNL     1     133.530 123.991 144.563  0.00  0.00    +0.000 C 
ATOM      9  C   UNL     1     136.035 126.373 143.007  0.00  0.00    +0.000 C 
ATOM     10  C   UNL     1     136.028 125.348 141.891  0.00  0.00    +0.000 C 
ENDROOT
BRANCH   7  11
ATOM     11  C   UNL     1     135.935 123.366 140.627  0.00  0.00    +0.000 C 
ATOM     12  C   UNL     1     136.147 122.675 139.275  0.00  0.00    +0.000 C 
BRANCH  12  13
ATOM     13  C   UNL     1     136.329 122.098 138.125  0.00  0.00    +0.000 A 
ATOM     14  C   UNL     1     137.446 122.475 137.312  0.00  0.00    +0.000 A 
ATOM     15  C   UNL     1     135.440 121.076 137.486  0.00  0.00    +0.000 A 
ATOM     16  C   UNL     1     137.886 122.077 136.017  0.00  0.00    +0.000 A 
ATOM     17  C   UNL     1     136.954 121.118 135.530  0.00  0.00    +0.000 A 
ATOM     18  C   UNL     1     135.778 120.569 136.119  0.00  0.00    +0.000 A 
ATOM     19  C   UNL     1     134.349 120.590 138.105  0.00  0.00    +0.000 C 
BRANCH  16  20
ATOM     20  O   UNL     1     139.214 122.018 135.708  0.00  0.00    +0.000 OA
ATOM     21  H   UNL     1     139.355 122.064 134.748  0.00  0.00    +0.000 HD
ENDBRANCH  16  20
BRANCH  18  22
ATOM     22  O   UNL     1     135.006 119.626 135.485  0.00  0.00    +0.000 OA
ATOM     23  H   UNL     1     135.196 119.622 134.527  0.00  0.00    +0.000 HD
ENDBRANCH  18  22
ENDBRANCH  12  13
ENDBRANCH   7  11
BRANCH   2  24
ATOM     24  C   UNL     1     135.813 123.684 146.840  0.00  0.00    +0.000 C 
ATOM     25  C   UNL     1     135.051 122.889 147.869  0.00  0.00    +0.000 C 
BRANCH  24  26
ATOM     26  C   UNL     1     136.378 124.901 147.309  0.00  0.00    +0.000 C 
ATOM     27  C   UNL     1     137.002 126.209 147.811  0.00  0.00    +0.000 C 
BRANCH  27  28
ATOM     28  C   UNL     1     137.639 127.512 148.311  0.00  0.00    +0.000 C 
BRANCH  28  29
ATOM     29  C   UNL     1     138.246 128.753 148.793  0.00  0.00    +0.000 C 
ATOM     30  C   UNL     1     137.274 129.939 148.770  0.00  0.00    +0.000 C 
ATOM     31  C   UNL     1     138.893 128.612 150.175  0.00  0.00    +0.000 C 
BRANCH  29  32
ATOM     32  O   UNL     1     139.299 129.114 147.927  0.00  0.00    +0.000 OA
ATOM     33  H   UNL     1     139.919 128.406 148.153  0.00  0.00    +0.000 HD
ENDBRANCH  29  32
ENDBRANCH  28  29
ENDBRANCH  27  28
ENDBRANCH  24  26
ENDBRANCH   2  24
TORSDOF 9
ENDMDL
MODEL 4
REMARK VINA RESULT:      -6.6     29.193     35.981
REMARK  Name = Calcitriol.pdbqt.pdb
REMARK  9 active torsions:
REMARK  status: ('A' for Active; 'I' for Inactive)
REMARK    1  A    between atoms: C_2  and  C_24
REMARK    2  A    between atoms: C_7  and  C_11
REMARK    3  A    between atoms: C_12  and  C_13
REMARK    4  A    between atoms: C_16  and  O_20
REMARK    5  A    between atoms: C_18  and  O_22
REMARK    6  A    between atoms: C_24  and  C_26
REMARK    7  A    between atoms: C_27  and  C_28
REMARK    8  A    between atoms: C_28  and  C_29
REMARK    9  A    between atoms: C_29  and  O_32
REMARK                            x       y       z     vdW  Elec       q    Type
REMARK                         _______ _______ _______ _____ _____    ______ ____
ROOT
ATOM      1  C   UNL     1     145.345 123.517  94.719  0.00  0.00    +0.000 C 
ATOM      2  C   UNL     1     146.852 123.385  94.522  0.00  0.00    +0.000 C 
ATOM      3  C   UNL     1     145.227 124.134  96.217  0.00  0.00    +0.000 C 
ATOM      4  C   UNL     1     147.534 123.972  95.629  0.00  0.00    +0.000 C 
ATOM      5  C   UNL     1     146.549 124.457  96.657  0.00  0.00    +0.000 C 
ATOM      6  C   UNL     1     144.618 122.237  94.735  0.00  0.00    +0.000 C 
ATOM      7  C   UNL     1     144.219 123.634  97.160  0.00  0.00    +0.000 C 
ATOM      8  C   UNL     1     144.746 124.577  93.752  0.00  0.00    +0.000 C 
ATOM      9  C   UNL     1     143.652 121.460  95.612  0.00  0.00    +0.000 C 
ATOM     10  C   UNL     1     143.595 122.414  96.788  0.00  0.00    +0.000 C 
ENDROOT
BRANCH   7  11
ATOM     11  C   UNL     1     143.985 124.152  98.325  0.00  0.00    +0.000 C 
ATOM     12  C   UNL     1     143.710 124.778  99.697  0.00  0.00    +0.000 C 
BRANCH  12  13
ATOM     13  C   UNL     1     143.475 125.316 100.856  0.00  0.00    +0.000 A 
ATOM     14  C   UNL     1     144.465 125.238 101.887  0.00  0.00    +0.000 A 
ATOM     15  C   UNL     1     142.212 125.995 101.288  0.00  0.00    +0.000 A 
ATOM     16  C   UNL     1     144.496 125.674 103.243  0.00  0.00    +0.000 A 
ATOM     17  C   UNL     1     143.241 126.287 103.518  0.00  0.00    +0.000 A 
ATOM     18  C   UNL     1     142.100 126.500 102.692  0.00  0.00    +0.000 A 
ATOM     19  C   UNL     1     141.174 126.175 100.452  0.00  0.00    +0.000 C 
BRANCH  16  20
ATOM     20  O   UNL     1     145.654 126.102 103.824  0.00  0.00    +0.000 OA
ATOM     21  H   UNL     1     146.251 126.499 103.168  0.00  0.00    +0.000 HD
ENDBRANCH  16  20
BRANCH  18  22
ATOM     22  O   UNL     1     140.969 127.138 103.145  0.00  0.00    +0.000 OA
ATOM     23  H   UNL     1     140.564 126.631 103.874  0.00  0.00    +0.000 HD
ENDBRANCH  18  22
ENDBRANCH  12  13
ENDBRANCH   7  11
BRANCH   2  24
ATOM     24  C   UNL     1     147.488 122.903  93.337  0.00  0.00    +0.000 C 
ATOM     25  C   UNL     1     146.760 122.716  92.031  0.00  0.00    +0.000 C 
BRANCH  24  26
ATOM     26  C   UNL     1     148.815 122.392  93.371  0.00  0.00    +0.000 C 
ATOM     27  C   UNL     1     150.240 121.827  93.415  0.00  0.00    +0.000 C 
BRANCH  27  28
ATOM     28  C   UNL     1     151.660 121.249  93.464  0.00  0.00    +0.000 C 
BRANCH  28  29
ATOM     29  C   UNL     1     153.016 120.702  93.508  0.00  0.00    +0.000 C 
ATOM     30  C   UNL     1     153.307 119.738  92.352  0.00  0.00    +0.000 C 
ATOM     31  C   UNL     1     154.100 121.782  93.597  0.00  0.00    +0.000 C 
BRANCH  29  32
ATOM     32  O   UNL     1     153.162 119.934  94.682  0.00  0.00    +0.000 OA
ATOM     33  H   UNL     1     154.119 119.788  94.638  0.00  0.00    +0.000 HD
ENDBRANCH  29  32
ENDBRANCH  28  29
ENDBRANCH  27  28
ENDBRANCH  24  26
ENDBRANCH   2  24
TORSDOF 9
ENDMDL
MODEL 5
REMARK VINA RESULT:      -6.4     30.002     36.824
REMARK  Name = Calcitriol.pdbqt.pdb
REMARK  9 active torsions:
REMARK  status: ('A' for Active; 'I' for Inactive)
REMARK    1  A    between atoms: C_2  and  C_24
REMARK    2  A    between atoms: C_7  and  C_11
REMARK    3  A    between atoms: C_12  and  C_13
REMARK    4  A    between atoms: C_16  and  O_20
REMARK    5  A    between atoms: C_18  and  O_22
REMARK    6  A    between atoms: C_24  and  C_26
REMARK    7  A    between atoms: C_27  and  C_28
REMARK    8  A    between atoms: C_28  and  C_29
REMARK    9  A    between atoms: C_29  and  O_32
REMARK                            x       y       z     vdW  Elec       q    Type
REMARK                         _______ _______ _______ _____ _____    ______ ____
ROOT
ATOM      1  C   UNL     1     141.883 127.576  93.935  0.00  0.00    +0.000 C 
ATOM      2  C   UNL     1     141.503 126.299  93.193  0.00  0.00    +0.000 C 
ATOM      3  C   UNL     1     142.584 127.015  95.289  0.00  0.00    +0.000 C 
ATOM      4  C   UNL     1     142.027 125.167  93.885  0.00  0.00    +0.000 C 
ATOM      5  C   UNL     1     142.713 125.597  95.153  0.00  0.00    +0.000 C 
ATOM      6  C   UNL     1     140.738 128.395  94.364  0.00  0.00    +0.000 C 
ATOM      7  C   UNL     1     142.299 127.626  96.593  0.00  0.00    +0.000 C 
ATOM      8  C   UNL     1     142.977 128.366  93.161  0.00  0.00    +0.000 C 
ATOM      9  C   UNL     1     140.170 129.029  95.622  0.00  0.00    +0.000 C 
ATOM     10  C   UNL     1     141.177 128.497  96.621  0.00  0.00    +0.000 C 
ENDROOT
BRANCH   7  11
ATOM     11  C   UNL     1     142.904 127.315  97.696  0.00  0.00    +0.000 C 
ATOM     12  C   UNL     1     143.633 126.946  98.993  0.00  0.00    +0.000 C 
BRANCH  12  13
ATOM     13  C   UNL     1     144.258 126.635 100.088  0.00  0.00    +0.000 A 
ATOM     14  C   UNL     1     143.850 127.225 101.328  0.00  0.00    +0.000 A 
ATOM     15  C   UNL     1     145.447 125.735 100.216  0.00  0.00    +0.000 A 
ATOM     16  C   UNL     1     144.345 127.130 102.661  0.00  0.00    +0.000 A 
ATOM     17  C   UNL     1     145.469 126.257 102.633  0.00  0.00    +0.000 A 
ATOM     18  C   UNL     1     146.078 125.546 101.560  0.00  0.00    +0.000 A 
ATOM     19  C   UNL     1     145.966 125.080  99.161  0.00  0.00    +0.000 C 
BRANCH  16  20
ATOM     20  O   UNL     1     143.505 127.196 103.735  0.00  0.00    +0.000 OA
ATOM     21  H   UNL     1     142.776 127.819 103.574  0.00  0.00    +0.000 HD
ENDBRANCH  16  20
BRANCH  18  22
ATOM     22  O   UNL     1     147.166 124.726 101.741  0.00  0.00    +0.000 OA
ATOM     23  H   UNL     1     147.811 125.148 102.341  0.00  0.00    +0.000 HD
ENDBRANCH  18  22
ENDBRANCH  12  13
ENDBRANCH   7  11
BRANCH   2  24
ATOM     24  C   UNL     1     140.868 126.247  91.914  0.00  0.00    +0.000 C 
ATOM     25  C   UNL     1     141.388 125.413  90.771  0.00  0.00    +0.000 C 
BRANCH  24  26
ATOM     26  C   UNL     1     139.805 127.132  91.586  0.00  0.00    +0.000 C 
ATOM     27  C   UNL     1     138.665 128.099  91.239  0.00  0.00    +0.000 C 
BRANCH  27  28
ATOM     28  C   UNL     1     137.532 129.076  90.901  0.00  0.00    +0.000 C 
BRANCH  28  29
ATOM     29  C   UNL     1     136.452 130.006  90.574  0.00  0.00    +0.000 C 
ATOM     30  C   UNL     1     136.937 131.453  90.426  0.00  0.00    +0.000 C 
ATOM     31  C   UNL     1     135.640 129.580  89.345  0.00  0.00    +0.000 C 
BRANCH  29  32
ATOM     32  O   UNL     1     135.528 130.028  91.638  0.00  0.00    +0.000 OA
ATOM     33  H   UNL     1     136.148 129.887  92.369  0.00  0.00    +0.000 HD
ENDBRANCH  29  32
ENDBRANCH  28  29
ENDBRANCH  27  28
ENDBRANCH  24  26
ENDBRANCH   2  24
TORSDOF 9
ENDMDL
MODEL 6
REMARK VINA RESULT:      -6.4     29.290     36.069
REMARK  Name = Calcitriol.pdbqt.pdb
REMARK  9 active torsions:
REMARK  status: ('A' for Active; 'I' for Inactive)
REMARK    1  A    between atoms: C_2  and  C_24
REMARK    2  A    between atoms: C_7  and  C_11
REMARK    3  A    between atoms: C_12  and  C_13
REMARK    4  A    between atoms: C_16  and  O_20
REMARK    5  A    between atoms: C_18  and  O_22
REMARK    6  A    between atoms: C_24  and  C_26
REMARK    7  A    between atoms: C_27  and  C_28
REMARK    8  A    between atoms: C_28  and  C_29
REMARK    9  A    between atoms: C_29  and  O_32
REMARK                            x       y       z     vdW  Elec       q    Type
REMARK                         _______ _______ _______ _____ _____    ______ ____
ROOT
ATOM      1  C   UNL     1     142.108 127.236  94.988  0.00  0.00    +0.000 C 
ATOM      2  C   UNL     1     141.030 128.304  94.832  0.00  0.00    +0.000 C 
ATOM      3  C   UNL     1     142.465 127.308  96.570  0.00  0.00    +0.000 C 
ATOM      4  C   UNL     1     140.672 128.816  96.115  0.00  0.00    +0.000 C 
ATOM      5  C   UNL     1     141.525 128.193  97.186  0.00  0.00    +0.000 C 
ATOM      6  C   UNL     1     143.357 127.522  94.263  0.00  0.00    +0.000 C 
ATOM      7  C   UNL     1     143.857 127.246  97.032  0.00  0.00    +0.000 C 
ATOM      8  C   UNL     1     141.529 125.817  94.724  0.00  0.00    +0.000 C 
ATOM      9  C   UNL     1     144.849 127.637  94.521  0.00  0.00    +0.000 C 
ATOM     10  C   UNL     1     144.838 127.428  96.021  0.00  0.00    +0.000 C 
ENDROOT
BRANCH   7  11
ATOM     11  C   UNL     1     144.214 127.177  98.276  0.00  0.00    +0.000 C 
ATOM     12  C   UNL     1     144.646 127.086  99.744  0.00  0.00    +0.000 C 
BRANCH  12  13
ATOM     13  C   UNL     1     145.019 127.004 100.986  0.00  0.00    +0.000 A 
ATOM     14  C   UNL     1     144.209 126.284 101.923  0.00  0.00    +0.000 A 
ATOM     15  C   UNL     1     146.222 127.646 101.603  0.00  0.00    +0.000 A 
ATOM     16  C   UNL     1     144.314 126.053 103.325  0.00  0.00    +0.000 A 
ATOM     17  C   UNL     1     145.487 126.722 103.776  0.00  0.00    +0.000 A 
ATOM     18  C   UNL     1     146.456 127.493 103.073  0.00  0.00    +0.000 A 
ATOM     19  C   UNL     1     147.108 128.353 100.878  0.00  0.00    +0.000 C 
BRANCH  16  20
ATOM     20  O   UNL     1     143.885 124.885 103.884  0.00  0.00    +0.000 OA
ATOM     21  H   UNL     1     143.013 124.628 103.539  0.00  0.00    +0.000 HD
ENDBRANCH  16  20
BRANCH  18  22
ATOM     22  O   UNL     1     147.547 128.053 103.696  0.00  0.00    +0.000 OA
ATOM     23  H   UNL     1     148.274 127.404 103.752  0.00  0.00    +0.000 HD
ENDBRANCH  18  22
ENDBRANCH  12  13
ENDBRANCH   7  11
BRANCH   2  24
ATOM     24  C   UNL     1     140.358 128.625  93.613  0.00  0.00    +0.000 C 
ATOM     25  C   UNL     1     139.807 129.996  93.314  0.00  0.00    +0.000 C 
BRANCH  24  26
ATOM     26  C   UNL     1     140.005 127.612  92.680  0.00  0.00    +0.000 C 
ATOM     27  C   UNL     1     139.609 126.517  91.682  0.00  0.00    +0.000 C 
BRANCH  27  28
ATOM     28  C   UNL     1     139.202 125.419  90.691  0.00  0.00    +0.000 C 
BRANCH  28  29
ATOM     29  C   UNL     1     138.814 124.368  89.750  0.00  0.00    +0.000 C 
ATOM     30  C   UNL     1     137.884 123.322  90.376  0.00  0.00    +0.000 C 
ATOM     31  C   UNL     1     138.214 124.915  88.450  0.00  0.00    +0.000 C 
BRANCH  29  32
ATOM     32  O   UNL     1     139.966 123.658  89.356  0.00  0.00    +0.000 OA
ATOM     33  H   UNL     1     140.081 124.048  88.477  0.00  0.00    +0.000 HD
ENDBRANCH  29  32
ENDBRANCH  28  29
ENDBRANCH  27  28
ENDBRANCH  24  26
ENDBRANCH   2  24
TORSDOF 9
ENDMDL
MODEL 7
REMARK VINA RESULT:      -6.3     20.933     23.510
REMARK  Name = Calcitriol.pdbqt.pdb
REMARK  9 active torsions:
REMARK  status: ('A' for Active; 'I' for Inactive)
REMARK    1  A    between atoms: C_2  and  C_24
REMARK    2  A    between atoms: C_7  and  C_11
REMARK    3  A    between atoms: C_12  and  C_13
REMARK    4  A    between atoms: C_16  and  O_20
REMARK    5  A    between atoms: C_18  and  O_22
REMARK    6  A    between atoms: C_24  and  C_26
REMARK    7  A    between atoms: C_27  and  C_28
REMARK    8  A    between atoms: C_28  and  C_29
REMARK    9  A    between atoms: C_29  and  O_32
REMARK                            x       y       z     vdW  Elec       q    Type
REMARK                         _______ _______ _______ _____ _____    ______ ____
ROOT
ATOM      1  C   UNL     1     139.493 115.167 113.177  0.00  0.00    +0.000 C 
ATOM      2  C   UNL     1     140.384 116.012 112.272  0.00  0.00    +0.000 C 
ATOM      3  C   UNL     1     138.123 116.036 113.251  0.00  0.00    +0.000 C 
ATOM      4  C   UNL     1     139.637 117.110 111.751  0.00  0.00    +0.000 C 
ATOM      5  C   UNL     1     138.246 117.117 112.322  0.00  0.00    +0.000 C 
ATOM      6  C   UNL     1     139.980 115.036 114.560  0.00  0.00    +0.000 C 
ATOM      7  C   UNL     1     137.409 116.210 114.522  0.00  0.00    +0.000 C 
ATOM      8  C   UNL     1     139.130 113.817 112.498  0.00  0.00    +0.000 C 
ATOM      9  C   UNL     1     139.505 115.257 115.985  0.00  0.00    +0.000 C 
ATOM     10  C   UNL     1     138.142 115.845 115.682  0.00  0.00    +0.000 C 
ENDROOT
BRANCH   7  11
ATOM     11  C   UNL     1     136.253 116.785 114.640  0.00  0.00    +0.000 C 
ATOM     12  C   UNL     1     134.891 117.477 114.773  0.00  0.00    +0.000 C 
BRANCH  12  13
ATOM     13  C   UNL     1     133.740 118.068 114.878  0.00  0.00    +0.000 A 
ATOM     14  C   UNL     1     133.321 118.989 113.865  0.00  0.00    +0.000 A 
ATOM     15  C   UNL     1     132.770 117.944 116.012  0.00  0.00    +0.000 A 
ATOM     16  C   UNL     1     132.168 119.812 113.713  0.00  0.00    +0.000 A 
ATOM     17  C   UNL     1     131.345 119.602 114.855  0.00  0.00    +0.000 A 
ATOM     18  C   UNL     1     131.514 118.758 115.990  0.00  0.00    +0.000 A 
ATOM     19  C   UNL     1     132.986 117.117 117.051  0.00  0.00    +0.000 C 
BRANCH  16  20
ATOM     20  O   UNL     1     131.644 120.077 112.481  0.00  0.00    +0.000 OA
ATOM     21  H   UNL     1     130.962 119.428 112.241  0.00  0.00    +0.000 HD
ENDBRANCH  16  20
BRANCH  18  22
ATOM     22  O   UNL     1     130.583 118.681 116.998  0.00  0.00    +0.000 OA
ATOM     23  H   UNL     1     130.596 119.498 117.533  0.00  0.00    +0.000 HD
ENDBRANCH  18  22
ENDBRANCH  12  13
ENDBRANCH   7  11
BRANCH   2  24
ATOM     24  C   UNL     1     141.712 115.669 111.870  0.00  0.00    +0.000 C 
ATOM     25  C   UNL     1     142.882 115.663 112.819  0.00  0.00    +0.000 C 
BRANCH  24  26
ATOM     26  C   UNL     1     142.041 115.491 110.498  0.00  0.00    +0.000 C 
ATOM     27  C   UNL     1     142.412 115.293 109.023  0.00  0.00    +0.000 C 
BRANCH  27  28
ATOM     28  C   UNL     1     142.795 115.091 107.552  0.00  0.00    +0.000 C 
BRANCH  28  29
ATOM     29  C   UNL     1     143.163 114.896 106.150  0.00  0.00    +0.000 C 
ATOM     30  C   UNL     1     144.680 114.869 105.931  0.00  0.00    +0.000 C 
ATOM     31  C   UNL     1     142.505 113.664 105.519  0.00  0.00    +0.000 C 
BRANCH  29  32
ATOM     32  O   UNL     1     142.695 115.992 105.396  0.00  0.00    +0.000 OA
ATOM     33  H   UNL     1     143.323 115.938 104.661  0.00  0.00    +0.000 HD
ENDBRANCH  29  32
ENDBRANCH  28  29
ENDBRANCH  27  28
ENDBRANCH  24  26
ENDBRANCH   2  24
TORSDOF 9
ENDMDL
MODEL 8
REMARK VINA RESULT:      -6.3     11.548     16.640
REMARK  Name = Calcitriol.pdbqt.pdb
REMARK  9 active torsions:
REMARK  status: ('A' for Active; 'I' for Inactive)
REMARK    1  A    between atoms: C_2  and  C_24
REMARK    2  A    between atoms: C_7  and  C_11
REMARK    3  A    between atoms: C_12  and  C_13
REMARK    4  A    between atoms: C_16  and  O_20
REMARK    5  A    between atoms: C_18  and  O_22
REMARK    6  A    between atoms: C_24  and  C_26
REMARK    7  A    between atoms: C_27  and  C_28
REMARK    8  A    between atoms: C_28  and  C_29
REMARK    9  A    between atoms: C_29  and  O_32
REMARK                            x       y       z     vdW  Elec       q    Type
REMARK                         _______ _______ _______ _____ _____    ______ ____
ROOT
ATOM      1  C   UNL     1     147.216 140.633 129.790  0.00  0.00    +0.000 C 
ATOM      2  C   UNL     1     147.955 140.744 131.120  0.00  0.00    +0.000 C 
ATOM      3  C   UNL     1     147.718 139.199 129.215  0.00  0.00    +0.000 C 
ATOM      4  C   UNL     1     148.649 139.527 131.388  0.00  0.00    +0.000 C 
ATOM      5  C   UNL     1     148.487 138.566 130.242  0.00  0.00    +0.000 C 
ATOM      6  C   UNL     1     147.603 141.643 128.792  0.00  0.00    +0.000 C 
ATOM      7  C   UNL     1     148.071 139.037 127.799  0.00  0.00    +0.000 C 
ATOM      8  C   UNL     1     145.682 140.512 130.013  0.00  0.00    +0.000 C 
ATOM      9  C   UNL     1     148.101 141.730 127.360  0.00  0.00    +0.000 C 
ATOM     10  C   UNL     1     148.236 140.248 127.075  0.00  0.00    +0.000 C 
ENDROOT
BRANCH   7  11
ATOM     11  C   UNL     1     148.364 137.905 127.242  0.00  0.00    +0.000 C 
ATOM     12  C   UNL     1     148.717 136.572 126.571  0.00  0.00    +0.000 C 
BRANCH  12  13
ATOM     13  C   UNL     1     149.022 135.447 125.998  0.00  0.00    +0.000 A 
ATOM     14  C   UNL     1     148.358 135.065 124.788  0.00  0.00    +0.000 A 
ATOM     15  C   UNL     1     149.991 134.421 126.499  0.00  0.00    +0.000 A 
ATOM     16  C   UNL     1     148.430 133.907 123.961  0.00  0.00    +0.000 A 
ATOM     17  C   UNL     1     149.374 133.022 124.555  0.00  0.00    +0.000 A 
ATOM     18  C   UNL     1     150.166 133.148 125.732  0.00  0.00    +0.000 A 
ATOM     19  C   UNL     1     150.719 134.609 127.615  0.00  0.00    +0.000 C 
BRANCH  16  20
ATOM     20  O   UNL     1     148.267 133.992 122.609  0.00  0.00    +0.000 OA
ATOM     21  H   UNL     1     148.343 134.910 122.301  0.00  0.00    +0.000 HD
ENDBRANCH  16  20
BRANCH  18  22
ATOM     22  O   UNL     1     151.045 132.172 126.138  0.00  0.00    +0.000 OA
ATOM     23  H   UNL     1     151.390 131.686 125.364  0.00  0.00    +0.000 HD
ENDBRANCH  18  22
ENDBRANCH  12  13
ENDBRANCH   7  11
BRANCH   2  24
ATOM     24  C   UNL     1     147.838 141.832 132.039  0.00  0.00    +0.000 C 
ATOM     25  C   UNL     1     148.887 142.904 132.181  0.00  0.00    +0.000 C 
BRANCH  24  26
ATOM     26  C   UNL     1     146.802 141.863 133.012  0.00  0.00    +0.000 C 
ATOM     27  C   UNL     1     145.672 141.897 134.049  0.00  0.00    +0.000 C 
BRANCH  27  28
ATOM     28  C   UNL     1     144.534 141.934 135.077  0.00  0.00    +0.000 C 
BRANCH  28  29
ATOM     29  C   UNL     1     143.451 141.968 136.059  0.00  0.00    +0.000 C 
ATOM     30  C   UNL     1     142.175 142.622 135.517  0.00  0.00    +0.000 C 
ATOM     31  C   UNL     1     143.139 140.593 136.662  0.00  0.00    +0.000 C 
BRANCH  29  32
ATOM     32  O   UNL     1     143.848 142.768 137.151  0.00  0.00    +0.000 OA
ATOM     33  H   UNL     1     143.383 143.582 136.907  0.00  0.00    +0.000 HD
ENDBRANCH  29  32
ENDBRANCH  28  29
ENDBRANCH  27  28
ENDBRANCH  24  26
ENDBRANCH   2  24
TORSDOF 9
ENDMDL
MODEL 9
REMARK VINA RESULT:      -6.2     11.004     15.708
REMARK  Name = Calcitriol.pdbqt.pdb
REMARK  9 active torsions:
REMARK  status: ('A' for Active; 'I' for Inactive)
REMARK    1  A    between atoms: C_2  and  C_24
REMARK    2  A    between atoms: C_7  and  C_11
REMARK    3  A    between atoms: C_12  and  C_13
REMARK    4  A    between atoms: C_16  and  O_20
REMARK    5  A    between atoms: C_18  and  O_22
REMARK    6  A    between atoms: C_24  and  C_26
REMARK    7  A    between atoms: C_27  and  C_28
REMARK    8  A    between atoms: C_28  and  C_29
REMARK    9  A    between atoms: C_29  and  O_32
REMARK                            x       y       z     vdW  Elec       q    Type
REMARK                         _______ _______ _______ _____ _____    ______ ____
ROOT
ATOM      1  C   UNL     1     135.523 123.635 143.921  0.00  0.00    +0.000 C 
ATOM      2  C   UNL     1     136.471 122.779 144.756  0.00  0.00    +0.000 C 
ATOM      3  C   UNL     1     135.601 122.939 142.455  0.00  0.00    +0.000 C 
ATOM      4  C   UNL     1     136.915 121.664 143.985  0.00  0.00    +0.000 C 
ATOM      5  C   UNL     1     136.366 121.738 142.587  0.00  0.00    +0.000 C 
ATOM      6  C   UNL     1     135.957 125.031 143.746  0.00  0.00    +0.000 C 
ATOM      7  C   UNL     1     135.679 123.755 141.238  0.00  0.00    +0.000 C 
ATOM      8  C   UNL     1     134.056 123.481 144.411  0.00  0.00    +0.000 C 
ATOM      9  C   UNL     1     136.227 126.032 142.637  0.00  0.00    +0.000 C 
ATOM     10  C   UNL     1     135.987 125.126 141.447  0.00  0.00    +0.000 C 
ENDROOT
BRANCH   7  11
ATOM     11  C   UNL     1     135.625 123.281 140.033  0.00  0.00    +0.000 C 
ATOM     12  C   UNL     1     135.556 122.733 138.602  0.00  0.00    +0.000 C 
BRANCH  12  13
ATOM     13  C   UNL     1     135.500 122.278 137.388  0.00  0.00    +0.000 A 
ATOM     14  C   UNL     1     134.281 121.701 136.903  0.00  0.00    +0.000 A 
ATOM     15  C   UNL     1     136.621 122.226 136.397  0.00  0.00    +0.000 A 
ATOM     16  C   UNL     1     133.916 121.088 135.670  0.00  0.00    +0.000 A 
ATOM     17  C   UNL     1     135.069 121.100 134.835  0.00  0.00    +0.000 A 
ATOM     18  C   UNL     1     136.384 121.602 135.058  0.00  0.00    +0.000 A 
ATOM     19  C   UNL     1     137.839 122.732 136.667  0.00  0.00    +0.000 C 
BRANCH  16  20
ATOM     20  O   UNL     1     132.654 121.209 135.165  0.00  0.00    +0.000 OA
ATOM     21  H   UNL     1     132.272 122.077 135.376  0.00  0.00    +0.000 HD
ENDBRANCH  16  20
BRANCH  18  22
ATOM     22  O   UNL     1     137.372 121.533 134.105  0.00  0.00    +0.000 OA
ATOM     23  H   UNL     1     137.560 120.601 133.880  0.00  0.00    +0.000 HD
ENDBRANCH  18  22
ENDBRANCH  12  13
ENDBRANCH   7  11
BRANCH   2  24
ATOM     24  C   UNL     1     136.743 122.967 146.146  0.00  0.00    +0.000 C 
ATOM     25  C   UNL     1     136.451 121.919 147.189  0.00  0.00    +0.000 C 
BRANCH  24  26
ATOM     26  C   UNL     1     137.135 124.236 146.653  0.00  0.00    +0.000 C 
ATOM     27  C   UNL     1     137.575 125.601 147.196  0.00  0.00    +0.000 C 
BRANCH  27  28
ATOM     28  C   UNL     1     138.027 126.964 147.737  0.00  0.00    +0.000 C 
BRANCH  28  29
ATOM     29  C   UNL     1     138.462 128.261 148.254  0.00  0.00    +0.000 C 
ATOM     30  C   UNL     1     137.315 129.272 148.367  0.00  0.00    +0.000 C 
ATOM     31  C   UNL     1     139.223 128.157 149.580  0.00  0.00    +0.000 C 
BRANCH  29  32
ATOM     32  O   UNL     1     139.378 128.832 147.346  0.00  0.00    +0.000 OA
ATOM     33  H   UNL     1     138.747 129.121 146.670  0.00  0.00    +0.000 HD
ENDBRANCH  29  32
ENDBRANCH  28  29
ENDBRANCH  27  28
ENDBRANCH  24  26
ENDBRANCH   2  24
TORSDOF 9
ENDMDL
