MODEL 1
REMARK VINA RESULT:      -8.1      0.000      0.000
REMARK  Name = 
REMARK  17 active torsions:
REMARK  status: ('A' for Active; 'I' for Inactive)
REMARK    1  A    between atoms: O_1  and  C_14
REMARK    2  A    between atoms: O_2  and  C_32
REMARK    3  A    between atoms: O_2  and  C_36
REMARK    4  A    between atoms: O_6  and  C_39
REMARK    5  A    between atoms: O_7  and  C_41
REMARK    6  A    between atoms: O_7  and  C_43
REMARK    7  A    between atoms: O_9  and  C_47
REMARK    8  A    between atoms: O_9  and  C_49
REMARK    9  A    between atoms: O_10  and  C_45
REMARK   10  A    between atoms: O_12  and  C_51
REMARK   11  A    between atoms: O_13  and  C_53
REMARK   12  A    between atoms: C_17  and  C_29
REMARK   13  A    between atoms: C_18  and  C_30
REMARK   14  A    between atoms: C_22  and  C_33
REMARK   15  A    between atoms: C_40  and  C_42
REMARK   16  A    between atoms: C_46  and  C_48
REMARK   17  A    between atoms: C_52  and  C_54
REMARK                            x       y       z     vdW  Elec       q    Type
REMARK                         _______ _______ _______ _____ _____    ______ ____
ROOT
ATOM      1  O   UNL     1     140.645 111.695 103.797  0.00  0.00    +0.000 OA
ATOM      2  C   UNL     1     141.156 112.604 102.825  0.00  0.00    +0.000 C 
ATOM      3  C   UNL     1     141.204 111.990 101.423  0.00  0.00    +0.000 C 
ATOM      4  C   UNL     1     140.473 110.657 101.375  0.00  0.00    +0.000 C 
ATOM      5  C   UNL     1     139.290 111.314 103.533  0.00  0.00    +0.000 C 
ATOM      6  C   UNL     1     139.136 110.650 102.144  0.00  0.00    +0.000 C 
ATOM      7  C   UNL     1     138.876 110.357 104.651  0.00  0.00    +0.000 C 
ENDROOT
BRANCH   4   8
ATOM      8  O   UNL     1     140.360 110.169 100.042  0.00  0.00    +0.000 OA
ATOM      9  H   UNL     1     141.267 109.929  99.759  0.00  0.00    +0.000 HD
ENDBRANCH   4   8
BRANCH   2  10
ATOM     10  O   UNL     1     142.429 113.131 103.200  0.00  0.00    +0.000 OA
BRANCH  10  29
ATOM     11  C   UNL     1     143.740 114.149 110.802  0.00  0.00    +0.000 C 
ATOM     12  C   UNL     1     143.477 114.009 109.277  0.00  0.00    +0.000 C 
ATOM     13  C   UNL     1     144.703 114.375 108.402  0.00  0.00    +0.000 C 
ATOM     14  C   UNL     1     145.047 113.463 111.290  0.00  0.00    +0.000 C 
ATOM     15  C   UNL     1     144.432 114.226 106.849  0.00  0.00    +0.000 C 
ATOM     16  C   UNL     1     143.105 114.961 106.463  0.00  0.00    +0.000 C 
ATOM     17  C   UNL     1     145.944 113.601 108.891  0.00  0.00    +0.000 C 
ATOM     18  C   UNL     1     146.232 113.851 110.372  0.00  0.00    +0.000 C 
ATOM     19  C   UNL     1     145.192 114.068 112.723  0.00  0.00    +0.000 C 
ATOM     20  C   UNL     1     142.246 114.820 108.845  0.00  0.00    +0.000 C 
ATOM     21  C   UNL     1     143.877 115.598 111.302  0.00  0.00    +0.000 C 
ATOM     22  C   UNL     1     141.925 114.586 107.377  0.00  0.00    +0.000 C 
ATOM     23  C   UNL     1     144.764 115.540 112.552  0.00  0.00    +0.000 C 
ATOM     24  C   UNL     1     144.352 112.737 106.410  0.00  0.00    +0.000 C 
ATOM     25  C   UNL     1     142.703 114.732 104.992  0.00  0.00    +0.000 C 
ATOM     26  C   UNL     1     144.919 111.928 111.346  0.00  0.00    +0.000 C 
ATOM     27  C   UNL     1     145.610 114.902 106.093  0.00  0.00    +0.000 C 
ATOM     28  C   UNL     1     143.949 112.547 104.948  0.00  0.00    +0.000 C 
ATOM     29  C   UNL     1     142.635 113.250 104.612  0.00  0.00    +0.000 C 
BRANCH  19  32
ATOM     30  O   UNL     1     148.053 112.811 114.782  0.00  0.00    +0.000 OA
ATOM     31  O   UNL     1     149.637 114.468 114.650  0.00  0.00    +0.000 OA
ATOM     32  C   UNL     1     146.503 113.853 113.429  0.00  0.00    +0.000 C 
ATOM     33  C   UNL     1     146.749 112.628 114.231  0.00  0.00    +0.000 C 
ATOM     34  C   UNL     1     147.554 114.668 113.523  0.00  0.00    +0.000 C 
ATOM     35  C   UNL     1     148.546 114.007 114.369  0.00  0.00    +0.000 C 
ENDBRANCH  19  32
BRANCH  11  36
ATOM     36  O   UNL     1     142.619 113.596 111.513  0.00  0.00    +0.000 OA
ATOM     37  H   UNL     1     142.943 112.901 112.111  0.00  0.00    +0.000 HD
ENDBRANCH  11  36
ENDBRANCH  10  29
ENDBRANCH   2  10
BRANCH   6  38
ATOM     38  O   UNL     1     137.923 111.035 101.490  0.00  0.00    +0.000 OA
BRANCH  38  40
ATOM     39  O   UNL     1     135.875 112.234 101.450  0.00  0.00    +0.000 OA
ATOM     40  C   UNL     1     137.285 112.297 101.619  0.00  0.00    +0.000 C 
ATOM     41  C   UNL     1     137.896 113.435 100.807  0.00  0.00    +0.000 C 
ATOM     42  C   UNL     1     136.857 114.464 100.371  0.00  0.00    +0.000 C 
ATOM     43  C   UNL     1     135.231 113.385 102.030  0.00  0.00    +0.000 C 
ATOM     44  C   UNL     1     135.718 114.706 101.383  0.00  0.00    +0.000 C 
ATOM     45  C   UNL     1     133.730 113.195 101.829  0.00  0.00    +0.000 C 
BRANCH  42  46
ATOM     46  O   UNL     1     137.484 115.681  99.969  0.00  0.00    +0.000 OA
ATOM     47  H   UNL     1     137.862 115.551  99.082  0.00  0.00    +0.000 HD
ENDBRANCH  42  46
BRANCH  44  48
ATOM     48  O   UNL     1     135.898 115.740 102.358  0.00  0.00    +0.000 OA
BRANCH  48  50
ATOM     49  O   UNL     1     133.866 116.134 103.467  0.00  0.00    +0.000 OA
ATOM     50  C   UNL     1     134.842 116.667 102.580  0.00  0.00    +0.000 C 
ATOM     51  C   UNL     1     134.191 116.926 101.216  0.00  0.00    +0.000 C 
ATOM     52  C   UNL     1     132.714 117.290 101.340  0.00  0.00    +0.000 C 
ATOM     53  C   UNL     1     132.867 117.099 103.847  0.00  0.00    +0.000 C 
ATOM     54  C   UNL     1     132.427 117.990 102.670  0.00  0.00    +0.000 C 
ATOM     55  C   UNL     1     131.696 116.298 104.404  0.00  0.00    +0.000 C 
BRANCH  52  56
ATOM     56  O   UNL     1     132.364 118.168 100.263  0.00  0.00    +0.000 OA
ATOM     57  H   UNL     1     132.056 117.615  99.523  0.00  0.00    +0.000 HD
ENDBRANCH  52  56
BRANCH  54  58
ATOM     58  O   UNL     1     133.176 119.218 102.703  0.00  0.00    +0.000 OA
ATOM     59  H   UNL     1     132.794 119.780 101.998  0.00  0.00    +0.000 HD
ENDBRANCH  54  58
ENDBRANCH  48  50
ENDBRANCH  44  48
ENDBRANCH  38  40
ENDBRANCH   6  38
TORSDOF 12
ENDMDL
MODEL 2
REMARK VINA RESULT:      -8.1      3.789     12.152
REMARK  Name = 
REMARK  17 active torsions:
REMARK  status: ('A' for Active; 'I' for Inactive)
REMARK    1  A    between atoms: O_1  and  C_14
REMARK    2  A    between atoms: O_2  and  C_32
REMARK    3  A    between atoms: O_2  and  C_36
REMARK    4  A    between atoms: O_6  and  C_39
REMARK    5  A    between atoms: O_7  and  C_41
REMARK    6  A    between atoms: O_7  and  C_43
REMARK    7  A    between atoms: O_9  and  C_47
REMARK    8  A    between atoms: O_9  and  C_49
REMARK    9  A    between atoms: O_10  and  C_45
REMARK   10  A    between atoms: O_12  and  C_51
REMARK   11  A    between atoms: O_13  and  C_53
REMARK   12  A    between atoms: C_17  and  C_29
REMARK   13  A    between atoms: C_18  and  C_30
REMARK   14  A    between atoms: C_22  and  C_33
REMARK   15  A    between atoms: C_40  and  C_42
REMARK   16  A    between atoms: C_46  and  C_48
REMARK   17  A    between atoms: C_52  and  C_54
REMARK                            x       y       z     vdW  Elec       q    Type
REMARK                         _______ _______ _______ _____ _____    ______ ____
ROOT
ATOM      1  O   UNL     1     138.288 113.265 111.647  0.00  0.00    +0.000 OA
ATOM      2  C   UNL     1     137.977 114.345 110.772  0.00  0.00    +0.000 C 
ATOM      3  C   UNL     1     137.667 115.638 111.530  0.00  0.00    +0.000 C 
ATOM      4  C   UNL     1     138.003 115.511 113.008  0.00  0.00    +0.000 C 
ATOM      5  C   UNL     1     139.467 113.509 112.424  0.00  0.00    +0.000 C 
ATOM      6  C   UNL     1     139.337 114.789 113.285  0.00  0.00    +0.000 C 
ATOM      7  C   UNL     1     139.681 112.275 113.299  0.00  0.00    +0.000 C 
ENDROOT
BRANCH   4   8
ATOM      8  O   UNL     1     137.886 116.759 113.682  0.00  0.00    +0.000 OA
ATOM      9  H   UNL     1     137.142 117.234 113.255  0.00  0.00    +0.000 HD
ENDBRANCH   4   8
BRANCH   2  10
ATOM     10  O   UNL     1     136.925 114.016 109.864  0.00  0.00    +0.000 OA
BRANCH  10  29
ATOM     11  C   UNL     1     139.477 111.529 102.947  0.00  0.00    +0.000 C 
ATOM     12  C   UNL     1     139.016 112.067 104.330  0.00  0.00    +0.000 C 
ATOM     13  C   UNL     1     138.383 113.480 104.264  0.00  0.00    +0.000 C 
ATOM     14  C   UNL     1     138.407 111.651 101.825  0.00  0.00    +0.000 C 
ATOM     15  C   UNL     1     137.909 114.022 105.674  0.00  0.00    +0.000 C 
ATOM     16  C   UNL     1     139.060 113.866 106.722  0.00  0.00    +0.000 C 
ATOM     17  C   UNL     1     137.278 113.509 103.187  0.00  0.00    +0.000 C 
ATOM     18  C   UNL     1     137.799 113.075 101.816  0.00  0.00    +0.000 C 
ATOM     19  C   UNL     1     139.269 111.372 100.552  0.00  0.00    +0.000 C 
ATOM     20  C   UNL     1     140.162 112.039 105.352  0.00  0.00    +0.000 C 
ATOM     21  C   UNL     1     140.709 112.239 102.358  0.00  0.00    +0.000 C 
ATOM     22  C   UNL     1     139.675 112.455 106.731  0.00  0.00    +0.000 C 
ATOM     23  C   UNL     1     140.599 112.099 100.834  0.00  0.00    +0.000 C 
ATOM     24  C   UNL     1     136.635 113.292 106.183  0.00  0.00    +0.000 C 
ATOM     25  C   UNL     1     138.619 114.237 108.153  0.00  0.00    +0.000 C 
ATOM     26  C   UNL     1     137.281 110.609 101.973  0.00  0.00    +0.000 C 
ATOM     27  C   UNL     1     137.584 115.534 105.518  0.00  0.00    +0.000 C 
ATOM     28  C   UNL     1     136.228 113.682 107.604  0.00  0.00    +0.000 C 
ATOM     29  C   UNL     1     137.363 113.488 108.608  0.00  0.00    +0.000 C 
BRANCH  19  32
ATOM     30  O   UNL     1     138.181 112.852  97.291  0.00  0.00    +0.000 OA
ATOM     31  O   UNL     1     136.553 111.428  96.520  0.00  0.00    +0.000 OA
ATOM     32  C   UNL     1     138.638 111.672  99.218  0.00  0.00    +0.000 C 
ATOM     33  C   UNL     1     139.018 112.881  98.446  0.00  0.00    +0.000 C 
ATOM     34  C   UNL     1     137.665 111.021  98.580  0.00  0.00    +0.000 C 
ATOM     35  C   UNL     1     137.380 111.756  97.350  0.00  0.00    +0.000 C 
ENDBRANCH  19  32
BRANCH  11  36
ATOM     36  O   UNL     1     139.856 110.150 103.095  0.00  0.00    +0.000 OA
ATOM     37  H   UNL     1     139.617 109.858 103.991  0.00  0.00    +0.000 HD
ENDBRANCH  11  36
ENDBRANCH  10  29
ENDBRANCH   2  10
BRANCH   6  38
ATOM     38  O   UNL     1     140.560 115.528 113.345  0.00  0.00    +0.000 OA
BRANCH  38  40
ATOM     39  O   UNL     1     142.719 115.507 112.358  0.00  0.00    +0.000 OA
ATOM     40  C   UNL     1     141.357 115.891 112.226  0.00  0.00    +0.000 C 
ATOM     41  C   UNL     1     141.225 117.338 111.760  0.00  0.00    +0.000 C 
ATOM     42  C   UNL     1     142.517 117.874 111.151  0.00  0.00    +0.000 C 
ATOM     43  C   UNL     1     143.372 115.462 111.075  0.00  0.00    +0.000 C 
ATOM     44  C   UNL     1     143.343 116.838 110.362  0.00  0.00    +0.000 C 
ATOM     45  C   UNL     1     144.806 115.003 111.328  0.00  0.00    +0.000 C 
BRANCH  42  46
ATOM     46  O   UNL     1     142.267 119.053 110.387  0.00  0.00    +0.000 OA
ATOM     47  H   UNL     1     142.571 118.897 109.476  0.00  0.00    +0.000 HD
ENDBRANCH  42  46
BRANCH  44  48
ATOM     48  O   UNL     1     143.086 116.704 108.959  0.00  0.00    +0.000 OA
BRANCH  48  50
ATOM     49  O   UNL     1     145.155 116.196 107.971  0.00  0.00    +0.000 OA
ATOM     50  C   UNL     1     143.827 115.746 108.213  0.00  0.00    +0.000 C 
ATOM     51  C   UNL     1     143.103 115.577 106.873  0.00  0.00    +0.000 C 
ATOM     52  C   UNL     1     144.054 115.179 105.748  0.00  0.00    +0.000 C 
ATOM     53  C   UNL     1     145.985 115.188 107.365  0.00  0.00    +0.000 C 
ATOM     54  C   UNL     1     145.243 114.379 106.286  0.00  0.00    +0.000 C 
ATOM     55  C   UNL     1     147.184 115.925 106.777  0.00  0.00    +0.000 C 
BRANCH  52  56
ATOM     56  O   UNL     1     143.339 114.376 104.801  0.00  0.00    +0.000 OA
ATOM     57  H   UNL     1     143.175 114.927 104.014  0.00  0.00    +0.000 HD
ENDBRANCH  52  56
BRANCH  54  58
ATOM     58  O   UNL     1     144.738 113.165 106.871  0.00  0.00    +0.000 OA
ATOM     59  H   UNL     1     144.483 113.397 107.788  0.00  0.00    +0.000 HD
ENDBRANCH  54  58
ENDBRANCH  48  50
ENDBRANCH  44  48
ENDBRANCH  38  40
ENDBRANCH   6  38
TORSDOF 12
ENDMDL
MODEL 3
REMARK VINA RESULT:      -7.4     34.541     40.370
REMARK  Name = 
REMARK  17 active torsions:
REMARK  status: ('A' for Active; 'I' for Inactive)
REMARK    1  A    between atoms: O_1  and  C_14
REMARK    2  A    between atoms: O_2  and  C_32
REMARK    3  A    between atoms: O_2  and  C_36
REMARK    4  A    between atoms: O_6  and  C_39
REMARK    5  A    between atoms: O_7  and  C_41
REMARK    6  A    between atoms: O_7  and  C_43
REMARK    7  A    between atoms: O_9  and  C_47
REMARK    8  A    between atoms: O_9  and  C_49
REMARK    9  A    between atoms: O_10  and  C_45
REMARK   10  A    between atoms: O_12  and  C_51
REMARK   11  A    between atoms: O_13  and  C_53
REMARK   12  A    between atoms: C_17  and  C_29
REMARK   13  A    between atoms: C_18  and  C_30
REMARK   14  A    between atoms: C_22  and  C_33
REMARK   15  A    between atoms: C_40  and  C_42
REMARK   16  A    between atoms: C_46  and  C_48
REMARK   17  A    between atoms: C_52  and  C_54
REMARK                            x       y       z     vdW  Elec       q    Type
REMARK                         _______ _______ _______ _____ _____    ______ ____
ROOT
ATOM      1  O   UNL     1     135.864 137.796 143.186  0.00  0.00    +0.000 OA
ATOM      2  C   UNL     1     136.022 136.405 142.919  0.00  0.00    +0.000 C 
ATOM      3  C   UNL     1     135.516 135.530 144.069  0.00  0.00    +0.000 C 
ATOM      4  C   UNL     1     134.754 136.351 145.099  0.00  0.00    +0.000 C 
ATOM      5  C   UNL     1     134.490 138.173 143.338  0.00  0.00    +0.000 C 
ATOM      6  C   UNL     1     133.800 137.393 144.483  0.00  0.00    +0.000 C 
ATOM      7  C   UNL     1     134.474 139.677 143.605  0.00  0.00    +0.000 C 
ENDROOT
BRANCH   4   8
ATOM      8  O   UNL     1     134.132 135.522 146.074  0.00  0.00    +0.000 OA
ATOM      9  H   UNL     1     134.412 135.866 146.948  0.00  0.00    +0.000 HD
ENDBRANCH   4   8
BRANCH   2  10
ATOM     10  O   UNL     1     137.368 136.074 142.574  0.00  0.00    +0.000 OA
BRANCH  10  29
ATOM     11  C   UNL     1     138.484 134.380 135.062  0.00  0.00    +0.000 C 
ATOM     12  C   UNL     1     138.303 134.766 136.556  0.00  0.00    +0.000 C 
ATOM     13  C   UNL     1     137.489 136.068 136.763  0.00  0.00    +0.000 C 
ATOM     14  C   UNL     1     137.169 134.400 134.233  0.00  0.00    +0.000 C 
ATOM     15  C   UNL     1     137.302 136.455 138.287  0.00  0.00    +0.000 C 
ATOM     16  C   UNL     1     138.682 136.418 139.023  0.00  0.00    +0.000 C 
ATOM     17  C   UNL     1     136.164 135.988 135.977  0.00  0.00    +0.000 C 
ATOM     18  C   UNL     1     136.392 135.713 134.491  0.00  0.00    +0.000 C 
ATOM     19  C   UNL     1     137.727 134.323 132.775  0.00  0.00    +0.000 C 
ATOM     20  C   UNL     1     139.655 134.856 137.279  0.00  0.00    +0.000 C 
ATOM     21  C   UNL     1     139.432 135.298 134.269  0.00  0.00    +0.000 C 
ATOM     22  C   UNL     1     139.464 135.118 138.764  0.00  0.00    +0.000 C 
ATOM     23  C   UNL     1     138.977 135.226 132.806  0.00  0.00    +0.000 C 
ATOM     24  C   UNL     1     136.297 135.515 139.010  0.00  0.00    +0.000 C 
ATOM     25  C   UNL     1     138.553 136.641 140.544  0.00  0.00    +0.000 C 
ATOM     26  C   UNL     1     136.261 133.193 134.544  0.00  0.00    +0.000 C 
ATOM     27  C   UNL     1     136.749 137.908 138.345  0.00  0.00    +0.000 C 
ATOM     28  C   UNL     1     136.197 135.762 140.515  0.00  0.00    +0.000 C 
ATOM     29  C   UNL     1     137.556 135.687 141.208  0.00  0.00    +0.000 C 
BRANCH  19  32
ATOM     30  O   UNL     1     135.947 135.556 129.723  0.00  0.00    +0.000 OA
ATOM     31  O   UNL     1     133.866 134.591 129.833  0.00  0.00    +0.000 OA
ATOM     32  C   UNL     1     136.759 134.596 131.656  0.00  0.00    +0.000 C 
ATOM     33  C   UNL     1     137.117 135.504 130.537  0.00  0.00    +0.000 C 
ATOM     34  C   UNL     1     135.500 134.180 131.509  0.00  0.00    +0.000 C 
ATOM     35  C   UNL     1     134.984 134.775 130.278  0.00  0.00    +0.000 C 
ENDBRANCH  19  32
BRANCH  11  36
ATOM     36  O   UNL     1     139.068 133.067 134.996  0.00  0.00    +0.000 OA
ATOM     37  H   UNL     1     140.035 133.160 134.940  0.00  0.00    +0.000 HD
ENDBRANCH  11  36
ENDBRANCH  10  29
ENDBRANCH   2  10
BRANCH   6  38
ATOM     38  O   UNL     1     132.451 137.038 144.161  0.00  0.00    +0.000 OA
BRANCH  38  40
ATOM     39  O   UNL     1     132.309 134.745 143.568  0.00  0.00    +0.000 OA
ATOM     40  C   UNL     1     132.064 136.089 143.178  0.00  0.00    +0.000 C 
ATOM     41  C   UNL     1     132.560 136.362 141.761  0.00  0.00    +0.000 C 
ATOM     42  C   UNL     1     132.794 135.078 140.969  0.00  0.00    +0.000 C 
ATOM     43  C   UNL     1     131.510 133.827 142.797  0.00  0.00    +0.000 C 
ATOM     44  C   UNL     1     131.809 133.933 141.280  0.00  0.00    +0.000 C 
ATOM     45  C   UNL     1     131.821 132.427 143.322  0.00  0.00    +0.000 C 
BRANCH  42  46
ATOM     46  O   UNL     1     132.873 135.352 139.571  0.00  0.00    +0.000 OA
ATOM     47  H   UNL     1     132.070 135.003 139.146  0.00  0.00    +0.000 HD
ENDBRANCH  42  46
BRANCH  44  48
ATOM     48  O   UNL     1     130.613 133.847 140.496  0.00  0.00    +0.000 OA
BRANCH  48  50
ATOM     49  O   UNL     1     129.431 133.217 138.567  0.00  0.00    +0.000 OA
ATOM     50  C   UNL     1     130.606 133.013 139.344  0.00  0.00    +0.000 C 
ATOM     51  C   UNL     1     130.627 131.566 139.849  0.00  0.00    +0.000 C 
ATOM     52  C   UNL     1     129.946 130.604 138.879  0.00  0.00    +0.000 C 
ATOM     53  C   UNL     1     129.461 132.515 137.311  0.00  0.00    +0.000 C 
ATOM     54  C   UNL     1     130.060 131.102 137.436  0.00  0.00    +0.000 C 
ATOM     55  C   UNL     1     128.019 132.463 136.820  0.00  0.00    +0.000 C 
BRANCH  52  56
ATOM     56  O   UNL     1     130.575 129.321 138.984  0.00  0.00    +0.000 OA
ATOM     57  H   UNL     1     130.017 128.768 139.560  0.00  0.00    +0.000 HD
ENDBRANCH  52  56
BRANCH  54  58
ATOM     58  O   UNL     1     131.455 131.148 137.087  0.00  0.00    +0.000 OA
ATOM     59  H   UNL     1     131.634 132.076 136.830  0.00  0.00    +0.000 HD
ENDBRANCH  54  58
ENDBRANCH  48  50
ENDBRANCH  44  48
ENDBRANCH  38  40
ENDBRANCH   6  38
TORSDOF 12
ENDMDL
MODEL 4
REMARK VINA RESULT:      -7.4     32.544     38.346
REMARK  Name = 
REMARK  17 active torsions:
REMARK  status: ('A' for Active; 'I' for Inactive)
REMARK    1  A    between atoms: O_1  and  C_14
REMARK    2  A    between atoms: O_2  and  C_32
REMARK    3  A    between atoms: O_2  and  C_36
REMARK    4  A    between atoms: O_6  and  C_39
REMARK    5  A    between atoms: O_7  and  C_41
REMARK    6  A    between atoms: O_7  and  C_43
REMARK    7  A    between atoms: O_9  and  C_47
REMARK    8  A    between atoms: O_9  and  C_49
REMARK    9  A    between atoms: O_10  and  C_45
REMARK   10  A    between atoms: O_12  and  C_51
REMARK   11  A    between atoms: O_13  and  C_53
REMARK   12  A    between atoms: C_17  and  C_29
REMARK   13  A    between atoms: C_18  and  C_30
REMARK   14  A    between atoms: C_22  and  C_33
REMARK   15  A    between atoms: C_40  and  C_42
REMARK   16  A    between atoms: C_46  and  C_48
REMARK   17  A    between atoms: C_52  and  C_54
REMARK                            x       y       z     vdW  Elec       q    Type
REMARK                         _______ _______ _______ _____ _____    ______ ____
ROOT
ATOM      1  O   UNL     1     130.264 124.034 140.580  0.00  0.00    +0.000 OA
ATOM      2  C   UNL     1     131.093 123.809 141.718  0.00  0.00    +0.000 C 
ATOM      3  C   UNL     1     130.827 122.451 142.372  0.00  0.00    +0.000 C 
ATOM      4  C   UNL     1     129.924 121.584 141.508  0.00  0.00    +0.000 C 
ATOM      5  C   UNL     1     130.502 123.085 139.533  0.00  0.00    +0.000 C 
ATOM      6  C   UNL     1     130.266 121.631 140.005  0.00  0.00    +0.000 C 
ATOM      7  C   UNL     1     129.561 123.452 138.385  0.00  0.00    +0.000 C 
ENDROOT
BRANCH   4   8
ATOM      8  O   UNL     1     129.819 120.261 142.022  0.00  0.00    +0.000 OA
ATOM      9  H   UNL     1     129.969 120.329 142.989  0.00  0.00    +0.000 HD
ENDBRANCH   4   8
BRANCH   2  10
ATOM     10  O   UNL     1     130.995 124.868 142.671  0.00  0.00    +0.000 OA
BRANCH  10  29
ATOM     11  C   UNL     1     137.966 127.071 145.335  0.00  0.00    +0.000 C 
ATOM     12  C   UNL     1     136.603 126.583 144.773  0.00  0.00    +0.000 C 
ATOM     13  C   UNL     1     136.078 125.295 145.457  0.00  0.00    +0.000 C 
ATOM     14  C   UNL     1     138.025 127.154 146.886  0.00  0.00    +0.000 C 
ATOM     15  C   UNL     1     134.685 124.804 144.886  0.00  0.00    +0.000 C 
ATOM     16  C   UNL     1     134.738 124.743 143.323  0.00  0.00    +0.000 C 
ATOM     17  C   UNL     1     136.089 125.474 146.990  0.00  0.00    +0.000 C 
ATOM     18  C   UNL     1     137.475 125.850 147.515  0.00  0.00    +0.000 C 
ATOM     19  C   UNL     1     139.560 127.319 147.124  0.00  0.00    +0.000 C 
ATOM     20  C   UNL     1     136.658 126.397 143.249  0.00  0.00    +0.000 C 
ATOM     21  C   UNL     1     139.169 126.184 144.969  0.00  0.00    +0.000 C 
ATOM     22  C   UNL     1     135.292 126.033 142.692  0.00  0.00    +0.000 C 
ATOM     23  C   UNL     1     140.202 126.378 146.086  0.00  0.00    +0.000 C 
ATOM     24  C   UNL     1     133.513 125.720 145.335  0.00  0.00    +0.000 C 
ATOM     25  C   UNL     1     133.370 124.414 142.692  0.00  0.00    +0.000 C 
ATOM     26  C   UNL     1     137.244 128.363 147.440  0.00  0.00    +0.000 C 
ATOM     27  C   UNL     1     134.427 123.369 145.428  0.00  0.00    +0.000 C 
ATOM     28  C   UNL     1     132.174 125.367 144.688  0.00  0.00    +0.000 C 
ATOM     29  C   UNL     1     132.251 125.347 143.163  0.00  0.00    +0.000 C 
BRANCH  19  32
ATOM     30  O   UNL     1     140.787 127.803 150.627  0.00  0.00    +0.000 OA
ATOM     31  O   UNL     1     141.285 125.687 151.366  0.00  0.00    +0.000 OA
ATOM     32  C   UNL     1     140.056 127.160 148.537  0.00  0.00    +0.000 C 
ATOM     33  C   UNL     1     140.267 128.340 149.412  0.00  0.00    +0.000 C 
ATOM     34  C   UNL     1     140.433 126.054 149.178  0.00  0.00    +0.000 C 
ATOM     35  C   UNL     1     140.885 126.453 150.509  0.00  0.00    +0.000 C 
ENDBRANCH  19  32
BRANCH  11  36
ATOM     36  O   UNL     1     138.253 128.366 144.778  0.00  0.00    +0.000 OA
ATOM     37  H   UNL     1     139.089 128.688 145.158  0.00  0.00    +0.000 HD
ENDBRANCH  11  36
ENDBRANCH  10  29
ENDBRANCH   2  10
BRANCH   6  38
ATOM     38  O   UNL     1     131.221 120.720 139.452  0.00  0.00    +0.000 OA
BRANCH  38  40
ATOM     39  O   UNL     1     132.859 120.113 137.845  0.00  0.00    +0.000 OA
ATOM     40  C   UNL     1     132.415 121.090 138.778  0.00  0.00    +0.000 C 
ATOM     41  C   UNL     1     133.556 121.574 139.668  0.00  0.00    +0.000 C 
ATOM     42  C   UNL     1     134.928 121.241 139.090  0.00  0.00    +0.000 C 
ATOM     43  C   UNL     1     133.759 120.690 136.879  0.00  0.00    +0.000 C 
ATOM     44  C   UNL     1     135.016 121.297 137.551  0.00  0.00    +0.000 C 
ATOM     45  C   UNL     1     134.137 119.572 135.911  0.00  0.00    +0.000 C 
BRANCH  42  46
ATOM     46  O   UNL     1     135.945 122.023 139.713  0.00  0.00    +0.000 OA
ATOM     47  H   UNL     1     135.788 122.018 140.674  0.00  0.00    +0.000 HD
ENDBRANCH  42  46
BRANCH  44  48
ATOM     48  O   UNL     1     135.392 122.541 136.947  0.00  0.00    +0.000 OA
BRANCH  48  50
ATOM     49  O   UNL     1     137.571 123.053 136.235  0.00  0.00    +0.000 OA
ATOM     50  C   UNL     1     136.305 122.526 135.856  0.00  0.00    +0.000 C 
ATOM     51  C   UNL     1     135.699 123.415 134.764  0.00  0.00    +0.000 C 
ATOM     52  C   UNL     1     136.767 124.059 133.884  0.00  0.00    +0.000 C 
ATOM     53  C   UNL     1     138.570 122.904 135.210  0.00  0.00    +0.000 C 
ATOM     54  C   UNL     1     138.017 123.181 133.800  0.00  0.00    +0.000 C 
ATOM     55  C   UNL     1     139.690 123.875 135.566  0.00  0.00    +0.000 C 
BRANCH  52  56
ATOM     56  O   UNL     1     136.232 124.241 132.567  0.00  0.00    +0.000 OA
ATOM     57  H   UNL     1     136.984 124.337 131.956  0.00  0.00    +0.000 HD
ENDBRANCH  52  56
BRANCH  54  58
ATOM     58  O   UNL     1     137.649 121.934 133.184  0.00  0.00    +0.000 OA
ATOM     59  H   UNL     1     138.256 121.263 133.560  0.00  0.00    +0.000 HD
ENDBRANCH  54  58
ENDBRANCH  48  50
ENDBRANCH  44  48
ENDBRANCH  38  40
ENDBRANCH   6  38
TORSDOF 12
ENDMDL
MODEL 5
REMARK VINA RESULT:      -7.3     32.163     39.577
REMARK  Name = 
REMARK  17 active torsions:
REMARK  status: ('A' for Active; 'I' for Inactive)
REMARK    1  A    between atoms: O_1  and  C_14
REMARK    2  A    between atoms: O_2  and  C_32
REMARK    3  A    between atoms: O_2  and  C_36
REMARK    4  A    between atoms: O_6  and  C_39
REMARK    5  A    between atoms: O_7  and  C_41
REMARK    6  A    between atoms: O_7  and  C_43
REMARK    7  A    between atoms: O_9  and  C_47
REMARK    8  A    between atoms: O_9  and  C_49
REMARK    9  A    between atoms: O_10  and  C_45
REMARK   10  A    between atoms: O_12  and  C_51
REMARK   11  A    between atoms: O_13  and  C_53
REMARK   12  A    between atoms: C_17  and  C_29
REMARK   13  A    between atoms: C_18  and  C_30
REMARK   14  A    between atoms: C_22  and  C_33
REMARK   15  A    between atoms: C_40  and  C_42
REMARK   16  A    between atoms: C_46  and  C_48
REMARK   17  A    between atoms: C_52  and  C_54
REMARK                            x       y       z     vdW  Elec       q    Type
REMARK                         _______ _______ _______ _____ _____    ______ ____
ROOT
ATOM      1  O   UNL     1     132.898 123.060 146.061  0.00  0.00    +0.000 OA
ATOM      2  C   UNL     1     132.629 123.461 144.721  0.00  0.00    +0.000 C 
ATOM      3  C   UNL     1     131.876 124.793 144.652  0.00  0.00    +0.000 C 
ATOM      4  C   UNL     1     131.817 125.470 146.013  0.00  0.00    +0.000 C 
ATOM      5  C   UNL     1     133.750 123.983 146.750  0.00  0.00    +0.000 C 
ATOM      6  C   UNL     1     133.142 125.405 146.799  0.00  0.00    +0.000 C 
ATOM      7  C   UNL     1     133.959 123.423 148.157  0.00  0.00    +0.000 C 
ENDROOT
BRANCH   4   8
ATOM      8  O   UNL     1     131.278 126.784 145.922  0.00  0.00    +0.000 OA
ATOM      9  H   UNL     1     130.942 126.881 145.006  0.00  0.00    +0.000 HD
ENDBRANCH   4   8
BRANCH   2  10
ATOM     10  O   UNL     1     131.948 122.447 143.982  0.00  0.00    +0.000 OA
BRANCH  10  29
ATOM     11  C   UNL     1     134.768 121.297 136.822  0.00  0.00    +0.000 C 
ATOM     12  C   UNL     1     134.231 121.471 138.269  0.00  0.00    +0.000 C 
ATOM     13  C   UNL     1     135.334 121.819 139.300  0.00  0.00    +0.000 C 
ATOM     14  C   UNL     1     135.692 122.452 136.340  0.00  0.00    +0.000 C 
ATOM     15  C   UNL     1     134.782 122.001 140.773  0.00  0.00    +0.000 C 
ATOM     16  C   UNL     1     133.879 120.783 141.161  0.00  0.00    +0.000 C 
ATOM     17  C   UNL     1     136.162 123.020 138.797  0.00  0.00    +0.000 C 
ATOM     18  C   UNL     1     136.762 122.766 137.414  0.00  0.00    +0.000 C 
ATOM     19  C   UNL     1     136.317 121.825 135.053  0.00  0.00    +0.000 C 
ATOM     20  C   UNL     1     133.439 120.236 138.724  0.00  0.00    +0.000 C 
ATOM     21  C   UNL     1     135.614 120.032 136.596  0.00  0.00    +0.000 C 
ATOM     22  C   UNL     1     132.818 120.460 140.094  0.00  0.00    +0.000 C 
ATOM     23  C   UNL     1     136.569 120.353 135.440  0.00  0.00    +0.000 C 
ATOM     24  C   UNL     1     133.978 123.322 140.937  0.00  0.00    +0.000 C 
ATOM     25  C   UNL     1     133.188 120.964 142.528  0.00  0.00    +0.000 C 
ATOM     26  C   UNL     1     134.903 123.734 136.006  0.00  0.00    +0.000 C 
ATOM     27  C   UNL     1     136.001 122.040 141.737  0.00  0.00    +0.000 C 
ATOM     28  C   UNL     1     133.305 123.466 142.302  0.00  0.00    +0.000 C 
ATOM     29  C   UNL     1     132.407 122.277 142.637  0.00  0.00    +0.000 C 
BRANCH  19  32
ATOM     30  O   UNL     1     138.611 123.979 133.027  0.00  0.00    +0.000 OA
ATOM     31  O   UNL     1     140.722 123.371 133.696  0.00  0.00    +0.000 OA
ATOM     32  C   UNL     1     137.489 122.543 134.440  0.00  0.00    +0.000 C 
ATOM     33  C   UNL     1     137.292 123.579 133.395  0.00  0.00    +0.000 C 
ATOM     34  C   UNL     1     138.794 122.353 134.641  0.00  0.00    +0.000 C 
ATOM     35  C   UNL     1     139.510 123.270 133.758  0.00  0.00    +0.000 C 
ENDBRANCH  19  32
BRANCH  11  36
ATOM     36  O   UNL     1     133.647 121.181 135.928  0.00  0.00    +0.000 OA
ATOM     37  H   UNL     1     133.663 121.933 135.312  0.00  0.00    +0.000 HD
ENDBRANCH  11  36
ENDBRANCH  10  29
ENDBRANCH   2  10
BRANCH   6  38
ATOM     38  O   UNL     1     134.133 126.424 146.632  0.00  0.00    +0.000 OA
BRANCH  38  40
ATOM     39  O   UNL     1     136.332 126.208 147.497  0.00  0.00    +0.000 OA
ATOM     40  C   UNL     1     135.505 126.197 146.342  0.00  0.00    +0.000 C 
ATOM     41  C   UNL     1     136.094 127.048 145.222  0.00  0.00    +0.000 C 
ATOM     42  C   UNL     1     137.577 127.342 145.432  0.00  0.00    +0.000 C 
ATOM     43  C   UNL     1     137.582 125.536 147.247  0.00  0.00    +0.000 C 
ATOM     44  C   UNL     1     138.378 126.205 146.098  0.00  0.00    +0.000 C 
ATOM     45  C   UNL     1     138.369 125.572 148.555  0.00  0.00    +0.000 C 
BRANCH  42  46
ATOM     46  O   UNL     1     138.184 127.786 144.219  0.00  0.00    +0.000 OA
ATOM     47  H   UNL     1     138.175 128.759 144.212  0.00  0.00    +0.000 HD
ENDBRANCH  42  46
BRANCH  44  48
ATOM     48  O   UNL     1     138.996 125.233 145.245  0.00  0.00    +0.000 OA
BRANCH  48  50
ATOM     49  O   UNL     1     140.456 124.068 146.668  0.00  0.00    +0.000 OA
ATOM     50  C   UNL     1     140.347 124.863 145.493  0.00  0.00    +0.000 C 
ATOM     51  C   UNL     1     141.130 126.165 145.695  0.00  0.00    +0.000 C 
ATOM     52  C   UNL     1     142.336 125.979 146.613  0.00  0.00    +0.000 C 
ATOM     53  C   UNL     1     141.779 123.535 146.864  0.00  0.00    +0.000 C 
ATOM     54  C   UNL     1     142.883 124.553 146.523  0.00  0.00    +0.000 C 
ATOM     55  C   UNL     1     141.852 123.108 148.325  0.00  0.00    +0.000 C 
BRANCH  52  56
ATOM     56  O   UNL     1     143.361 126.901 146.220  0.00  0.00    +0.000 OA
ATOM     57  H   UNL     1     143.825 127.183 147.028  0.00  0.00    +0.000 HD
ENDBRANCH  52  56
BRANCH  54  58
ATOM     58  O   UNL     1     143.331 124.328 145.174  0.00  0.00    +0.000 OA
ATOM     59  H   UNL     1     144.020 125.004 145.007  0.00  0.00    +0.000 HD
ENDBRANCH  54  58
ENDBRANCH  48  50
ENDBRANCH  44  48
ENDBRANCH  38  40
ENDBRANCH   6  38
TORSDOF 12
ENDMDL
MODEL 6
REMARK VINA RESULT:      -7.3      4.582      8.693
REMARK  Name = 
REMARK  17 active torsions:
REMARK  status: ('A' for Active; 'I' for Inactive)
REMARK    1  A    between atoms: O_1  and  C_14
REMARK    2  A    between atoms: O_2  and  C_32
REMARK    3  A    between atoms: O_2  and  C_36
REMARK    4  A    between atoms: O_6  and  C_39
REMARK    5  A    between atoms: O_7  and  C_41
REMARK    6  A    between atoms: O_7  and  C_43
REMARK    7  A    between atoms: O_9  and  C_47
REMARK    8  A    between atoms: O_9  and  C_49
REMARK    9  A    between atoms: O_10  and  C_45
REMARK   10  A    between atoms: O_12  and  C_51
REMARK   11  A    between atoms: O_13  and  C_53
REMARK   12  A    between atoms: C_17  and  C_29
REMARK   13  A    between atoms: C_18  and  C_30
REMARK   14  A    between atoms: C_22  and  C_33
REMARK   15  A    between atoms: C_40  and  C_42
REMARK   16  A    between atoms: C_46  and  C_48
REMARK   17  A    between atoms: C_52  and  C_54
REMARK                            x       y       z     vdW  Elec       q    Type
REMARK                         _______ _______ _______ _____ _____    ______ ____
ROOT
ATOM      1  O   UNL     1     146.542 113.002 109.682  0.00  0.00    +0.000 OA
ATOM      2  C   UNL     1     145.905 114.270 109.553  0.00  0.00    +0.000 C 
ATOM      3  C   UNL     1     146.495 115.106 108.414  0.00  0.00    +0.000 C 
ATOM      4  C   UNL     1     147.444 114.283 107.555  0.00  0.00    +0.000 C 
ATOM      5  C   UNL     1     146.373 112.183 108.519  0.00  0.00    +0.000 C 
ATOM      6  C   UNL     1     146.932 112.862 107.246  0.00  0.00    +0.000 C 
ATOM      7  C   UNL     1     147.092 110.864 108.802  0.00  0.00    +0.000 C 
ENDROOT
BRANCH   4   8
ATOM      8  O   UNL     1     147.856 115.000 106.396  0.00  0.00    +0.000 OA
ATOM      9  H   UNL     1     148.512 115.661 106.700  0.00  0.00    +0.000 HD
ENDBRANCH   4   8
BRANCH   2  10
ATOM     10  O   UNL     1     145.907 115.000 110.781  0.00  0.00    +0.000 OA
BRANCH  10  29
ATOM     11  C   UNL     1     138.836 115.377 114.007  0.00  0.00    +0.000 C 
ATOM     12  C   UNL     1     140.249 115.240 113.377  0.00  0.00    +0.000 C 
ATOM     13  C   UNL     1     140.252 114.486 112.023  0.00  0.00    +0.000 C 
ATOM     14  C   UNL     1     137.749 115.905 113.028  0.00  0.00    +0.000 C 
ATOM     15  C   UNL     1     141.694 114.353 111.382  0.00  0.00    +0.000 C 
ATOM     16  C   UNL     1     142.704 113.803 112.443  0.00  0.00    +0.000 C 
ATOM     17  C   UNL     1     139.208 115.110 111.074  0.00  0.00    +0.000 C 
ATOM     18  C   UNL     1     137.809 115.128 111.690  0.00  0.00    +0.000 C 
ATOM     19  C   UNL     1     136.443 115.598 113.829  0.00  0.00    +0.000 C 
ATOM     20  C   UNL     1     141.238 114.590 114.357  0.00  0.00    +0.000 C 
ATOM     21  C   UNL     1     138.239 114.065 114.544  0.00  0.00    +0.000 C 
ATOM     22  C   UNL     1     142.644 114.565 113.779  0.00  0.00    +0.000 C 
ATOM     23  C   UNL     1     136.716 114.223 114.473  0.00  0.00    +0.000 C 
ATOM     24  C   UNL     1     142.211 115.707 110.820  0.00  0.00    +0.000 C 
ATOM     25  C   UNL     1     144.158 113.787 111.931  0.00  0.00    +0.000 C 
ATOM     26  C   UNL     1     137.890 117.416 112.754  0.00  0.00    +0.000 C 
ATOM     27  C   UNL     1     141.603 113.333 110.211  0.00  0.00    +0.000 C 
ATOM     28  C   UNL     1     143.656 115.655 110.323  0.00  0.00    +0.000 C 
ATOM     29  C   UNL     1     144.620 115.144 111.392  0.00  0.00    +0.000 C 
BRANCH  19  32
ATOM     30  O   UNL     1     133.169 116.682 112.376  0.00  0.00    +0.000 OA
ATOM     31  O   UNL     1     132.409 114.849 111.221  0.00  0.00    +0.000 OA
ATOM     32  C   UNL     1     135.140 115.718 113.086  0.00  0.00    +0.000 C 
ATOM     33  C   UNL     1     134.340 116.968 113.139  0.00  0.00    +0.000 C 
ATOM     34  C   UNL     1     134.485 114.797 112.377  0.00  0.00    +0.000 C 
ATOM     35  C   UNL     1     133.241 115.407 111.912  0.00  0.00    +0.000 C 
ENDBRANCH  19  32
BRANCH  11  36
ATOM     36  O   UNL     1     138.923 116.258 115.140  0.00  0.00    +0.000 OA
ATOM     37  H   UNL     1     138.125 116.813 115.163  0.00  0.00    +0.000 HD
ENDBRANCH  11  36
ENDBRANCH  10  29
ENDBRANCH   2  10
BRANCH   6  38
ATOM     38  O   UNL     1     146.111 112.622 106.099  0.00  0.00    +0.000 OA
BRANCH  38  40
ATOM     39  O   UNL     1     144.049 111.903 105.172  0.00  0.00    +0.000 OA
ATOM     40  C   UNL     1     144.706 112.818 106.038  0.00  0.00    +0.000 C 
ATOM     41  C   UNL     1     144.247 114.252 105.791  0.00  0.00    +0.000 C 
ATOM     42  C   UNL     1     142.934 114.318 105.017  0.00  0.00    +0.000 C 
ATOM     43  C   UNL     1     142.644 111.816 105.479  0.00  0.00    +0.000 C 
ATOM     44  C   UNL     1     141.935 113.187 105.333  0.00  0.00    +0.000 C 
ATOM     45  C   UNL     1     142.049 110.784 104.524  0.00  0.00    +0.000 C 
BRANCH  42  46
ATOM     46  O   UNL     1     142.337 115.608 105.138  0.00  0.00    +0.000 OA
ATOM     47  H   UNL     1     142.835 116.229 104.577  0.00  0.00    +0.000 HD
ENDBRANCH  42  46
BRANCH  44  48
ATOM     48  O   UNL     1     140.983 113.406 106.381  0.00  0.00    +0.000 OA
BRANCH  48  50
ATOM     49  O   UNL     1     138.775 113.738 107.108  0.00  0.00    +0.000 OA
ATOM     50  C   UNL     1     139.705 113.935 106.049  0.00  0.00    +0.000 C 
ATOM     51  C   UNL     1     139.223 113.174 104.810  0.00  0.00    +0.000 C 
ATOM     52  C   UNL     1     137.700 113.090 104.739  0.00  0.00    +0.000 C 
ATOM     53  C   UNL     1     137.519 114.403 106.880  0.00  0.00    +0.000 C 
ATOM     54  C   UNL     1     137.048 114.297 105.418  0.00  0.00    +0.000 C 
ATOM     55  C   UNL     1     136.519 113.757 107.833  0.00  0.00    +0.000 C 
BRANCH  52  56
ATOM     56  O   UNL     1     137.304 113.056 103.362  0.00  0.00    +0.000 OA
ATOM     57  H   UNL     1     137.541 112.179 103.011  0.00  0.00    +0.000 HD
ENDBRANCH  52  56
BRANCH  54  58
ATOM     58  O   UNL     1     137.447 115.482 104.707  0.00  0.00    +0.000 OA
ATOM     59  H   UNL     1     136.732 115.657 104.060  0.00  0.00    +0.000 HD
ENDBRANCH  54  58
ENDBRANCH  48  50
ENDBRANCH  44  48
ENDBRANCH  38  40
ENDBRANCH   6  38
TORSDOF 12
ENDMDL
MODEL 7
REMARK VINA RESULT:      -7.3      7.790     19.672
REMARK  Name = 
REMARK  17 active torsions:
REMARK  status: ('A' for Active; 'I' for Inactive)
REMARK    1  A    between atoms: O_1  and  C_14
REMARK    2  A    between atoms: O_2  and  C_32
REMARK    3  A    between atoms: O_2  and  C_36
REMARK    4  A    between atoms: O_6  and  C_39
REMARK    5  A    between atoms: O_7  and  C_41
REMARK    6  A    between atoms: O_7  and  C_43
REMARK    7  A    between atoms: O_9  and  C_47
REMARK    8  A    between atoms: O_9  and  C_49
REMARK    9  A    between atoms: O_10  and  C_45
REMARK   10  A    between atoms: O_12  and  C_51
REMARK   11  A    between atoms: O_13  and  C_53
REMARK   12  A    between atoms: C_17  and  C_29
REMARK   13  A    between atoms: C_18  and  C_30
REMARK   14  A    between atoms: C_22  and  C_33
REMARK   15  A    between atoms: C_40  and  C_42
REMARK   16  A    between atoms: C_46  and  C_48
REMARK   17  A    between atoms: C_52  and  C_54
REMARK                            x       y       z     vdW  Elec       q    Type
REMARK                         _______ _______ _______ _____ _____    ______ ____
ROOT
ATOM      1  O   UNL     1     150.589 112.485 119.936  0.00  0.00    +0.000 OA
ATOM      2  C   UNL     1     151.173 113.713 119.508  0.00  0.00    +0.000 C 
ATOM      3  C   UNL     1     150.260 114.914 119.772  0.00  0.00    +0.000 C 
ATOM      4  C   UNL     1     149.072 114.529 120.639  0.00  0.00    +0.000 C 
ATOM      5  C   UNL     1     150.360 112.450 121.350  0.00  0.00    +0.000 C 
ATOM      6  C   UNL     1     149.432 113.598 121.814  0.00  0.00    +0.000 C 
ATOM      7  C   UNL     1     149.749 111.085 121.663  0.00  0.00    +0.000 C 
ENDROOT
BRANCH   4   8
ATOM      8  O   UNL     1     148.320 115.672 121.034  0.00  0.00    +0.000 OA
ATOM      9  H   UNL     1     148.706 116.435 120.554  0.00  0.00    +0.000 HD
ENDBRANCH   4   8
BRANCH   2  10
ATOM     10  O   UNL     1     151.579 113.666 118.140  0.00  0.00    +0.000 OA
BRANCH  10  29
ATOM     11  C   UNL     1     145.996 112.986 112.763  0.00  0.00    +0.000 C 
ATOM     12  C   UNL     1     147.137 113.069 113.813  0.00  0.00    +0.000 C 
ATOM     13  C   UNL     1     148.500 113.497 113.213  0.00  0.00    +0.000 C 
ATOM     14  C   UNL     1     145.878 114.238 111.848  0.00  0.00    +0.000 C 
ATOM     15  C   UNL     1     149.660 113.586 114.288  0.00  0.00    +0.000 C 
ATOM     16  C   UNL     1     149.700 112.275 115.142  0.00  0.00    +0.000 C 
ATOM     17  C   UNL     1     148.325 114.787 112.384  0.00  0.00    +0.000 C 
ATOM     18  C   UNL     1     147.268 114.629 111.291  0.00  0.00    +0.000 C 
ATOM     19  C   UNL     1     144.923 113.709 110.730  0.00  0.00    +0.000 C 
ATOM     20  C   UNL     1     147.281 111.750 114.588  0.00  0.00    +0.000 C 
ATOM     21  C   UNL     1     146.117 111.817 111.769  0.00  0.00    +0.000 C 
ATOM     22  C   UNL     1     148.319 111.876 115.692  0.00  0.00    +0.000 C 
ATOM     23  C   UNL     1     145.395 112.260 110.491  0.00  0.00    +0.000 C 
ATOM     24  C   UNL     1     149.496 114.816 115.224  0.00  0.00    +0.000 C 
ATOM     25  C   UNL     1     150.709 112.352 116.305  0.00  0.00    +0.000 C 
ATOM     26  C   UNL     1     145.258 115.445 112.582  0.00  0.00    +0.000 C 
ATOM     27  C   UNL     1     151.008 113.720 113.524  0.00  0.00    +0.000 C 
ATOM     28  C   UNL     1     150.511 114.858 116.366  0.00  0.00    +0.000 C 
ATOM     29  C   UNL     1     150.503 113.578 117.200  0.00  0.00    +0.000 C 
BRANCH  19  32
ATOM     30  O   UNL     1     145.201 115.284 107.346  0.00  0.00    +0.000 OA
ATOM     31  O   UNL     1     143.820 117.116 107.442  0.00  0.00    +0.000 OA
ATOM     32  C   UNL     1     144.781 114.556 109.493  0.00  0.00    +0.000 C 
ATOM     33  C   UNL     1     145.551 114.247 108.261  0.00  0.00    +0.000 C 
ATOM     34  C   UNL     1     144.073 115.670 109.311  0.00  0.00    +0.000 C 
ATOM     35  C   UNL     1     144.324 116.130 107.947  0.00  0.00    +0.000 C 
ENDBRANCH  19  32
BRANCH  11  36
ATOM     36  O   UNL     1     144.751 112.783 113.454  0.00  0.00    +0.000 OA
ATOM     37  H   UNL     1     144.026 112.843 112.809  0.00  0.00    +0.000 HD
ENDBRANCH  11  36
ENDBRANCH  10  29
ENDBRANCH   2  10
BRANCH   6  38
ATOM     38  O   UNL     1     149.834 114.145 123.074  0.00  0.00    +0.000 OA
BRANCH  38  40
ATOM     39  O   UNL     1     151.731 115.563 122.917  0.00  0.00    +0.000 OA
ATOM     40  C   UNL     1     150.360 115.449 123.273  0.00  0.00    +0.000 C 
ATOM     41  C   UNL     1     150.081 116.074 124.637  0.00  0.00    +0.000 C 
ATOM     42  C   UNL     1     151.193 117.019 125.083  0.00  0.00    +0.000 C 
ATOM     43  C   UNL     1     152.095 116.938 122.688  0.00  0.00    +0.000 C 
ATOM     44  C   UNL     1     151.867 117.813 123.946  0.00  0.00    +0.000 C 
ATOM     45  C   UNL     1     153.565 116.939 122.275  0.00  0.00    +0.000 C 
BRANCH  42  46
ATOM     46  O   UNL     1     150.745 117.869 126.138  0.00  0.00    +0.000 OA
ATOM     47  H   UNL     1     149.890 118.254 125.876  0.00  0.00    +0.000 HD
ENDBRANCH  42  46
BRANCH  44  48
ATOM     48  O   UNL     1     151.320 119.094 123.609  0.00  0.00    +0.000 OA
BRANCH  48  50
ATOM     49  O   UNL     1     152.175 120.343 125.404  0.00  0.00    +0.000 OA
ATOM     50  C   UNL     1     152.030 120.266 123.991  0.00  0.00    +0.000 C 
ATOM     51  C   UNL     1     151.200 121.460 123.507  0.00  0.00    +0.000 C 
ATOM     52  C   UNL     1     151.402 122.697 124.380  0.00  0.00    +0.000 C 
ATOM     53  C   UNL     1     153.028 121.425 125.822  0.00  0.00    +0.000 C 
ATOM     54  C   UNL     1     152.798 122.709 125.005  0.00  0.00    +0.000 C 
ATOM     55  C   UNL     1     152.735 121.648 127.301  0.00  0.00    +0.000 C 
BRANCH  52  56
ATOM     56  O   UNL     1     151.241 123.866 123.567  0.00  0.00    +0.000 OA
ATOM     57  H   UNL     1     151.313 124.641 124.152  0.00  0.00    +0.000 HD
ENDBRANCH  52  56
BRANCH  54  58
ATOM     58  O   UNL     1     153.766 122.772 123.942  0.00  0.00    +0.000 OA
ATOM     59  H   UNL     1     154.580 122.362 124.299  0.00  0.00    +0.000 HD
ENDBRANCH  54  58
ENDBRANCH  48  50
ENDBRANCH  44  48
ENDBRANCH  38  40
ENDBRANCH   6  38
TORSDOF 12
ENDMDL
MODEL 8
REMARK VINA RESULT:      -7.2     28.718     34.151
REMARK  Name = 
REMARK  17 active torsions:
REMARK  status: ('A' for Active; 'I' for Inactive)
REMARK    1  A    between atoms: O_1  and  C_14
REMARK    2  A    between atoms: O_2  and  C_32
REMARK    3  A    between atoms: O_2  and  C_36
REMARK    4  A    between atoms: O_6  and  C_39
REMARK    5  A    between atoms: O_7  and  C_41
REMARK    6  A    between atoms: O_7  and  C_43
REMARK    7  A    between atoms: O_9  and  C_47
REMARK    8  A    between atoms: O_9  and  C_49
REMARK    9  A    between atoms: O_10  and  C_45
REMARK   10  A    between atoms: O_12  and  C_51
REMARK   11  A    between atoms: O_13  and  C_53
REMARK   12  A    between atoms: C_17  and  C_29
REMARK   13  A    between atoms: C_18  and  C_30
REMARK   14  A    between atoms: C_22  and  C_33
REMARK   15  A    between atoms: C_40  and  C_42
REMARK   16  A    between atoms: C_46  and  C_48
REMARK   17  A    between atoms: C_52  and  C_54
REMARK                            x       y       z     vdW  Elec       q    Type
REMARK                         _______ _______ _______ _____ _____    ______ ____
ROOT
ATOM      1  O   UNL     1     153.634 134.432 131.027  0.00  0.00    +0.000 OA
ATOM      2  C   UNL     1     152.478 134.149 131.811  0.00  0.00    +0.000 C 
ATOM      3  C   UNL     1     151.214 134.795 131.238  0.00  0.00    +0.000 C 
ATOM      4  C   UNL     1     151.463 135.371 129.852  0.00  0.00    +0.000 C 
ATOM      5  C   UNL     1     153.539 133.904 129.698  0.00  0.00    +0.000 C 
ATOM      6  C   UNL     1     152.310 134.461 128.941  0.00  0.00    +0.000 C 
ATOM      7  C   UNL     1     154.840 134.270 128.985  0.00  0.00    +0.000 C 
ENDROOT
BRANCH   4   8
ATOM      8  O   UNL     1     150.254 135.812 129.243  0.00  0.00    +0.000 OA
ATOM      9  H   UNL     1     150.469 136.649 128.780  0.00  0.00    +0.000 HD
ENDBRANCH   4   8
BRANCH   2  10
ATOM     10  O   UNL     1     152.660 134.501 133.182  0.00  0.00    +0.000 OA
BRANCH  10  29
ATOM     11  C   UNL     1     151.715 128.833 138.430  0.00  0.00    +0.000 C 
ATOM     12  C   UNL     1     151.932 129.999 137.427  0.00  0.00    +0.000 C 
ATOM     13  C   UNL     1     153.404 130.150 136.964  0.00  0.00    +0.000 C 
ATOM     14  C   UNL     1     152.341 127.482 137.983  0.00  0.00    +0.000 C 
ATOM     15  C   UNL     1     153.621 131.336 135.937  0.00  0.00    +0.000 C 
ATOM     16  C   UNL     1     152.967 132.647 136.488  0.00  0.00    +0.000 C 
ATOM     17  C   UNL     1     153.936 128.792 136.461  0.00  0.00    +0.000 C 
ATOM     18  C   UNL     1     153.802 127.694 137.517  0.00  0.00    +0.000 C 
ATOM     19  C   UNL     1     152.260 126.657 139.308  0.00  0.00    +0.000 C 
ATOM     20  C   UNL     1     151.408 131.328 137.991  0.00  0.00    +0.000 C 
ATOM     21  C   UNL     1     152.308 129.067 139.830  0.00  0.00    +0.000 C 
ATOM     22  C   UNL     1     151.517 132.441 136.961  0.00  0.00    +0.000 C 
ATOM     23  C   UNL     1     152.614 127.680 140.406  0.00  0.00    +0.000 C 
ATOM     24  C   UNL     1     153.037 131.009 134.534  0.00  0.00    +0.000 C 
ATOM     25  C   UNL     1     153.012 133.807 135.473  0.00  0.00    +0.000 C 
ATOM     26  C   UNL     1     151.533 126.805 136.857  0.00  0.00    +0.000 C 
ATOM     27  C   UNL     1     155.151 131.569 135.795  0.00  0.00    +0.000 C 
ATOM     28  C   UNL     1     153.095 132.181 133.556  0.00  0.00    +0.000 C 
ATOM     29  C   UNL     1     152.421 133.436 134.109  0.00  0.00    +0.000 C 
BRANCH  19  32
ATOM     30  O   UNL     1     154.635 123.860 140.045  0.00  0.00    +0.000 OA
ATOM     31  O   UNL     1     154.123 122.239 138.501  0.00  0.00    +0.000 OA
ATOM     32  C   UNL     1     153.027 125.363 139.357  0.00  0.00    +0.000 C 
ATOM     33  C   UNL     1     154.120 125.157 140.341  0.00  0.00    +0.000 C 
ATOM     34  C   UNL     1     152.935 124.297 138.561  0.00  0.00    +0.000 C 
ATOM     35  C   UNL     1     153.943 123.334 139.001  0.00  0.00    +0.000 C 
ENDBRANCH  19  32
BRANCH  11  36
ATOM     36  O   UNL     1     150.301 128.659 138.630  0.00  0.00    +0.000 OA
ATOM     37  H   UNL     1     149.894 129.535 138.743  0.00  0.00    +0.000 HD
ENDBRANCH  11  36
ENDBRANCH  10  29
ENDBRANCH   2  10
BRANCH   6  38
ATOM     38  O   UNL     1     151.682 133.470 128.123  0.00  0.00    +0.000 OA
BRANCH  38  40
ATOM     39  O   UNL     1     149.909 134.482 126.913  0.00  0.00    +0.000 OA
ATOM     40  C   UNL     1     151.097 133.704 126.850  0.00  0.00    +0.000 C 
ATOM     41  C   UNL     1     150.916 132.473 125.967  0.00  0.00    +0.000 C 
ATOM     42  C   UNL     1     149.702 132.588 125.049  0.00  0.00    +0.000 C 
ATOM     43  C   UNL     1     149.613 135.079 125.635  0.00  0.00    +0.000 C 
ATOM     44  C   UNL     1     149.412 134.011 124.530  0.00  0.00    +0.000 C 
ATOM     45  C   UNL     1     148.351 135.918 125.826  0.00  0.00    +0.000 C 
BRANCH  42  46
ATOM     46  O   UNL     1     149.776 131.637 123.988  0.00  0.00    +0.000 OA
ATOM     47  H   UNL     1     149.216 131.951 123.257  0.00  0.00    +0.000 HD
ENDBRANCH  42  46
BRANCH  44  48
ATOM     48  O   UNL     1     150.015 134.409 123.292  0.00  0.00    +0.000 OA
BRANCH  48  50
ATOM     49  O   UNL     1     150.737 136.232 122.001  0.00  0.00    +0.000 OA
ATOM     50  C   UNL     1     150.816 135.584 123.265  0.00  0.00    +0.000 C 
ATOM     51  C   UNL     1     152.262 135.135 123.508  0.00  0.00    +0.000 C 
ATOM     52  C   UNL     1     153.275 136.067 122.849  0.00  0.00    +0.000 C 
ATOM     53  C   UNL     1     151.400 137.510 121.985  0.00  0.00    +0.000 C 
ATOM     54  C   UNL     1     152.733 137.495 122.755  0.00  0.00    +0.000 C 
ATOM     55  C   UNL     1     151.613 137.857 120.515  0.00  0.00    +0.000 C 
BRANCH  52  56
ATOM     56  O   UNL     1     154.476 136.071 123.631  0.00  0.00    +0.000 OA
ATOM     57  H   UNL     1     154.692 137.000 123.830  0.00  0.00    +0.000 HD
ENDBRANCH  52  56
BRANCH  54  58
ATOM     58  O   UNL     1     152.511 137.980 124.092  0.00  0.00    +0.000 OA
ATOM     59  H   UNL     1     153.359 138.382 124.372  0.00  0.00    +0.000 HD
ENDBRANCH  54  58
ENDBRANCH  48  50
ENDBRANCH  44  48
ENDBRANCH  38  40
ENDBRANCH   6  38
TORSDOF 12
ENDMDL
MODEL 9
REMARK VINA RESULT:      -7.2      8.804     20.729
REMARK  Name = 
REMARK  17 active torsions:
REMARK  status: ('A' for Active; 'I' for Inactive)
REMARK    1  A    between atoms: O_1  and  C_14
REMARK    2  A    between atoms: O_2  and  C_32
REMARK    3  A    between atoms: O_2  and  C_36
REMARK    4  A    between atoms: O_6  and  C_39
REMARK    5  A    between atoms: O_7  and  C_41
REMARK    6  A    between atoms: O_7  and  C_43
REMARK    7  A    between atoms: O_9  and  C_47
REMARK    8  A    between atoms: O_9  and  C_49
REMARK    9  A    between atoms: O_10  and  C_45
REMARK   10  A    between atoms: O_12  and  C_51
REMARK   11  A    between atoms: O_13  and  C_53
REMARK   12  A    between atoms: C_17  and  C_29
REMARK   13  A    between atoms: C_18  and  C_30
REMARK   14  A    between atoms: C_22  and  C_33
REMARK   15  A    between atoms: C_40  and  C_42
REMARK   16  A    between atoms: C_46  and  C_48
REMARK   17  A    between atoms: C_52  and  C_54
REMARK                            x       y       z     vdW  Elec       q    Type
REMARK                         _______ _______ _______ _____ _____    ______ ____
ROOT
ATOM      1  O   UNL     1     152.555 114.883 119.438  0.00  0.00    +0.000 OA
ATOM      2  C   UNL     1     151.298 114.617 118.820  0.00  0.00    +0.000 C 
ATOM      3  C   UNL     1     150.229 114.201 119.833  0.00  0.00    +0.000 C 
ATOM      4  C   UNL     1     150.705 114.408 121.263  0.00  0.00    +0.000 C 
ATOM      5  C   UNL     1     152.493 115.981 120.357  0.00  0.00    +0.000 C 
ATOM      6  C   UNL     1     151.460 115.735 121.482  0.00  0.00    +0.000 C 
ATOM      7  C   UNL     1     153.900 116.156 120.928  0.00  0.00    +0.000 C 
ENDROOT
BRANCH   4   8
ATOM      8  O   UNL     1     149.657 114.193 122.201  0.00  0.00    +0.000 OA
ATOM      9  H   UNL     1     149.706 113.247 122.457  0.00  0.00    +0.000 HD
ENDBRANCH   4   8
BRANCH   2  10
ATOM     10  O   UNL     1     151.409 113.660 117.766  0.00  0.00    +0.000 OA
BRANCH  10  29
ATOM     11  C   UNL     1     145.492 113.113 112.744  0.00  0.00    +0.000 C 
ATOM     12  C   UNL     1     146.696 113.168 113.722  0.00  0.00    +0.000 C 
ATOM     13  C   UNL     1     148.033 113.551 113.036  0.00  0.00    +0.000 C 
ATOM     14  C   UNL     1     145.356 114.362 111.827  0.00  0.00    +0.000 C 
ATOM     15  C   UNL     1     149.258 113.612 114.038  0.00  0.00    +0.000 C 
ATOM     16  C   UNL     1     149.310 112.306 114.900  0.00  0.00    +0.000 C 
ATOM     17  C   UNL     1     147.846 114.839 112.208  0.00  0.00    +0.000 C 
ATOM     18  C   UNL     1     146.721 114.706 111.182  0.00  0.00    +0.000 C 
ATOM     19  C   UNL     1     144.320 113.854 110.773  0.00  0.00    +0.000 C 
ATOM     20  C   UNL     1     146.848 111.852 114.499  0.00  0.00    +0.000 C 
ATOM     21  C   UNL     1     145.517 111.934 111.755  0.00  0.00    +0.000 C 
ATOM     22  C   UNL     1     147.954 111.953 115.537  0.00  0.00    +0.000 C 
ATOM     23  C   UNL     1     144.732 112.390 110.519  0.00  0.00    +0.000 C 
ATOM     24  C   UNL     1     149.188 114.852 114.972  0.00  0.00    +0.000 C 
ATOM     25  C   UNL     1     150.390 112.360 115.999  0.00  0.00    +0.000 C 
ATOM     26  C   UNL     1     144.818 115.592 112.586  0.00  0.00    +0.000 C 
ATOM     27  C   UNL     1     150.560 113.699 113.194  0.00  0.00    +0.000 C 
ATOM     28  C   UNL     1     150.271 114.872 116.050  0.00  0.00    +0.000 C 
ATOM     29  C   UNL     1     150.276 113.598 116.894  0.00  0.00    +0.000 C 
BRANCH  19  32
ATOM     30  O   UNL     1     143.353 116.439 108.245  0.00  0.00    +0.000 OA
ATOM     31  O   UNL     1     144.200 115.656 106.260  0.00  0.00    +0.000 OA
ATOM     32  C   UNL     1     144.128 114.696 109.540  0.00  0.00    +0.000 C 
ATOM     33  C   UNL     1     143.369 115.970 109.593  0.00  0.00    +0.000 C 
ATOM     34  C   UNL     1     144.497 114.446 108.283  0.00  0.00    +0.000 C 
ATOM     35  C   UNL     1     144.020 115.555 107.459  0.00  0.00    +0.000 C 
ENDBRANCH  19  32
BRANCH  11  36
ATOM     36  O   UNL     1     144.286 112.953 113.510  0.00  0.00    +0.000 OA
ATOM     37  H   UNL     1     144.220 113.690 114.142  0.00  0.00    +0.000 HD
ENDBRANCH  11  36
ENDBRANCH  10  29
ENDBRANCH   2  10
BRANCH   6  38
ATOM     38  O   UNL     1     150.745 116.924 121.831  0.00  0.00    +0.000 OA
BRANCH  38  40
ATOM     39  O   UNL     1     151.481 118.734 123.179  0.00  0.00    +0.000 OA
ATOM     40  C   UNL     1     150.732 117.528 123.117  0.00  0.00    +0.000 C 
ATOM     41  C   UNL     1     151.058 116.604 124.286  0.00  0.00    +0.000 C 
ATOM     42  C   UNL     1     151.750 117.337 125.432  0.00  0.00    +0.000 C 
ATOM     43  C   UNL     1     151.080 119.537 124.306  0.00  0.00    +0.000 C 
ATOM     44  C   UNL     1     151.285 118.791 125.649  0.00  0.00    +0.000 C 
ATOM     45  C   UNL     1     151.913 120.815 124.253  0.00  0.00    +0.000 C 
BRANCH  42  46
ATOM     46  O   UNL     1     151.691 116.571 126.634  0.00  0.00    +0.000 OA
ATOM     47  H   UNL     1     152.214 117.029 127.314  0.00  0.00    +0.000 HD
ENDBRANCH  42  46
BRANCH  44  48
ATOM     48  O   UNL     1     150.198 119.019 126.554  0.00  0.00    +0.000 OA
BRANCH  48  50
ATOM     49  O   UNL     1     151.849 119.801 128.030  0.00  0.00    +0.000 OA
ATOM     50  C   UNL     1     150.453 119.705 127.774  0.00  0.00    +0.000 C 
ATOM     51  C   UNL     1     149.795 118.881 128.887  0.00  0.00    +0.000 C 
ATOM     52  C   UNL     1     150.511 119.042 130.226  0.00  0.00    +0.000 C 
ATOM     53  C   UNL     1     152.155 120.630 129.166  0.00  0.00    +0.000 C 
ATOM     54  C   UNL     1     151.175 120.417 130.335  0.00  0.00    +0.000 C 
ATOM     55  C   UNL     1     153.584 120.285 129.570  0.00  0.00    +0.000 C 
BRANCH  52  56
ATOM     56  O   UNL     1     149.553 118.898 131.281  0.00  0.00    +0.000 OA
ATOM     57  H   UNL     1     149.991 119.158 132.112  0.00  0.00    +0.000 HD
ENDBRANCH  52  56
BRANCH  54  58
ATOM     58  O   UNL     1     150.145 121.419 130.277  0.00  0.00    +0.000 OA
ATOM     59  H   UNL     1     150.551 122.191 129.831  0.00  0.00    +0.000 HD
ENDBRANCH  54  58
ENDBRANCH  48  50
ENDBRANCH  44  48
ENDBRANCH  38  40
ENDBRANCH   6  38
TORSDOF 12
ENDMDL
