MODEL 1
REMARK VINA RESULT:      -8.2      0.000      0.000
REMARK  Name = CHEMBL35349.pdbqt.pdb
REMARK  2 active torsions:
REMARK  status: ('A' for Active; 'I' for Inactive)
REMARK    1  A    between atoms: C_2  and  C_11
REMARK    2  A    between atoms: C_5  and  O_21
REMARK                            x       y       z     vdW  Elec       q    Type
REMARK                         _______ _______ _______ _____ _____    ______ ____
ROOT
ATOM      1  N   UNL     1     140.240 123.849 135.501  0.00  0.00    +0.000 N 
ATOM      2  C   UNL     1     138.350 123.319 134.436  0.00  0.00    +0.000 A 
ATOM      3  C   UNL     1     138.830 124.586 133.952  0.00  0.00    +0.000 A 
ATOM      4  C   UNL     1     140.006 124.885 134.635  0.00  0.00    +0.000 A 
ATOM      5  C   UNL     1     139.258 122.900 135.397  0.00  0.00    +0.000 A 
ATOM      6  C   UNL     1     138.367 125.507 132.991  0.00  0.00    +0.000 A 
ATOM      7  C   UNL     1     140.746 126.052 134.414  0.00  0.00    +0.000 A 
ATOM      8  C   UNL     1     139.090 126.678 132.753  0.00  0.00    +0.000 A 
ATOM      9  C   UNL     1     140.260 126.941 133.456  0.00  0.00    +0.000 A 
ATOM     10  H   UNL     1     141.024 123.781 136.134  0.00  0.00    +0.000 HD
ENDROOT
BRANCH   2  11
ATOM     11  C   UNL     1     137.159 122.622 134.007  0.00  0.00    +0.000 C 
ATOM     12  N   UNL     1     136.263 122.179 134.850  0.00  0.00    +0.000 NA
ATOM     13  C   UNL     1     135.258 121.563 134.077  0.00  0.00    +0.000 A 
ATOM     14  C   UNL     1     135.497 121.601 132.706  0.00  0.00    +0.000 A 
ATOM     15  C   UNL     1     134.111 120.954 134.551  0.00  0.00    +0.000 A 
ATOM     16  C   UNL     1     136.759 122.298 132.570  0.00  0.00    +0.000 C 
ATOM     17  C   UNL     1     134.654 121.063 131.758  0.00  0.00    +0.000 A 
ATOM     18  O   UNL     1     137.379 122.575 131.570  0.00  0.00    +0.000 OA
ATOM     19  C   UNL     1     133.500 120.449 132.240  0.00  0.00    +0.000 A 
ATOM     20  C   UNL     1     133.231 120.394 133.619  0.00  0.00    +0.000 A 
ENDBRANCH   2  11
BRANCH   5  21
ATOM     21  O   UNL     1     139.354 121.831 136.180  0.00  0.00    +0.000 OA
ATOM     22  H   UNL     1     140.235 121.407 136.069  0.00  0.00    +0.000 HD
ENDBRANCH   5  21
TORSDOF 2
ENDMDL
MODEL 2
REMARK VINA RESULT:      -7.6      1.831      6.123
REMARK  Name = CHEMBL35349.pdbqt.pdb
REMARK  2 active torsions:
REMARK  status: ('A' for Active; 'I' for Inactive)
REMARK    1  A    between atoms: C_2  and  C_11
REMARK    2  A    between atoms: C_5  and  O_21
REMARK                            x       y       z     vdW  Elec       q    Type
REMARK                         _______ _______ _______ _____ _____    ______ ____
ROOT
ATOM      1  N   UNL     1     135.264 119.683 134.768  0.00  0.00    +0.000 N 
ATOM      2  C   UNL     1     136.253 121.683 134.680  0.00  0.00    +0.000 A 
ATOM      3  C   UNL     1     134.904 121.841 135.153  0.00  0.00    +0.000 A 
ATOM      4  C   UNL     1     134.317 120.578 135.196  0.00  0.00    +0.000 A 
ATOM      5  C   UNL     1     136.431 120.326 134.454  0.00  0.00    +0.000 A 
ATOM      6  C   UNL     1     134.126 122.948 135.549  0.00  0.00    +0.000 A 
ATOM      7  C   UNL     1     133.000 120.357 135.611  0.00  0.00    +0.000 A 
ATOM      8  C   UNL     1     132.809 122.751 135.969  0.00  0.00    +0.000 A 
ATOM      9  C   UNL     1     132.260 121.475 135.998  0.00  0.00    +0.000 A 
ATOM     10  H   UNL     1     135.133 118.685 134.690  0.00  0.00    +0.000 HD
ENDROOT
BRANCH   2  11
ATOM     11  C   UNL     1     137.228 122.731 134.479  0.00  0.00    +0.000 C 
ATOM     12  N   UNL     1     138.314 122.826 135.203  0.00  0.00    +0.000 NA
ATOM     13  C   UNL     1     139.013 123.953 134.726  0.00  0.00    +0.000 A 
ATOM     14  C   UNL     1     138.379 124.609 133.674  0.00  0.00    +0.000 A 
ATOM     15  C   UNL     1     140.220 124.435 135.198  0.00  0.00    +0.000 A 
ATOM     16  C   UNL     1     137.167 123.849 133.443  0.00  0.00    +0.000 C 
ATOM     17  C   UNL     1     138.874 125.732 133.049  0.00  0.00    +0.000 A 
ATOM     18  O   UNL     1     136.290 124.031 132.630  0.00  0.00    +0.000 OA
ATOM     19  C   UNL     1     140.091 126.214 133.528  0.00  0.00    +0.000 A 
ATOM     20  C   UNL     1     140.756 125.575 134.589  0.00  0.00    +0.000 A 
ENDBRANCH   2  11
BRANCH   5  21
ATOM     21  O   UNL     1     137.444 119.583 134.023  0.00  0.00    +0.000 OA
ATOM     22  H   UNL     1     137.998 119.292 134.782  0.00  0.00    +0.000 HD
ENDBRANCH   5  21
TORSDOF 2
ENDMDL
MODEL 3
REMARK VINA RESULT:      -7.5     32.453     33.671
REMARK  Name = CHEMBL35349.pdbqt.pdb
REMARK  2 active torsions:
REMARK  status: ('A' for Active; 'I' for Inactive)
REMARK    1  A    between atoms: C_2  and  C_11
REMARK    2  A    between atoms: C_5  and  O_21
REMARK                            x       y       z     vdW  Elec       q    Type
REMARK                         _______ _______ _______ _____ _____    ______ ____
ROOT
ATOM      1  N   UNL     1     143.901 126.898 103.801  0.00  0.00    +0.000 N 
ATOM      2  C   UNL     1     143.823 125.742 101.892  0.00  0.00    +0.000 A 
ATOM      3  C   UNL     1     145.195 125.909 102.291  0.00  0.00    +0.000 A 
ATOM      4  C   UNL     1     145.207 126.632 103.482  0.00  0.00    +0.000 A 
ATOM      5  C   UNL     1     143.055 126.373 102.860  0.00  0.00    +0.000 A 
ATOM      6  C   UNL     1     146.430 125.509 101.744  0.00  0.00    +0.000 A 
ATOM      7  C   UNL     1     146.382 126.978 104.157  0.00  0.00    +0.000 A 
ATOM      8  C   UNL     1     147.616 125.842 102.402  0.00  0.00    +0.000 A 
ATOM      9  C   UNL     1     147.587 126.565 103.589  0.00  0.00    +0.000 A 
ATOM     10  H   UNL     1     143.589 127.409 104.614  0.00  0.00    +0.000 HD
ENDROOT
BRANCH   2  11
ATOM     11  C   UNL     1     143.340 125.054 100.716  0.00  0.00    +0.000 C 
ATOM     12  N   UNL     1     142.430 125.566  99.928  0.00  0.00    +0.000 NA
ATOM     13  C   UNL     1     142.216 124.624  98.902  0.00  0.00    +0.000 A 
ATOM     14  C   UNL     1     142.995 123.476  99.017  0.00  0.00    +0.000 A 
ATOM     15  C   UNL     1     141.335 124.744  97.843  0.00  0.00    +0.000 A 
ATOM     16  C   UNL     1     143.784 123.684 100.214  0.00  0.00    +0.000 C 
ATOM     17  C   UNL     1     142.956 122.420  98.132  0.00  0.00    +0.000 A 
ATOM     18  O   UNL     1     144.609 122.961 100.724  0.00  0.00    +0.000 OA
ATOM     19  C   UNL     1     142.067 122.546  97.066  0.00  0.00    +0.000 A 
ATOM     20  C   UNL     1     141.266 123.693  96.923  0.00  0.00    +0.000 A 
ENDBRANCH   2  11
BRANCH   5  21
ATOM     21  O   UNL     1     141.752 126.553 103.039  0.00  0.00    +0.000 OA
ATOM     22  H   UNL     1     141.259 126.289 102.229  0.00  0.00    +0.000 HD
ENDBRANCH   5  21
TORSDOF 2
ENDMDL
MODEL 4
REMARK VINA RESULT:      -7.0      2.164      3.629
REMARK  Name = CHEMBL35349.pdbqt.pdb
REMARK  2 active torsions:
REMARK  status: ('A' for Active; 'I' for Inactive)
REMARK    1  A    between atoms: C_2  and  C_11
REMARK    2  A    between atoms: C_5  and  O_21
REMARK                            x       y       z     vdW  Elec       q    Type
REMARK                         _______ _______ _______ _____ _____    ______ ____
ROOT
ATOM      1  N   UNL     1     138.181 123.066 131.825  0.00  0.00    +0.000 N 
ATOM      2  C   UNL     1     137.120 122.773 133.767  0.00  0.00    +0.000 A 
ATOM      3  C   UNL     1     138.396 123.390 134.011  0.00  0.00    +0.000 A 
ATOM      4  C   UNL     1     139.030 123.557 132.782  0.00  0.00    +0.000 A 
ATOM      5  C   UNL     1     137.031 122.590 132.395  0.00  0.00    +0.000 A 
ATOM      6  C   UNL     1     139.070 123.822 135.171  0.00  0.00    +0.000 A 
ATOM      7  C   UNL     1     140.299 124.131 132.645  0.00  0.00    +0.000 A 
ATOM      8  C   UNL     1     140.337 124.398 135.058  0.00  0.00    +0.000 A 
ATOM      9  C   UNL     1     140.937 124.548 133.813  0.00  0.00    +0.000 A 
ATOM     10  H   UNL     1     138.366 123.049 130.832  0.00  0.00    +0.000 HD
ENDROOT
BRANCH   2  11
ATOM     11  C   UNL     1     136.128 122.414 134.755  0.00  0.00    +0.000 C 
ATOM     12  N   UNL     1     134.869 122.751 134.640  0.00  0.00    +0.000 NA
ATOM     13  C   UNL     1     134.212 122.235 135.775  0.00  0.00    +0.000 A 
ATOM     14  C   UNL     1     135.051 121.549 136.650  0.00  0.00    +0.000 A 
ATOM     15  C   UNL     1     132.868 122.351 136.073  0.00  0.00    +0.000 A 
ATOM     16  C   UNL     1     136.362 121.622 136.038  0.00  0.00    +0.000 C 
ATOM     17  C   UNL     1     134.632 120.961 137.823  0.00  0.00    +0.000 A 
ATOM     18  O   UNL     1     137.415 121.173 136.425  0.00  0.00    +0.000 OA
ATOM     19  C   UNL     1     133.276 121.080 138.119  0.00  0.00    +0.000 A 
ATOM     20  C   UNL     1     132.404 121.767 137.257  0.00  0.00    +0.000 A 
ENDBRANCH   2  11
BRANCH   5  21
ATOM     21  O   UNL     1     136.110 122.080 131.584  0.00  0.00    +0.000 OA
ATOM     22  H   UNL     1     135.562 122.801 131.198  0.00  0.00    +0.000 HD
ENDBRANCH   5  21
TORSDOF 2
ENDMDL
MODEL 5
REMARK VINA RESULT:      -6.9     33.724     35.380
REMARK  Name = CHEMBL35349.pdbqt.pdb
REMARK  2 active torsions:
REMARK  status: ('A' for Active; 'I' for Inactive)
REMARK    1  A    between atoms: C_2  and  C_11
REMARK    2  A    between atoms: C_5  and  O_21
REMARK                            x       y       z     vdW  Elec       q    Type
REMARK                         _______ _______ _______ _____ _____    ______ ____
ROOT
ATOM      1  N   UNL     1     140.712 123.547  98.637  0.00  0.00    +0.000 N 
ATOM      2  C   UNL     1     142.693 124.374  99.251  0.00  0.00    +0.000 A 
ATOM      3  C   UNL     1     142.871 123.508  98.117  0.00  0.00    +0.000 A 
ATOM      4  C   UNL     1     141.619 123.010  97.761  0.00  0.00    +0.000 A 
ATOM      5  C   UNL     1     141.336 124.368  99.539  0.00  0.00    +0.000 A 
ATOM      6  C   UNL     1     143.987 123.100  97.360  0.00  0.00    +0.000 A 
ATOM      7  C   UNL     1     141.419 122.129  96.693  0.00  0.00    +0.000 A 
ATOM      8  C   UNL     1     143.811 122.223  96.288  0.00  0.00    +0.000 A 
ATOM      9  C   UNL     1     142.545 121.748  95.964  0.00  0.00    +0.000 A 
ATOM     10  H   UNL     1     139.718 123.371  98.631  0.00  0.00    +0.000 HD
ENDROOT
BRANCH   2  11
ATOM     11  C   UNL     1     143.724 125.106  99.952  0.00  0.00    +0.000 C 
ATOM     12  N   UNL     1     144.164 126.267  99.539  0.00  0.00    +0.000 NA
ATOM     13  C   UNL     1     145.151 126.670 100.461  0.00  0.00    +0.000 A 
ATOM     14  C   UNL     1     145.363 125.761 101.495  0.00  0.00    +0.000 A 
ATOM     15  C   UNL     1     145.888 127.838 100.422  0.00  0.00    +0.000 A 
ATOM     16  C   UNL     1     144.441 124.677 101.229  0.00  0.00    +0.000 C 
ATOM     17  C   UNL     1     146.277 125.942 102.511  0.00  0.00    +0.000 A 
ATOM     18  O   UNL     1     144.256 123.656 101.850  0.00  0.00    +0.000 OA
ATOM     19  C   UNL     1     147.018 127.121 102.466  0.00  0.00    +0.000 A 
ATOM     20  C   UNL     1     146.827 128.058 101.435  0.00  0.00    +0.000 A 
ENDBRANCH   2  11
BRANCH   5  21
ATOM     21  O   UNL     1     140.579 124.962 100.454  0.00  0.00    +0.000 OA
ATOM     22  H   UNL     1     140.700 124.528 101.329  0.00  0.00    +0.000 HD
ENDBRANCH   5  21
TORSDOF 2
ENDMDL
MODEL 6
REMARK VINA RESULT:      -6.7     34.033     35.242
REMARK  Name = CHEMBL35349.pdbqt.pdb
REMARK  2 active torsions:
REMARK  status: ('A' for Active; 'I' for Inactive)
REMARK    1  A    between atoms: C_2  and  C_11
REMARK    2  A    between atoms: C_5  and  O_21
REMARK                            x       y       z     vdW  Elec       q    Type
REMARK                         _______ _______ _______ _____ _____    ______ ____
ROOT
ATOM      1  N   UNL     1     144.620 125.658 102.225  0.00  0.00    +0.000 N 
ATOM      2  C   UNL     1     143.909 124.790 100.294  0.00  0.00    +0.000 A 
ATOM      3  C   UNL     1     142.822 125.482 100.933  0.00  0.00    +0.000 A 
ATOM      4  C   UNL     1     143.299 126.009 102.132  0.00  0.00    +0.000 A 
ATOM      5  C   UNL     1     145.006 124.926 101.133  0.00  0.00    +0.000 A 
ATOM      6  C   UNL     1     141.471 125.707 100.600  0.00  0.00    +0.000 A 
ATOM      7  C   UNL     1     142.504 126.748 103.015  0.00  0.00    +0.000 A 
ATOM      8  C   UNL     1     140.660 126.442 101.466  0.00  0.00    +0.000 A 
ATOM      9  C   UNL     1     141.172 126.952 102.653  0.00  0.00    +0.000 A 
ATOM     10  H   UNL     1     145.237 125.898 102.987  0.00  0.00    +0.000 HD
ENDROOT
BRANCH   2  11
ATOM     11  C   UNL     1     143.867 124.092  99.030  0.00  0.00    +0.000 C 
ATOM     12  N   UNL     1     142.912 123.253  98.722  0.00  0.00    +0.000 NA
ATOM     13  C   UNL     1     143.202 122.775  97.428  0.00  0.00    +0.000 A 
ATOM     14  C   UNL     1     144.365 123.306  96.877  0.00  0.00    +0.000 A 
ATOM     15  C   UNL     1     142.459 121.865  96.700  0.00  0.00    +0.000 A 
ATOM     16  C   UNL     1     144.878 124.205  97.891  0.00  0.00    +0.000 C 
ATOM     17  C   UNL     1     144.847 122.986  95.626  0.00  0.00    +0.000 A 
ATOM     18  O   UNL     1     145.869 124.897  97.874  0.00  0.00    +0.000 OA
ATOM     19  C   UNL     1     144.095 122.068  94.897  0.00  0.00    +0.000 A 
ATOM     20  C   UNL     1     142.916 121.513  95.425  0.00  0.00    +0.000 A 
ENDBRANCH   2  11
BRANCH   5  21
ATOM     21  O   UNL     1     146.267 124.515 101.085  0.00  0.00    +0.000 OA
ATOM     22  H   UNL     1     146.866 125.276 100.907  0.00  0.00    +0.000 HD
ENDBRANCH   5  21
TORSDOF 2
ENDMDL
MODEL 7
REMARK VINA RESULT:      -6.6     32.947     34.171
REMARK  Name = CHEMBL35349.pdbqt.pdb
REMARK  2 active torsions:
REMARK  status: ('A' for Active; 'I' for Inactive)
REMARK    1  A    between atoms: C_2  and  C_11
REMARK    2  A    between atoms: C_5  and  O_21
REMARK                            x       y       z     vdW  Elec       q    Type
REMARK                         _______ _______ _______ _____ _____    ______ ____
ROOT
ATOM      1  N   UNL     1     146.930 126.732 101.905  0.00  0.00    +0.000 N 
ATOM      2  C   UNL     1     145.238 125.627 100.955  0.00  0.00    +0.000 A 
ATOM      3  C   UNL     1     144.973 125.785 102.360  0.00  0.00    +0.000 A 
ATOM      4  C   UNL     1     146.045 126.476 102.920  0.00  0.00    +0.000 A 
ATOM      5  C   UNL     1     146.464 126.231 100.718  0.00  0.00    +0.000 A 
ATOM      6  C   UNL     1     143.915 125.401 103.207  0.00  0.00    +0.000 A 
ATOM      7  C   UNL     1     146.121 126.805 104.278  0.00  0.00    +0.000 A 
ATOM      8  C   UNL     1     143.968 125.719 104.566  0.00  0.00    +0.000 A 
ATOM      9  C   UNL     1     145.056 126.410 105.088  0.00  0.00    +0.000 A 
ATOM     10  H   UNL     1     147.807 127.221 102.003  0.00  0.00    +0.000 HD
ENDROOT
BRANCH   2  11
ATOM     11  C   UNL     1     144.394 124.970  99.983  0.00  0.00    +0.000 C 
ATOM     12  N   UNL     1     143.390 125.575  99.402  0.00  0.00    +0.000 NA
ATOM     13  C   UNL     1     142.808 124.634  98.529  0.00  0.00    +0.000 A 
ATOM     14  C   UNL     1     143.438 123.392  98.535  0.00  0.00    +0.000 A 
ATOM     15  C   UNL     1     141.715 124.837  97.707  0.00  0.00    +0.000 A 
ATOM     16  C   UNL     1     144.519 123.532  99.489  0.00  0.00    +0.000 C 
ATOM     17  C   UNL     1     143.045 122.320  97.764  0.00  0.00    +0.000 A 
ATOM     18  O   UNL     1     145.345 122.720  99.837  0.00  0.00    +0.000 OA
ATOM     19  C   UNL     1     141.943 122.529  96.938  0.00  0.00    +0.000 A 
ATOM     20  C   UNL     1     141.285 123.771  96.909  0.00  0.00    +0.000 A 
ENDBRANCH   2  11
BRANCH   5  21
ATOM     21  O   UNL     1     147.220 126.405  99.640  0.00  0.00    +0.000 OA
ATOM     22  H   UNL     1     146.960 127.232  99.174  0.00  0.00    +0.000 HD
ENDBRANCH   5  21
TORSDOF 2
ENDMDL
MODEL 8
REMARK VINA RESULT:      -6.5     33.609     35.249
REMARK  Name = CHEMBL35349.pdbqt.pdb
REMARK  2 active torsions:
REMARK  status: ('A' for Active; 'I' for Inactive)
REMARK    1  A    between atoms: C_2  and  C_11
REMARK    2  A    between atoms: C_5  and  O_21
REMARK                            x       y       z     vdW  Elec       q    Type
REMARK                         _______ _______ _______ _____ _____    ______ ____
ROOT
ATOM      1  N   UNL     1     144.170 123.241  96.961  0.00  0.00    +0.000 N 
ATOM      2  C   UNL     1     144.348 124.468  98.818  0.00  0.00    +0.000 A 
ATOM      3  C   UNL     1     142.968 124.127  98.606  0.00  0.00    +0.000 A 
ATOM      4  C   UNL     1     142.892 123.364  97.442  0.00  0.00    +0.000 A 
ATOM      5  C   UNL     1     145.058 123.897  97.772  0.00  0.00    +0.000 A 
ATOM      6  C   UNL     1     141.772 124.400  99.299  0.00  0.00    +0.000 A 
ATOM      7  C   UNL     1     141.691 122.859  96.932  0.00  0.00    +0.000 A 
ATOM      8  C   UNL     1     140.561 123.905  98.810  0.00  0.00    +0.000 A 
ATOM      9  C   UNL     1     140.527 123.148  97.645  0.00  0.00    +0.000 A 
ATOM     10  H   UNL     1     144.435 122.741  96.126  0.00  0.00    +0.000 HD
ENDROOT
BRANCH   2  11
ATOM     11  C   UNL     1     144.890 125.251  99.906  0.00  0.00    +0.000 C 
ATOM     12  N   UNL     1     145.565 126.354  99.710  0.00  0.00    +0.000 NA
ATOM     13  C   UNL     1     145.927 126.833 100.985  0.00  0.00    +0.000 A 
ATOM     14  C   UNL     1     145.484 126.033 102.036  0.00  0.00    +0.000 A 
ATOM     15  C   UNL     1     146.651 127.977 101.260  0.00  0.00    +0.000 A 
ATOM     16  C   UNL     1     144.775 124.944 101.397  0.00  0.00    +0.000 C 
ATOM     17  C   UNL     1     145.719 126.302 103.366  0.00  0.00    +0.000 A 
ATOM     18  O   UNL     1     144.213 123.997 101.896  0.00  0.00    +0.000 OA
ATOM     19  C   UNL     1     146.450 127.457 103.639  0.00  0.00    +0.000 A 
ATOM     20  C   UNL     1     146.911 128.285 102.600  0.00  0.00    +0.000 A 
ENDBRANCH   2  11
BRANCH   5  21
ATOM     21  O   UNL     1     146.341 123.863  97.430  0.00  0.00    +0.000 OA
ATOM     22  H   UNL     1     146.461 123.321  96.617  0.00  0.00    +0.000 HD
ENDBRANCH   5  21
TORSDOF 2
ENDMDL
MODEL 9
REMARK VINA RESULT:      -6.4     34.265     35.862
REMARK  Name = CHEMBL35349.pdbqt.pdb
REMARK  2 active torsions:
REMARK  status: ('A' for Active; 'I' for Inactive)
REMARK    1  A    between atoms: C_2  and  C_11
REMARK    2  A    between atoms: C_5  and  O_21
REMARK                            x       y       z     vdW  Elec       q    Type
REMARK                         _______ _______ _______ _____ _____    ______ ____
ROOT
ATOM      1  N   UNL     1     146.004 124.083  96.263  0.00  0.00    +0.000 N 
ATOM      2  C   UNL     1     145.906 124.727  98.399  0.00  0.00    +0.000 A 
ATOM      3  C   UNL     1     144.799 123.854  98.115  0.00  0.00    +0.000 A 
ATOM      4  C   UNL     1     144.889 123.473  96.778  0.00  0.00    +0.000 A 
ATOM      5  C   UNL     1     146.627 124.840  97.219  0.00  0.00    +0.000 A 
ATOM      6  C   UNL     1     143.724 123.354  98.877  0.00  0.00    +0.000 A 
ATOM      7  C   UNL     1     143.969 122.620  96.159  0.00  0.00    +0.000 A 
ATOM      8  C   UNL     1     142.793 122.501  98.281  0.00  0.00    +0.000 A 
ATOM      9  C   UNL     1     142.918 122.143  96.943  0.00  0.00    +0.000 A 
ATOM     10  H   UNL     1     146.332 123.996  95.312  0.00  0.00    +0.000 HD
ENDROOT
BRANCH   2  11
ATOM     11  C   UNL     1     146.208 125.360  99.663  0.00  0.00    +0.000 C 
ATOM     12  N   UNL     1     146.996 124.812 100.552  0.00  0.00    +0.000 NA
ATOM     13  C   UNL     1     147.054 125.707 101.639  0.00  0.00    +0.000 A 
ATOM     14  C   UNL     1     146.294 126.860 101.463  0.00  0.00    +0.000 A 
ATOM     15  C   UNL     1     147.771 125.538 102.809  0.00  0.00    +0.000 A 
ATOM     16  C   UNL     1     145.690 126.708 100.155  0.00  0.00    +0.000 C 
ATOM     17  C   UNL     1     146.198 127.875 102.390  0.00  0.00    +0.000 A 
ATOM     18  O   UNL     1     144.945 127.454  99.562  0.00  0.00    +0.000 OA
ATOM     19  C   UNL     1     146.922 127.699 103.568  0.00  0.00    +0.000 A 
ATOM     20  C   UNL     1     147.699 126.546 103.776  0.00  0.00    +0.000 A 
ENDBRANCH   2  11
BRANCH   5  21
ATOM     21  O   UNL     1     147.727 125.492  96.862  0.00  0.00    +0.000 OA
ATOM     22  H   UNL     1     147.735 126.389  97.268  0.00  0.00    +0.000 HD
ENDBRANCH   5  21
TORSDOF 2
ENDMDL
