MODEL 1
REMARK VINA RESULT:      -8.0      0.000      0.000
REMARK  Name = Chlortetracycline.pdbqt.pdb
REMARK  7 active torsions:
REMARK  status: ('A' for Active; 'I' for Inactive)
REMARK    1  A    between atoms: C_7  and  O_30
REMARK    2  A    between atoms: C_8  and  N_32
REMARK    3  A    between atoms: C_9  and  O_37
REMARK    4  A    between atoms: C_12  and  O_28
REMARK    5  A    between atoms: C_15  and  O_35
REMARK    6  A    between atoms: C_16  and  C_23
REMARK    7  A    between atoms: C_20  and  O_39
REMARK                            x       y       z     vdW  Elec       q    Type
REMARK                         _______ _______ _______ _____ _____    ______ ____
ROOT
ATOM      1 CL   UNL     1     147.098 125.646  93.577  0.00  0.00    +0.000 Cl
ATOM      2  O   UNL     1     143.228 129.453  99.220  0.00  0.00    +0.000 OA
ATOM      3  O   UNL     1     144.042 123.635 101.083  0.00  0.00    +0.000 OA
ATOM      4  C   UNL     1     142.479 125.810  98.919  0.00  0.00    +0.000 C 
ATOM      5  C   UNL     1     144.303 126.610  97.188  0.00  0.00    +0.000 C 
ATOM      6  C   UNL     1     143.348 125.780  97.809  0.00  0.00    +0.000 C 
ATOM      7  C   UNL     1     142.500 127.134  99.643  0.00  0.00    +0.000 C 
ATOM      8  C   UNL     1     142.346 124.628  99.753  0.00  0.00    +0.000 C 
ATOM      9  C   UNL     1     145.006 126.374  95.880  0.00  0.00    +0.000 C 
ATOM     10  C   UNL     1     144.402 127.894  97.847  0.00  0.00    +0.000 C 
ATOM     11  C   UNL     1     143.374 128.261  98.913  0.00  0.00    +0.000 C 
ATOM     12  C   UNL     1     143.012 127.025 101.083  0.00  0.00    +0.000 C 
ATOM     13  C   UNL     1     146.236 127.247  95.683  0.00  0.00    +0.000 A 
ATOM     14  C   UNL     1     143.307 124.592 100.890  0.00  0.00    +0.000 C 
ATOM     15  C   UNL     1     145.366 128.768  97.502  0.00  0.00    +0.000 C 
ATOM     16  C   UNL     1     143.409 125.869 101.665  0.00  0.00    +0.000 C 
ATOM     17  C   UNL     1     146.419 128.401  96.505  0.00  0.00    +0.000 A 
ATOM     18  C   UNL     1     143.985 126.567  94.740  0.00  0.00    +0.000 C 
ATOM     19  C   UNL     1     147.211 126.957  94.699  0.00  0.00    +0.000 A 
ATOM     20  C   UNL     1     147.602 129.156  96.345  0.00  0.00    +0.000 A 
ATOM     21  C   UNL     1     148.347 127.748  94.549  0.00  0.00    +0.000 A 
ATOM     22  C   UNL     1     148.552 128.834  95.378  0.00  0.00    +0.000 A 
ENDROOT
BRANCH  16  23
ATOM     23  C   UNL     1     143.853 125.791 103.085  0.00  0.00    +0.000 C 
ATOM     24  O   UNL     1     143.078 125.956 104.018  0.00  0.00    +0.000 OA
ATOM     25  N   UNL     1     145.172 125.544 103.308  0.00  0.00    +0.000 N 
ATOM     26  H   UNL     1     145.849 125.688 102.567  0.00  0.00    +0.000 HD
ATOM     27  H   UNL     1     145.494 125.609 104.264  0.00  0.00    +0.000 HD
ENDBRANCH  16  23
BRANCH   8  28
ATOM     28  N   UNL     1     141.097 123.923  99.866  0.00  0.00    +0.000 NA
ATOM     29  C   UNL     1     140.086 124.628 100.640  0.00  0.00    +0.000 C 
ATOM     30  C   UNL     1     140.512 123.558  98.592  0.00  0.00    +0.000 C 
ENDBRANCH   8  28
BRANCH  12  31
ATOM     31  O   UNL     1     142.975 128.213 101.818  0.00  0.00    +0.000 OA
ATOM     32  H   UNL     1     143.803 128.275 102.347  0.00  0.00    +0.000 HD
ENDBRANCH  12  31
BRANCH   7  33
ATOM     33  O   UNL     1     141.152 127.591  99.773  0.00  0.00    +0.000 OA
ATOM     34  H   UNL     1     140.559 126.834  99.611  0.00  0.00    +0.000 HD
ENDBRANCH   7  33
BRANCH  15  35
ATOM     35  O   UNL     1     145.440 130.045  98.015  0.00  0.00    +0.000 OA
ATOM     36  H   UNL     1     144.579 130.503  97.917  0.00  0.00    +0.000 HD
ENDBRANCH  15  35
BRANCH   9  37
ATOM     37  O   UNL     1     145.363 125.005  95.871  0.00  0.00    +0.000 OA
ATOM     38  H   UNL     1     144.691 124.639  95.267  0.00  0.00    +0.000 HD
ENDBRANCH   9  37
BRANCH  20  39
ATOM     39  O   UNL     1     147.893 130.212  97.164  0.00  0.00    +0.000 OA
ATOM     40  H   UNL     1     148.858 130.320  97.224  0.00  0.00    +0.000 HD
ENDBRANCH  20  39
TORSDOF 7
ENDMDL
MODEL 2
REMARK VINA RESULT:      -7.7      1.910      2.297
REMARK  Name = Chlortetracycline.pdbqt.pdb
REMARK  7 active torsions:
REMARK  status: ('A' for Active; 'I' for Inactive)
REMARK    1  A    between atoms: C_7  and  O_30
REMARK    2  A    between atoms: C_8  and  N_32
REMARK    3  A    between atoms: C_9  and  O_37
REMARK    4  A    between atoms: C_12  and  O_28
REMARK    5  A    between atoms: C_15  and  O_35
REMARK    6  A    between atoms: C_16  and  C_23
REMARK    7  A    between atoms: C_20  and  O_39
REMARK                            x       y       z     vdW  Elec       q    Type
REMARK                         _______ _______ _______ _____ _____    ______ ____
ROOT
ATOM      1 CL   UNL     1     148.354 125.400  92.095  0.00  0.00    +0.000 Cl
ATOM      2  O   UNL     1     145.017 129.092  98.140  0.00  0.00    +0.000 OA
ATOM      3  O   UNL     1     146.490 123.398  99.984  0.00  0.00    +0.000 OA
ATOM      4  C   UNL     1     144.498 125.399  98.012  0.00  0.00    +0.000 C 
ATOM      5  C   UNL     1     146.010 126.272  96.034  0.00  0.00    +0.000 C 
ATOM      6  C   UNL     1     145.209 125.397  96.795  0.00  0.00    +0.000 C 
ATOM      7  C   UNL     1     144.521 126.742  98.702  0.00  0.00    +0.000 C 
ATOM      8  C   UNL     1     144.563 124.235  98.879  0.00  0.00    +0.000 C 
ATOM      9  C   UNL     1     146.545 126.048  94.647  0.00  0.00    +0.000 C 
ATOM     10  C   UNL     1     146.104 127.579  96.649  0.00  0.00    +0.000 C 
ATOM     11  C   UNL     1     145.205 127.904  97.838  0.00  0.00    +0.000 C 
ATOM     12  C   UNL     1     145.229 126.708 100.060  0.00  0.00    +0.000 C 
ATOM     13  C   UNL     1     147.672 126.997  94.268  0.00  0.00    +0.000 A 
ATOM     14  C   UNL     1     145.669 124.297  99.875  0.00  0.00    +0.000 C 
ATOM     15  C   UNL     1     146.948 128.506  96.159  0.00  0.00    +0.000 C 
ATOM     16  C   UNL     1     145.783 125.600 100.604  0.00  0.00    +0.000 C 
ATOM     17  C   UNL     1     147.881 128.184  95.035  0.00  0.00    +0.000 A 
ATOM     18  C   UNL     1     145.369 126.138  93.654  0.00  0.00    +0.000 C 
ATOM     19  C   UNL     1     148.523 126.747  93.165  0.00  0.00    +0.000 A 
ATOM     20  C   UNL     1     148.974 129.013  94.701  0.00  0.00    +0.000 A 
ATOM     21  C   UNL     1     149.569 127.609  92.847  0.00  0.00    +0.000 A 
ATOM     22  C   UNL     1     149.805 128.730  93.620  0.00  0.00    +0.000 A 
ENDROOT
BRANCH  16  23
ATOM     23  C   UNL     1     146.419 125.593 101.952  0.00  0.00    +0.000 C 
ATOM     24  O   UNL     1     145.847 126.028 102.943  0.00  0.00    +0.000 OA
ATOM     25  N   UNL     1     147.682 125.094 102.037  0.00  0.00    +0.000 N 
ATOM     26  H   UNL     1     148.250 125.002 101.202  0.00  0.00    +0.000 HD
ATOM     27  H   UNL     1     148.155 125.199 102.924  0.00  0.00    +0.000 HD
ENDBRANCH  16  23
BRANCH   8  28
ATOM     28  N   UNL     1     143.395 123.449  99.175  0.00  0.00    +0.000 NA
ATOM     29  C   UNL     1     142.526 124.036 100.185  0.00  0.00    +0.000 C 
ATOM     30  C   UNL     1     142.587 123.140  98.013  0.00  0.00    +0.000 C 
ENDBRANCH   8  28
BRANCH  12  31
ATOM     31  O   UNL     1     145.206 127.912 100.771  0.00  0.00    +0.000 OA
ATOM     32  H   UNL     1     146.087 128.343 100.678  0.00  0.00    +0.000 HD
ENDBRANCH  12  31
BRANCH   7  33
ATOM     33  O   UNL     1     143.174 127.108  99.006  0.00  0.00    +0.000 OA
ATOM     34  H   UNL     1     142.759 127.440  98.188  0.00  0.00    +0.000 HD
ENDBRANCH   7  33
BRANCH  15  35
ATOM     35  O   UNL     1     146.999 129.800  96.633  0.00  0.00    +0.000 OA
ATOM     36  H   UNL     1     146.164 130.028  97.093  0.00  0.00    +0.000 HD
ENDBRANCH  15  35
BRANCH   9  37
ATOM     37  O   UNL     1     146.994 124.707  94.616  0.00  0.00    +0.000 OA
ATOM     38  H   UNL     1     147.826 124.798  94.115  0.00  0.00    +0.000 HD
ENDBRANCH   9  37
BRANCH  20  39
ATOM     39  O   UNL     1     149.296 130.110  95.453  0.00  0.00    +0.000 OA
ATOM     40  H   UNL     1     149.637 130.812  94.872  0.00  0.00    +0.000 HD
ENDBRANCH  20  39
TORSDOF 7
ENDMDL
MODEL 3
REMARK VINA RESULT:      -7.5      2.947      4.095
REMARK  Name = Chlortetracycline.pdbqt.pdb
REMARK  7 active torsions:
REMARK  status: ('A' for Active; 'I' for Inactive)
REMARK    1  A    between atoms: C_7  and  O_30
REMARK    2  A    between atoms: C_8  and  N_32
REMARK    3  A    between atoms: C_9  and  O_37
REMARK    4  A    between atoms: C_12  and  O_28
REMARK    5  A    between atoms: C_15  and  O_35
REMARK    6  A    between atoms: C_16  and  C_23
REMARK    7  A    between atoms: C_20  and  O_39
REMARK                            x       y       z     vdW  Elec       q    Type
REMARK                         _______ _______ _______ _____ _____    ______ ____
ROOT
ATOM      1 CL   UNL     1     142.741 120.939  95.023  0.00  0.00    +0.000 Cl
ATOM      2  O   UNL     1     145.800 127.777  97.298  0.00  0.00    +0.000 OA
ATOM      3  O   UNL     1     144.693 124.430 102.353  0.00  0.00    +0.000 OA
ATOM      4  C   UNL     1     143.411 126.198  99.691  0.00  0.00    +0.000 C 
ATOM      5  C   UNL     1     143.801 124.725  97.536  0.00  0.00    +0.000 C 
ATOM      6  C   UNL     1     143.219 125.176  98.737  0.00  0.00    +0.000 C 
ATOM      7  C   UNL     1     144.518 127.152  99.311  0.00  0.00    +0.000 C 
ATOM      8  C   UNL     1     143.295 125.885 101.104  0.00  0.00    +0.000 C 
ATOM      9  C   UNL     1     143.284 123.654  96.616  0.00  0.00    +0.000 C 
ATOM     10  C   UNL     1     144.894 125.578  97.120  0.00  0.00    +0.000 C 
ATOM     11  C   UNL     1     145.123 126.898  97.850  0.00  0.00    +0.000 C 
ATOM     12  C   UNL     1     145.690 127.137 100.297  0.00  0.00    +0.000 C 
ATOM     13  C   UNL     1     144.322 123.146  95.627  0.00  0.00    +0.000 A 
ATOM     14  C   UNL     1     144.582 125.476 101.731  0.00  0.00    +0.000 C 
ATOM     15  C   UNL     1     145.677 125.228  96.082  0.00  0.00    +0.000 C 
ATOM     16  C   UNL     1     145.748 126.356 101.401  0.00  0.00    +0.000 C 
ATOM     17  C   UNL     1     145.507 123.910  95.397  0.00  0.00    +0.000 A 
ATOM     18  C   UNL     1     142.033 124.198  95.895  0.00  0.00    +0.000 C 
ATOM     19  C   UNL     1     144.149 121.936  94.915  0.00  0.00    +0.000 A 
ATOM     20  C   UNL     1     146.484 123.382  94.523  0.00  0.00    +0.000 A 
ATOM     21  C   UNL     1     145.121 121.467  94.036  0.00  0.00    +0.000 A 
ATOM     22  C   UNL     1     146.292 122.178  93.850  0.00  0.00    +0.000 A 
ENDROOT
BRANCH  16  23
ATOM     23  C   UNL     1     146.882 126.405 102.367  0.00  0.00    +0.000 C 
ATOM     24  O   UNL     1     147.116 127.397 103.044  0.00  0.00    +0.000 OA
ATOM     25  N   UNL     1     147.667 125.298 102.454  0.00  0.00    +0.000 N 
ATOM     26  H   UNL     1     147.654 124.604 101.714  0.00  0.00    +0.000 HD
ATOM     27  H   UNL     1     148.503 125.374 103.018  0.00  0.00    +0.000 HD
ENDBRANCH  16  23
BRANCH   8  28
ATOM     28  N   UNL     1     142.272 126.477 101.925  0.00  0.00    +0.000 NA
ATOM     29  C   UNL     1     142.692 127.689 102.614  0.00  0.00    +0.000 C 
ATOM     30  C   UNL     1     141.045 126.769 101.213  0.00  0.00    +0.000 C 
ENDBRANCH   8  28
BRANCH  12  31
ATOM     31  O   UNL     1     146.703 128.062 100.028  0.00  0.00    +0.000 OA
ATOM     32  H   UNL     1     146.912 128.022  99.067  0.00  0.00    +0.000 HD
ENDBRANCH  12  31
BRANCH   7  33
ATOM     33  O   UNL     1     144.001 128.482  99.384  0.00  0.00    +0.000 OA
ATOM     34  H   UNL     1     143.756 128.762  98.483  0.00  0.00    +0.000 HD
ENDBRANCH   7  33
BRANCH  15  35
ATOM     35  O   UNL     1     146.659 126.051  95.573  0.00  0.00    +0.000 OA
ATOM     36  H   UNL     1     146.923 126.720  96.239  0.00  0.00    +0.000 HD
ENDBRANCH  15  35
BRANCH   9  37
ATOM     37  O   UNL     1     142.839 122.604  97.452  0.00  0.00    +0.000 OA
ATOM     38  H   UNL     1     141.908 122.524  97.177  0.00  0.00    +0.000 HD
ENDBRANCH   9  37
BRANCH  20  39
ATOM     39  O   UNL     1     147.686 124.007  94.333  0.00  0.00    +0.000 OA
ATOM     40  H   UNL     1     148.196 123.530  93.656  0.00  0.00    +0.000 HD
ENDBRANCH  20  39
TORSDOF 7
ENDMDL
MODEL 4
REMARK VINA RESULT:      -7.3      3.601      6.033
REMARK  Name = Chlortetracycline.pdbqt.pdb
REMARK  7 active torsions:
REMARK  status: ('A' for Active; 'I' for Inactive)
REMARK    1  A    between atoms: C_7  and  O_30
REMARK    2  A    between atoms: C_8  and  N_32
REMARK    3  A    between atoms: C_9  and  O_37
REMARK    4  A    between atoms: C_12  and  O_28
REMARK    5  A    between atoms: C_15  and  O_35
REMARK    6  A    between atoms: C_16  and  C_23
REMARK    7  A    between atoms: C_20  and  O_39
REMARK                            x       y       z     vdW  Elec       q    Type
REMARK                         _______ _______ _______ _____ _____    ______ ____
ROOT
ATOM      1 CL   UNL     1     148.339 125.567 103.152  0.00  0.00    +0.000 Cl
ATOM      2  O   UNL     1     142.746 127.848  98.170  0.00  0.00    +0.000 OA
ATOM      3  O   UNL     1     143.329 121.731  97.683  0.00  0.00    +0.000 OA
ATOM      4  C   UNL     1     144.703 124.842  97.140  0.00  0.00    +0.000 C 
ATOM      5  C   UNL     1     145.448 125.771  99.495  0.00  0.00    +0.000 C 
ATOM      6  C   UNL     1     145.479 125.017  98.305  0.00  0.00    +0.000 C 
ATOM      7  C   UNL     1     143.513 125.770  97.084  0.00  0.00    +0.000 C 
ATOM      8  C   UNL     1     144.494 123.503  96.617  0.00  0.00    +0.000 C 
ATOM      9  C   UNL     1     146.523 125.870 100.541  0.00  0.00    +0.000 C 
ATOM     10  C   UNL     1     144.313 126.669  99.528  0.00  0.00    +0.000 C 
ATOM     11  C   UNL     1     143.475 126.850  98.267  0.00  0.00    +0.000 C 
ATOM     12  C   UNL     1     142.172 125.030  97.102  0.00  0.00    +0.000 C 
ATOM     13  C   UNL     1     146.036 126.446 101.862  0.00  0.00    +0.000 A 
ATOM     14  C   UNL     1     143.279 122.835  97.161  0.00  0.00    +0.000 C 
ATOM     15  C   UNL     1     144.020 127.359 100.646  0.00  0.00    +0.000 C 
ATOM     16  C   UNL     1     142.045 123.683  97.161  0.00  0.00    +0.000 C 
ATOM     17  C   UNL     1     144.792 127.147 101.909  0.00  0.00    +0.000 A 
ATOM     18  C   UNL     1     147.690 126.695  99.960  0.00  0.00    +0.000 C 
ATOM     19  C   UNL     1     146.784 126.317 103.057  0.00  0.00    +0.000 A 
ATOM     20  C   UNL     1     144.334 127.613 103.161  0.00  0.00    +0.000 A 
ATOM     21  C   UNL     1     146.312 126.822 104.266  0.00  0.00    +0.000 A 
ATOM     22  C   UNL     1     145.085 127.455 104.323  0.00  0.00    +0.000 A 
ENDROOT
BRANCH  16  23
ATOM     23  C   UNL     1     140.724 122.994  97.124  0.00  0.00    +0.000 C 
ATOM     24  O   UNL     1     139.752 123.418  97.736  0.00  0.00    +0.000 OA
ATOM     25  N   UNL     1     140.643 121.852  96.389  0.00  0.00    +0.000 N 
ATOM     26  H   UNL     1     141.487 121.356  96.124  0.00  0.00    +0.000 HD
ATOM     27  H   UNL     1     139.784 121.323  96.461  0.00  0.00    +0.000 HD
ENDBRANCH  16  23
BRANCH   8  28
ATOM     28  N   UNL     1     144.989 123.114  95.324  0.00  0.00    +0.000 NA
ATOM     29  C   UNL     1     144.044 123.328  94.238  0.00  0.00    +0.000 C 
ATOM     30  C   UNL     1     146.240 123.747  94.960  0.00  0.00    +0.000 C 
ENDBRANCH   8  28
BRANCH  12  31
ATOM     31  O   UNL     1     141.043 125.844  96.973  0.00  0.00    +0.000 OA
ATOM     32  H   UNL     1     140.251 125.264  96.890  0.00  0.00    +0.000 HD
ENDBRANCH  12  31
BRANCH   7  33
ATOM     33  O   UNL     1     143.536 126.446  95.826  0.00  0.00    +0.000 OA
ATOM     34  H   UNL     1     142.636 126.423  95.453  0.00  0.00    +0.000 HD
ENDBRANCH   7  33
BRANCH  15  35
ATOM     35  O   UNL     1     143.023 128.309 100.701  0.00  0.00    +0.000 OA
ATOM     36  H   UNL     1     142.524 128.330  99.857  0.00  0.00    +0.000 HD
ENDBRANCH  15  35
BRANCH   9  37
ATOM     37  O   UNL     1     147.013 124.556 100.723  0.00  0.00    +0.000 OA
ATOM     38  H   UNL     1     146.595 124.314 101.570  0.00  0.00    +0.000 HD
ENDBRANCH   9  37
BRANCH  20  39
ATOM     39  O   UNL     1     143.106 128.202 103.299  0.00  0.00    +0.000 OA
ATOM     40  H   UNL     1     143.189 129.162 103.163  0.00  0.00    +0.000 HD
ENDBRANCH  20  39
TORSDOF 7
ENDMDL
MODEL 5
REMARK VINA RESULT:      -7.2      3.278      6.981
REMARK  Name = Chlortetracycline.pdbqt.pdb
REMARK  7 active torsions:
REMARK  status: ('A' for Active; 'I' for Inactive)
REMARK    1  A    between atoms: C_7  and  O_30
REMARK    2  A    between atoms: C_8  and  N_32
REMARK    3  A    between atoms: C_9  and  O_37
REMARK    4  A    between atoms: C_12  and  O_28
REMARK    5  A    between atoms: C_15  and  O_35
REMARK    6  A    between atoms: C_16  and  C_23
REMARK    7  A    between atoms: C_20  and  O_39
REMARK                            x       y       z     vdW  Elec       q    Type
REMARK                         _______ _______ _______ _____ _____    ______ ____
ROOT
ATOM      1 CL   UNL     1     148.273 126.763 104.833  0.00  0.00    +0.000 Cl
ATOM      2  O   UNL     1     141.348 126.850 101.182  0.00  0.00    +0.000 OA
ATOM      3  O   UNL     1     145.265 123.582  97.723  0.00  0.00    +0.000 OA
ATOM      4  C   UNL     1     144.344 126.659  98.965  0.00  0.00    +0.000 C 
ATOM      5  C   UNL     1     144.984 126.674 101.525  0.00  0.00    +0.000 C 
ATOM      6  C   UNL     1     145.140 126.747 100.126  0.00  0.00    +0.000 C 
ATOM      7  C   UNL     1     142.873 126.511  99.273  0.00  0.00    +0.000 C 
ATOM      8  C   UNL     1     144.835 125.914  97.819  0.00  0.00    +0.000 C 
ATOM      9  C   UNL     1     146.022 126.957 102.575  0.00  0.00    +0.000 C 
ATOM     10  C   UNL     1     143.597 126.502 101.899  0.00  0.00    +0.000 C 
ATOM     11  C   UNL     1     142.518 126.642 100.829  0.00  0.00    +0.000 C 
ATOM     12  C   UNL     1     142.287 125.182  98.784  0.00  0.00    +0.000 C 
ATOM     13  C   UNL     1     145.657 126.423 103.952  0.00  0.00    +0.000 A 
ATOM     14  C   UNL     1     144.441 124.478  97.830  0.00  0.00    +0.000 C 
ATOM     15  C   UNL     1     143.259 126.255 103.178  0.00  0.00    +0.000 C 
ATOM     16  C   UNL     1     142.998 124.226  98.141  0.00  0.00    +0.000 C 
ATOM     17  C   UNL     1     144.306 126.051 104.228  0.00  0.00    +0.000 A 
ATOM     18  C   UNL     1     146.277 128.477 102.606  0.00  0.00    +0.000 C 
ATOM     19  C   UNL     1     146.618 126.288 104.982  0.00  0.00    +0.000 A 
ATOM     20  C   UNL     1     144.008 125.497 105.493  0.00  0.00    +0.000 A 
ATOM     21  C   UNL     1     146.277 125.769 106.228  0.00  0.00    +0.000 A 
ATOM     22  C   UNL     1     144.981 125.360 106.480  0.00  0.00    +0.000 A 
ENDROOT
BRANCH  16  23
ATOM     23  C   UNL     1     142.383 122.967  97.633  0.00  0.00    +0.000 C 
ATOM     24  O   UNL     1     142.772 121.864  97.992  0.00  0.00    +0.000 OA
ATOM     25  N   UNL     1     141.373 123.092  96.731  0.00  0.00    +0.000 N 
ATOM     26  H   UNL     1     141.244 123.964  96.229  0.00  0.00    +0.000 HD
ATOM     27  H   UNL     1     141.038 122.242  96.299  0.00  0.00    +0.000 HD
ENDBRANCH  16  23
BRANCH   8  28
ATOM     28  N   UNL     1     145.104 126.559  96.561  0.00  0.00    +0.000 NA
ATOM     29  C   UNL     1     144.053 126.382  95.568  0.00  0.00    +0.000 C 
ATOM     30  C   UNL     1     145.378 127.976  96.675  0.00  0.00    +0.000 C 
ENDBRANCH   8  28
BRANCH  12  31
ATOM     31  O   UNL     1     140.911 125.034  98.978  0.00  0.00    +0.000 OA
ATOM     32  H   UNL     1     140.735 124.103  99.248  0.00  0.00    +0.000 HD
ENDBRANCH  12  31
BRANCH   7  33
ATOM     33  O   UNL     1     142.163 127.510  98.539  0.00  0.00    +0.000 OA
ATOM     34  H   UNL     1     141.834 127.105  97.716  0.00  0.00    +0.000 HD
ENDBRANCH   7  33
BRANCH  15  35
ATOM     35  O   UNL     1     141.951 126.193 103.611  0.00  0.00    +0.000 OA
ATOM     36  H   UNL     1     141.914 126.220 104.590  0.00  0.00    +0.000 HD
ENDBRANCH  15  35
BRANCH   9  37
ATOM     37  O   UNL     1     147.217 126.360 102.112  0.00  0.00    +0.000 OA
ATOM     38  H   UNL     1     146.867 125.623 101.579  0.00  0.00    +0.000 HD
ENDBRANCH   9  37
BRANCH  20  39
ATOM     39  O   UNL     1     142.759 125.025 105.791  0.00  0.00    +0.000 OA
ATOM     40  H   UNL     1     142.259 125.710 106.268  0.00  0.00    +0.000 HD
ENDBRANCH  20  39
TORSDOF 7
ENDMDL
MODEL 6
REMARK VINA RESULT:      -6.9      4.135      6.590
REMARK  Name = Chlortetracycline.pdbqt.pdb
REMARK  7 active torsions:
REMARK  status: ('A' for Active; 'I' for Inactive)
REMARK    1  A    between atoms: C_7  and  O_30
REMARK    2  A    between atoms: C_8  and  N_32
REMARK    3  A    between atoms: C_9  and  O_37
REMARK    4  A    between atoms: C_12  and  O_28
REMARK    5  A    between atoms: C_15  and  O_35
REMARK    6  A    between atoms: C_16  and  C_23
REMARK    7  A    between atoms: C_20  and  O_39
REMARK                            x       y       z     vdW  Elec       q    Type
REMARK                         _______ _______ _______ _____ _____    ______ ____
ROOT
ATOM      1 CL   UNL     1     141.582 129.563  90.582  0.00  0.00    +0.000 Cl
ATOM      2  O   UNL     1     143.454 125.852  97.218  0.00  0.00    +0.000 OA
ATOM      3  O   UNL     1     148.261 129.348  95.589  0.00  0.00    +0.000 OA
ATOM      4  C   UNL     1     146.300 126.597  94.922  0.00  0.00    +0.000 C 
ATOM      5  C   UNL     1     143.999 127.503  94.001  0.00  0.00    +0.000 C 
ATOM      6  C   UNL     1     145.358 127.131  94.019  0.00  0.00    +0.000 C 
ATOM      7  C   UNL     1     145.692 126.240  96.258  0.00  0.00    +0.000 C 
ATOM      8  C   UNL     1     147.645 127.144  94.958  0.00  0.00    +0.000 C 
ATOM      9  C   UNL     1     143.184 127.929  92.812  0.00  0.00    +0.000 C 
ATOM     10  C   UNL     1     143.352 127.217  95.264  0.00  0.00    +0.000 C 
ATOM     11  C   UNL     1     144.099 126.395  96.310  0.00  0.00    +0.000 C 
ATOM     12  C   UNL     1     146.266 127.060  97.418  0.00  0.00    +0.000 C 
ATOM     13  C   UNL     1     141.881 128.621  93.183  0.00  0.00    +0.000 A 
ATOM     14  C   UNL     1     147.805 128.265  95.926  0.00  0.00    +0.000 C 
ATOM     15  C   UNL     1     142.096 127.640  95.500  0.00  0.00    +0.000 C 
ATOM     16  C   UNL     1     147.220 128.012  97.281  0.00  0.00    +0.000 C 
ATOM     17  C   UNL     1     141.373 128.500  94.512  0.00  0.00    +0.000 A 
ATOM     18  C   UNL     1     142.936 126.691  91.926  0.00  0.00    +0.000 C 
ATOM     19  C   UNL     1     141.143 129.382  92.245  0.00  0.00    +0.000 A 
ATOM     20  C   UNL     1     140.196 129.206  94.846  0.00  0.00    +0.000 A 
ATOM     21  C   UNL     1     139.968 130.036  92.606  0.00  0.00    +0.000 A 
ATOM     22  C   UNL     1     139.503 129.962  93.904  0.00  0.00    +0.000 A 
ENDROOT
BRANCH  16  23
ATOM     23  C   UNL     1     147.792 128.754  98.439  0.00  0.00    +0.000 C 
ATOM     24  O   UNL     1     147.173 128.906  99.484  0.00  0.00    +0.000 OA
ATOM     25  N   UNL     1     149.038 129.279  98.283  0.00  0.00    +0.000 N 
ATOM     26  H   UNL     1     149.425 129.401  97.353  0.00  0.00    +0.000 HD
ATOM     27  H   UNL     1     149.375 129.881  99.021  0.00  0.00    +0.000 HD
ENDBRANCH  16  23
BRANCH   8  28
ATOM     28  N   UNL     1     148.792 126.349  94.610  0.00  0.00    +0.000 NA
ATOM     29  C   UNL     1     149.258 125.480  95.681  0.00  0.00    +0.000 C 
ATOM     30  C   UNL     1     148.604 125.537  93.425  0.00  0.00    +0.000 C 
ENDBRANCH   8  28
BRANCH  12  31
ATOM     31  O   UNL     1     145.790 126.711  98.685  0.00  0.00    +0.000 OA
ATOM     32  H   UNL     1     145.593 125.746  98.686  0.00  0.00    +0.000 HD
ENDBRANCH  12  31
BRANCH   7  33
ATOM     33  O   UNL     1     146.047 124.890  96.561  0.00  0.00    +0.000 OA
ATOM     34  H   UNL     1     146.002 124.774  97.528  0.00  0.00    +0.000 HD
ENDBRANCH   7  33
BRANCH  15  35
ATOM     35  O   UNL     1     141.392 127.303  96.636  0.00  0.00    +0.000 OA
ATOM     36  H   UNL     1     140.898 126.467  96.496  0.00  0.00    +0.000 HD
ENDBRANCH  15  35
BRANCH   9  37
ATOM     37  O   UNL     1     144.012 128.797  92.064  0.00  0.00    +0.000 OA
ATOM     38  H   UNL     1     143.425 129.567  91.950  0.00  0.00    +0.000 HD
ENDBRANCH   9  37
BRANCH  20  39
ATOM     39  O   UNL     1     139.708 129.219  96.125  0.00  0.00    +0.000 OA
ATOM     40  H   UNL     1     139.433 130.123  96.357  0.00  0.00    +0.000 HD
ENDBRANCH  20  39
TORSDOF 7
ENDMDL
MODEL 7
REMARK VINA RESULT:      -6.8     27.352     29.097
REMARK  Name = Chlortetracycline.pdbqt.pdb
REMARK  7 active torsions:
REMARK  status: ('A' for Active; 'I' for Inactive)
REMARK    1  A    between atoms: C_7  and  O_30
REMARK    2  A    between atoms: C_8  and  N_32
REMARK    3  A    between atoms: C_9  and  O_37
REMARK    4  A    between atoms: C_12  and  O_28
REMARK    5  A    between atoms: C_15  and  O_35
REMARK    6  A    between atoms: C_16  and  C_23
REMARK    7  A    between atoms: C_20  and  O_39
REMARK                            x       y       z     vdW  Elec       q    Type
REMARK                         _______ _______ _______ _____ _____    ______ ____
ROOT
ATOM      1 CL   UNL     1     157.042 129.179 121.635  0.00  0.00    +0.000 Cl
ATOM      2  O   UNL     1     153.646 130.896 128.478  0.00  0.00    +0.000 OA
ATOM      3  O   UNL     1     149.662 132.295 123.990  0.00  0.00    +0.000 OA
ATOM      4  C   UNL     1     152.625 133.022 125.587  0.00  0.00    +0.000 C 
ATOM      5  C   UNL     1     154.346 131.143 124.898  0.00  0.00    +0.000 C 
ATOM      6  C   UNL     1     153.553 132.305 124.803  0.00  0.00    +0.000 C 
ATOM      7  C   UNL     1     152.454 132.441 126.970  0.00  0.00    +0.000 C 
ATOM      8  C   UNL     1     151.425 133.551 124.964  0.00  0.00    +0.000 C 
ATOM      9  C   UNL     1     155.394 130.672 123.929  0.00  0.00    +0.000 C 
ATOM     10  C   UNL     1     154.212 130.511 126.193  0.00  0.00    +0.000 C 
ATOM     11  C   UNL     1     153.467 131.245 127.303  0.00  0.00    +0.000 C 
ATOM     12  C   UNL     1     151.037 131.922 127.234  0.00  0.00    +0.000 C 
ATOM     13  C   UNL     1     155.786 129.214 124.117  0.00  0.00    +0.000 A 
ATOM     14  C   UNL     1     150.270 132.611 125.002  0.00  0.00    +0.000 C 
ATOM     15  C   UNL     1     154.766 129.306 126.426  0.00  0.00    +0.000 C 
ATOM     16  C   UNL     1     150.027 131.970 126.333  0.00  0.00    +0.000 C 
ATOM     17  C   UNL     1     155.445 128.544 125.332  0.00  0.00    +0.000 A 
ATOM     18  C   UNL     1     156.615 131.607 124.045  0.00  0.00    +0.000 C 
ATOM     19  C   UNL     1     156.491 128.493 123.124  0.00  0.00    +0.000 A 
ATOM     20  C   UNL     1     155.764 127.174 125.453  0.00  0.00    +0.000 A 
ATOM     21  C   UNL     1     156.817 127.151 123.296  0.00  0.00    +0.000 A 
ATOM     22  C   UNL     1     156.442 126.488 124.449  0.00  0.00    +0.000 A 
ENDROOT
BRANCH  16  23
ATOM     23  C   UNL     1     148.646 131.503 126.642  0.00  0.00    +0.000 C 
ATOM     24  O   UNL     1     148.432 130.447 127.224  0.00  0.00    +0.000 OA
ATOM     25  N   UNL     1     147.619 132.295 126.232  0.00  0.00    +0.000 N 
ATOM     26  H   UNL     1     147.774 133.001 125.520  0.00  0.00    +0.000 HD
ATOM     27  H   UNL     1     146.686 131.922 126.335  0.00  0.00    +0.000 HD
ENDBRANCH  16  23
BRANCH   8  28
ATOM     28  N   UNL     1     151.174 134.966 124.892  0.00  0.00    +0.000 NA
ATOM     29  C   UNL     1     151.011 135.472 123.536  0.00  0.00    +0.000 C 
ATOM     30  C   UNL     1     150.033 135.400 125.671  0.00  0.00    +0.000 C 
ENDBRANCH   8  28
BRANCH  12  31
ATOM     31  O   UNL     1     150.810 131.446 128.528  0.00  0.00    +0.000 OA
ATOM     32  H   UNL     1     149.934 131.778 128.831  0.00  0.00    +0.000 HD
ENDBRANCH  12  31
BRANCH   7  33
ATOM     33  O   UNL     1     152.636 133.493 127.919  0.00  0.00    +0.000 OA
ATOM     34  H   UNL     1     153.250 133.178 128.607  0.00  0.00    +0.000 HD
ENDBRANCH   7  33
BRANCH  15  35
ATOM     35  O   UNL     1     154.767 128.708 127.668  0.00  0.00    +0.000 OA
ATOM     36  H   UNL     1     155.046 127.771 127.595  0.00  0.00    +0.000 HD
ENDBRANCH  15  35
BRANCH   9  37
ATOM     37  O   UNL     1     154.853 130.878 122.639  0.00  0.00    +0.000 OA
ATOM     38  H   UNL     1     153.975 131.240 122.857  0.00  0.00    +0.000 HD
ENDBRANCH   9  37
BRANCH  20  39
ATOM     39  O   UNL     1     155.378 126.443 126.544  0.00  0.00    +0.000 OA
ATOM     40  H   UNL     1     156.097 125.839 126.800  0.00  0.00    +0.000 HD
ENDBRANCH  20  39
TORSDOF 7
ENDMDL
MODEL 8
REMARK VINA RESULT:      -5.9     18.450     20.534
REMARK  Name = Chlortetracycline.pdbqt.pdb
REMARK  7 active torsions:
REMARK  status: ('A' for Active; 'I' for Inactive)
REMARK    1  A    between atoms: C_7  and  O_30
REMARK    2  A    between atoms: C_8  and  N_32
REMARK    3  A    between atoms: C_9  and  O_37
REMARK    4  A    between atoms: C_12  and  O_28
REMARK    5  A    between atoms: C_15  and  O_35
REMARK    6  A    between atoms: C_16  and  C_23
REMARK    7  A    between atoms: C_20  and  O_39
REMARK                            x       y       z     vdW  Elec       q    Type
REMARK                         _______ _______ _______ _____ _____    ______ ____
ROOT
ATOM      1 CL   UNL     1     129.152 116.896 108.827  0.00  0.00    +0.000 Cl
ATOM      2  O   UNL     1     133.940 118.518 114.805  0.00  0.00    +0.000 OA
ATOM      3  O   UNL     1     136.978 114.849 110.895  0.00  0.00    +0.000 OA
ATOM      4  C   UNL     1     134.436 115.190 113.193  0.00  0.00    +0.000 C 
ATOM      5  C   UNL     1     132.535 116.601 112.027  0.00  0.00    +0.000 C 
ATOM      6  C   UNL     1     133.339 115.492 112.360  0.00  0.00    +0.000 C 
ATOM      7  C   UNL     1     134.862 116.359 114.048  0.00  0.00    +0.000 C 
ATOM      8  C   UNL     1     135.504 114.346 112.686  0.00  0.00    +0.000 C 
ATOM      9  C   UNL     1     131.293 116.608 111.181  0.00  0.00    +0.000 C 
ATOM     10  C   UNL     1     132.904 117.775 112.789  0.00  0.00    +0.000 C 
ATOM     11  C   UNL     1     133.890 117.628 113.944  0.00  0.00    +0.000 C 
ATOM     12  C   UNL     1     136.281 116.846 113.737  0.00  0.00    +0.000 C 
ATOM     13  C   UNL     1     130.888 117.994 110.703  0.00  0.00    +0.000 A 
ATOM     14  C   UNL     1     136.602 115.108 112.029  0.00  0.00    +0.000 C 
ATOM     15  C   UNL     1     132.361 118.973 112.506  0.00  0.00    +0.000 C 
ATOM     16  C   UNL     1     137.086 116.299 112.796  0.00  0.00    +0.000 C 
ATOM     17  C   UNL     1     131.442 119.147 111.338  0.00  0.00    +0.000 A 
ATOM     18  C   UNL     1     130.160 115.930 111.980  0.00  0.00    +0.000 C 
ATOM     19  C   UNL     1     129.966 118.182 109.646  0.00  0.00    +0.000 A 
ATOM     20  C   UNL     1     131.099 120.420 110.831  0.00  0.00    +0.000 A 
ATOM     21  C   UNL     1     129.628 119.456 109.198  0.00  0.00    +0.000 A 
ATOM     22  C   UNL     1     130.202 120.572 109.777  0.00  0.00    +0.000 A 
ENDROOT
BRANCH  16  23
ATOM     23  C   UNL     1     138.481 116.766 112.556  0.00  0.00    +0.000 C 
ATOM     24  O   UNL     1     138.761 117.536 111.647  0.00  0.00    +0.000 OA
ATOM     25  N   UNL     1     139.445 116.284 113.385  0.00  0.00    +0.000 N 
ATOM     26  H   UNL     1     139.272 115.452 113.939  0.00  0.00    +0.000 HD
ATOM     27  H   UNL     1     140.403 116.506 113.149  0.00  0.00    +0.000 HD
ENDBRANCH  16  23
BRANCH   8  28
ATOM     28  N   UNL     1     135.792 113.063 113.270  0.00  0.00    +0.000 NA
ATOM     29  C   UNL     1     137.041 113.019 114.018  0.00  0.00    +0.000 C 
ATOM     30  C   UNL     1     134.739 112.559 114.127  0.00  0.00    +0.000 C 
ENDBRANCH   8  28
BRANCH  12  31
ATOM     31  O   UNL     1     136.747 117.877 114.557  0.00  0.00    +0.000 OA
ATOM     32  H   UNL     1     136.028 118.542 114.658  0.00  0.00    +0.000 HD
ENDBRANCH  12  31
BRANCH   7  33
ATOM     33  O   UNL     1     134.921 115.918 115.405  0.00  0.00    +0.000 OA
ATOM     34  H   UNL     1     135.274 116.648 115.946  0.00  0.00    +0.000 HD
ENDBRANCH   7  33
BRANCH  15  35
ATOM     35  O   UNL     1     132.589 120.100 113.266  0.00  0.00    +0.000 OA
ATOM     36  H   UNL     1     132.497 120.907 112.718  0.00  0.00    +0.000 HD
ENDBRANCH  15  35
BRANCH   9  37
ATOM     37  O   UNL     1     131.566 115.764 110.080  0.00  0.00    +0.000 OA
ATOM     38  H   UNL     1     130.803 115.950 109.503  0.00  0.00    +0.000 HD
ENDBRANCH   9  37
BRANCH  20  39
ATOM     39  O   UNL     1     131.669 121.563 111.322  0.00  0.00    +0.000 OA
ATOM     40  H   UNL     1     132.163 122.010 110.613  0.00  0.00    +0.000 HD
ENDBRANCH  20  39
TORSDOF 7
ENDMDL
MODEL 9
REMARK VINA RESULT:      -5.9     26.188     27.963
REMARK  Name = Chlortetracycline.pdbqt.pdb
REMARK  7 active torsions:
REMARK  status: ('A' for Active; 'I' for Inactive)
REMARK    1  A    between atoms: C_7  and  O_30
REMARK    2  A    between atoms: C_8  and  N_32
REMARK    3  A    between atoms: C_9  and  O_37
REMARK    4  A    between atoms: C_12  and  O_28
REMARK    5  A    between atoms: C_15  and  O_35
REMARK    6  A    between atoms: C_16  and  C_23
REMARK    7  A    between atoms: C_20  and  O_39
REMARK                            x       y       z     vdW  Elec       q    Type
REMARK                         _______ _______ _______ _____ _____    ______ ____
ROOT
ATOM      1 CL   UNL     1     158.140 133.529 120.706  0.00  0.00    +0.000 Cl
ATOM      2  O   UNL     1     152.509 132.476 126.043  0.00  0.00    +0.000 OA
ATOM      3  O   UNL     1     150.380 136.411 121.805  0.00  0.00    +0.000 OA
ATOM      4  C   UNL     1     152.571 135.824 124.396  0.00  0.00    +0.000 C 
ATOM      5  C   UNL     1     154.440 134.209 123.467  0.00  0.00    +0.000 C 
ATOM      6  C   UNL     1     153.724 135.399 123.703  0.00  0.00    +0.000 C 
ATOM      7  C   UNL     1     151.922 134.714 125.187  0.00  0.00    +0.000 C 
ATOM      8  C   UNL     1     151.668 136.771 123.766  0.00  0.00    +0.000 C 
ATOM      9  C   UNL     1     155.769 134.063 122.780  0.00  0.00    +0.000 C 
ATOM     10  C   UNL     1     153.858 133.087 124.173  0.00  0.00    +0.000 C 
ATOM     11  C   UNL     1     152.758 133.348 125.198  0.00  0.00    +0.000 C 
ATOM     12  C   UNL     1     150.508 134.376 124.702  0.00  0.00    +0.000 C 
ATOM     13  C   UNL     1     156.080 132.638 122.349  0.00  0.00    +0.000 A 
ATOM     14  C   UNL     1     150.585 136.124 122.975  0.00  0.00    +0.000 C 
ATOM     15  C   UNL     1     154.302 131.836 123.953  0.00  0.00    +0.000 C 
ATOM     16  C   UNL     1     149.887 134.997 123.672  0.00  0.00    +0.000 C 
ATOM     17  C   UNL     1     155.333 131.555 122.907  0.00  0.00    +0.000 A 
ATOM     18  C   UNL     1     156.860 134.624 123.715  0.00  0.00    +0.000 C 
ATOM     19  C   UNL     1     157.099 132.343 121.413  0.00  0.00    +0.000 A 
ATOM     20  C   UNL     1     155.599 130.249 122.440  0.00  0.00    +0.000 A 
ATOM     21  C   UNL     1     157.353 131.037 121.004  0.00  0.00    +0.000 A 
ATOM     22  C   UNL     1     156.597 129.994 121.503  0.00  0.00    +0.000 A 
ENDROOT
BRANCH  16  23
ATOM     23  C   UNL     1     148.491 134.678 123.260  0.00  0.00    +0.000 C 
ATOM     24  O   UNL     1     147.554 134.728 124.046  0.00  0.00    +0.000 OA
ATOM     25  N   UNL     1     148.298 134.308 121.965  0.00  0.00    +0.000 N 
ATOM     26  H   UNL     1     149.082 133.996 121.403  0.00  0.00    +0.000 HD
ATOM     27  H   UNL     1     147.375 133.979 121.718  0.00  0.00    +0.000 HD
ENDBRANCH  16  23
BRANCH   8  28
ATOM     28  N   UNL     1     151.449 138.082 124.315  0.00  0.00    +0.000 NA
ATOM     29  C   UNL     1     150.123 138.272 124.886  0.00  0.00    +0.000 C 
ATOM     30  C   UNL     1     152.425 138.471 125.312  0.00  0.00    +0.000 C 
ENDBRANCH   8  28
BRANCH  12  31
ATOM     31  O   UNL     1     149.838 133.408 125.455  0.00  0.00    +0.000 OA
ATOM     32  H   UNL     1     150.451 133.078 126.151  0.00  0.00    +0.000 HD
ENDBRANCH  12  31
BRANCH   7  33
ATOM     33  O   UNL     1     151.744 135.170 126.529  0.00  0.00    +0.000 OA
ATOM     34  H   UNL     1     152.442 134.771 127.080  0.00  0.00    +0.000 HD
ENDBRANCH   7  33
BRANCH  15  35
ATOM     35  O   UNL     1     153.863 130.746 124.675  0.00  0.00    +0.000 OA
ATOM     36  H   UNL     1     153.070 130.982 125.201  0.00  0.00    +0.000 HD
ENDBRANCH  15  35
BRANCH   9  37
ATOM     37  O   UNL     1     155.724 134.922 121.657  0.00  0.00    +0.000 OA
ATOM     38  H   UNL     1     156.593 135.358 121.717  0.00  0.00    +0.000 HD
ENDBRANCH   9  37
BRANCH  20  39
ATOM     39  O   UNL     1     154.855 129.177 122.853  0.00  0.00    +0.000 OA
ATOM     40  H   UNL     1     154.491 128.716 122.077  0.00  0.00    +0.000 HD
ENDBRANCH  20  39
TORSDOF 7
ENDMDL
