MODEL 1
REMARK VINA RESULT:      -5.6      0.000      0.000
REMARK  Name = Ciclopirox.pdbqt.pdb
REMARK  2 active torsions:
REMARK  status: ('A' for Active; 'I' for Inactive)
REMARK    1  A    between atoms: N_2  and  O_15
REMARK    2  A    between atoms: C_3  and  C_9
REMARK                            x       y       z     vdW  Elec       q    Type
REMARK                         _______ _______ _______ _____ _____    ______ ____
ROOT
ATOM      1  O   UNL     1     141.774 123.230  99.384  0.00  0.00    +0.000 OA
ATOM      2  N   UNL     1     143.384 124.332 100.679  0.00  0.00    +0.000 N 
ATOM      3  C   UNL     1     143.843 125.534 101.236  0.00  0.00    +0.000 C 
ATOM      4  C   UNL     1     143.080 126.540 100.887  0.00  0.00    +0.000 C 
ATOM      5  C   UNL     1     141.924 126.747 100.080  0.00  0.00    +0.000 C 
ATOM      6  C   UNL     1     142.244 124.254  99.859  0.00  0.00    +0.000 C 
ATOM      7  C   UNL     1     141.644 125.552  99.655  0.00  0.00    +0.000 C 
ATOM      8  C   UNL     1     141.837 127.930  99.174  0.00  0.00    +0.000 C 
ENDROOT
BRANCH   3   9
ATOM      9  C   UNL     1     144.986 125.659 102.093  0.00  0.00    +0.000 A 
ATOM     10  C   UNL     1     144.957 126.297 103.389  0.00  0.00    +0.000 A 
ATOM     11  C   UNL     1     146.111 126.741 104.316  0.00  0.00    +0.000 A 
ATOM     12  C   UNL     1     147.538 126.471 103.802  0.00  0.00    +0.000 A 
ATOM     13  C   UNL     1     147.676 125.790 102.428  0.00  0.00    +0.000 A 
ATOM     14  C   UNL     1     146.357 125.446 101.701  0.00  0.00    +0.000 A 
ENDBRANCH   3   9
BRANCH   2  15
ATOM     15  O   UNL     1     144.031 123.129 101.021  0.00  0.00    +0.000 OA
ATOM     16  H   UNL     1     143.872 123.069 101.985  0.00  0.00    +0.000 HD
ENDBRANCH   2  15
TORSDOF 2
ENDMDL
MODEL 2
REMARK VINA RESULT:      -5.5     37.005     38.803
REMARK  Name = Ciclopirox.pdbqt.pdb
REMARK  2 active torsions:
REMARK  status: ('A' for Active; 'I' for Inactive)
REMARK    1  A    between atoms: N_2  and  O_15
REMARK    2  A    between atoms: C_3  and  C_9
REMARK                            x       y       z     vdW  Elec       q    Type
REMARK                         _______ _______ _______ _____ _____    ______ ____
ROOT
ATOM      1  O   UNL     1     138.386 121.559 136.658  0.00  0.00    +0.000 OA
ATOM      2  N   UNL     1     136.964 122.305 138.363  0.00  0.00    +0.000 N 
ATOM      3  C   UNL     1     135.703 122.796 138.731  0.00  0.00    +0.000 C 
ATOM      4  C   UNL     1     134.934 122.959 137.683  0.00  0.00    +0.000 C 
ATOM      5  C   UNL     1     135.037 122.791 136.272  0.00  0.00    +0.000 C 
ATOM      6  C   UNL     1     137.320 122.029 137.031  0.00  0.00    +0.000 C 
ATOM      7  C   UNL     1     136.245 122.339 136.117  0.00  0.00    +0.000 C 
ATOM      8  C   UNL     1     134.471 123.815 135.345  0.00  0.00    +0.000 C 
ENDROOT
BRANCH   3   9
ATOM      9  C   UNL     1     135.289 123.072 140.075  0.00  0.00    +0.000 A 
ATOM     10  C   UNL     1     134.025 122.650 140.633  0.00  0.00    +0.000 A 
ATOM     11  C   UNL     1     133.316 123.063 141.943  0.00  0.00    +0.000 A 
ATOM     12  C   UNL     1     134.055 124.092 142.819  0.00  0.00    +0.000 A 
ATOM     13  C   UNL     1     135.415 124.605 142.312  0.00  0.00    +0.000 A 
ATOM     14  C   UNL     1     135.902 124.028 140.964  0.00  0.00    +0.000 A 
ENDBRANCH   3   9
BRANCH   2  15
ATOM     15  O   UNL     1     137.893 121.984 139.371  0.00  0.00    +0.000 OA
ATOM     16  H   UNL     1     138.728 121.887 138.868  0.00  0.00    +0.000 HD
ENDBRANCH   2  15
TORSDOF 2
ENDMDL
MODEL 3
REMARK VINA RESULT:      -5.4     15.998     16.717
REMARK  Name = Ciclopirox.pdbqt.pdb
REMARK  2 active torsions:
REMARK  status: ('A' for Active; 'I' for Inactive)
REMARK    1  A    between atoms: N_2  and  O_15
REMARK    2  A    between atoms: C_3  and  C_9
REMARK                            x       y       z     vdW  Elec       q    Type
REMARK                         _______ _______ _______ _____ _____    ______ ____
ROOT
ATOM      1  O   UNL     1     132.036 133.474 113.531  0.00  0.00    +0.000 OA
ATOM      2  N   UNL     1     133.455 131.636 113.229  0.00  0.00    +0.000 N 
ATOM      3  C   UNL     1     133.593 130.245 113.120  0.00  0.00    +0.000 C 
ATOM      4  C   UNL     1     132.442 129.641 113.278  0.00  0.00    +0.000 C 
ATOM      5  C   UNL     1     131.093 130.011 113.550  0.00  0.00    +0.000 C 
ATOM      6  C   UNL     1     132.222 132.267 113.471  0.00  0.00    +0.000 C 
ATOM      7  C   UNL     1     131.152 131.308 113.616  0.00  0.00    +0.000 C 
ATOM      8  C   UNL     1     130.273 129.224 114.518  0.00  0.00    +0.000 C 
ENDROOT
BRANCH   3   9
ATOM      9  C   UNL     1     134.824 129.560 112.853  0.00  0.00    +0.000 A 
ATOM     10  C   UNL     1     135.172 128.997 111.569  0.00  0.00    +0.000 A 
ATOM     11  C   UNL     1     136.308 128.028 111.171  0.00  0.00    +0.000 A 
ATOM     12  C   UNL     1     137.239 127.569 112.309  0.00  0.00    +0.000 A 
ATOM     13  C   UNL     1     136.953 128.116 113.720  0.00  0.00    +0.000 A 
ATOM     14  C   UNL     1     135.749 129.076 113.848  0.00  0.00    +0.000 A 
ENDBRANCH   3   9
BRANCH   2  15
ATOM     15  O   UNL     1     134.577 132.454 112.996  0.00  0.00    +0.000 OA
ATOM     16  H   UNL     1     134.844 132.713 113.902  0.00  0.00    +0.000 HD
ENDBRANCH   2  15
TORSDOF 2
ENDMDL
MODEL 4
REMARK VINA RESULT:      -5.3     13.999     14.990
REMARK  Name = Ciclopirox.pdbqt.pdb
REMARK  2 active torsions:
REMARK  status: ('A' for Active; 'I' for Inactive)
REMARK    1  A    between atoms: N_2  and  O_15
REMARK    2  A    between atoms: C_3  and  C_9
REMARK                            x       y       z     vdW  Elec       q    Type
REMARK                         _______ _______ _______ _____ _____    ______ ____
ROOT
ATOM      1  O   UNL     1     144.167 115.312 108.197  0.00  0.00    +0.000 OA
ATOM      2  N   UNL     1     145.048 114.982 110.342  0.00  0.00    +0.000 N 
ATOM      3  C   UNL     1     144.951 115.229 111.719  0.00  0.00    +0.000 C 
ATOM      4  C   UNL     1     143.944 116.022 111.988  0.00  0.00    +0.000 C 
ATOM      5  C   UNL     1     142.934 116.717 111.261  0.00  0.00    +0.000 C 
ATOM      6  C   UNL     1     144.157 115.529 109.401  0.00  0.00    +0.000 C 
ATOM      7  C   UNL     1     143.172 116.378 110.030  0.00  0.00    +0.000 C 
ATOM      8  C   UNL     1     142.574 118.120 111.620  0.00  0.00    +0.000 C 
ENDROOT
BRANCH   3   9
ATOM      9  C   UNL     1     145.822 114.679 112.716  0.00  0.00    +0.000 A 
ATOM     10  C   UNL     1     147.106 115.242 113.064  0.00  0.00    +0.000 A 
ATOM     11  C   UNL     1     148.263 114.659 113.907  0.00  0.00    +0.000 A 
ATOM     12  C   UNL     1     148.040 113.249 114.484  0.00  0.00    +0.000 A 
ATOM     13  C   UNL     1     146.698 112.562 114.171  0.00  0.00    +0.000 A 
ATOM     14  C   UNL     1     145.706 113.366 113.301  0.00  0.00    +0.000 A 
ENDBRANCH   3   9
BRANCH   2  15
ATOM     15  O   UNL     1     146.020 114.075 109.877  0.00  0.00    +0.000 OA
ATOM     16  H   UNL     1     145.975 113.357 110.541  0.00  0.00    +0.000 HD
ENDBRANCH   2  15
TORSDOF 2
ENDMDL
MODEL 5
REMARK VINA RESULT:      -5.1     33.969     35.614
REMARK  Name = Ciclopirox.pdbqt.pdb
REMARK  2 active torsions:
REMARK  status: ('A' for Active; 'I' for Inactive)
REMARK    1  A    between atoms: N_2  and  O_15
REMARK    2  A    between atoms: C_3  and  C_9
REMARK                            x       y       z     vdW  Elec       q    Type
REMARK                         _______ _______ _______ _____ _____    ______ ____
ROOT
ATOM      1  O   UNL     1     136.403 123.525 132.569  0.00  0.00    +0.000 OA
ATOM      2  N   UNL     1     134.944 122.895 134.289  0.00  0.00    +0.000 N 
ATOM      3  C   UNL     1     134.016 121.967 134.782  0.00  0.00    +0.000 C 
ATOM      4  C   UNL     1     133.807 121.003 133.920  0.00  0.00    +0.000 C 
ATOM      5  C   UNL     1     134.251 120.653 132.611  0.00  0.00    +0.000 C 
ATOM      6  C   UNL     1     135.556 122.772 133.029  0.00  0.00    +0.000 C 
ATOM      7  C   UNL     1     135.088 121.604 132.321  0.00  0.00    +0.000 C 
ATOM      8  C   UNL     1     133.285 120.138 131.597  0.00  0.00    +0.000 C 
ENDROOT
BRANCH   3   9
ATOM      9  C   UNL     1     133.383 122.040 136.066  0.00  0.00    +0.000 A 
ATOM     10  C   UNL     1     134.020 121.650 137.302  0.00  0.00    +0.000 A 
ATOM     11  C   UNL     1     133.425 121.423 138.711  0.00  0.00    +0.000 A 
ATOM     12  C   UNL     1     131.907 121.643 138.851  0.00  0.00    +0.000 A 
ATOM     13  C   UNL     1     131.135 122.064 137.587  0.00  0.00    +0.000 A 
ATOM     14  C   UNL     1     131.972 122.224 136.298  0.00  0.00    +0.000 A 
ENDBRANCH   3   9
BRANCH   2  15
ATOM     15  O   UNL     1     135.359 123.954 135.121  0.00  0.00    +0.000 OA
ATOM     16  H   UNL     1     136.334 123.926 135.029  0.00  0.00    +0.000 HD
ENDBRANCH   2  15
TORSDOF 2
ENDMDL
MODEL 6
REMARK VINA RESULT:      -5.0     33.764     35.421
REMARK  Name = Ciclopirox.pdbqt.pdb
REMARK  2 active torsions:
REMARK  status: ('A' for Active; 'I' for Inactive)
REMARK    1  A    between atoms: N_2  and  O_15
REMARK    2  A    between atoms: C_3  and  C_9
REMARK                            x       y       z     vdW  Elec       q    Type
REMARK                         _______ _______ _______ _____ _____    ______ ____
ROOT
ATOM      1  O   UNL     1     135.166 122.092 131.437  0.00  0.00    +0.000 OA
ATOM      2  N   UNL     1     135.340 122.211 133.770  0.00  0.00    +0.000 N 
ATOM      3  C   UNL     1     135.008 121.663 135.017  0.00  0.00    +0.000 C 
ATOM      4  C   UNL     1     134.220 120.626 134.884  0.00  0.00    +0.000 C 
ATOM      5  C   UNL     1     133.595 119.915 133.819  0.00  0.00    +0.000 C 
ATOM      6  C   UNL     1     134.873 121.684 132.552  0.00  0.00    +0.000 C 
ATOM      7  C   UNL     1     134.007 120.547 132.762  0.00  0.00    +0.000 C 
ATOM      8  C   UNL     1     132.179 119.458 133.944  0.00  0.00    +0.000 C 
ENDROOT
BRANCH   3   9
ATOM      9  C   UNL     1     135.475 122.154 136.281  0.00  0.00    +0.000 A 
ATOM     10  C   UNL     1     136.849 122.068 136.721  0.00  0.00    +0.000 A 
ATOM     11  C   UNL     1     137.474 122.304 138.115  0.00  0.00    +0.000 A 
ATOM     12  C   UNL     1     136.497 122.696 139.239  0.00  0.00    +0.000 A 
ATOM     13  C   UNL     1     135.007 122.815 138.871  0.00  0.00    +0.000 A 
ATOM     14  C   UNL     1     134.643 122.527 137.397  0.00  0.00    +0.000 A 
ENDBRANCH   3   9
BRANCH   2  15
ATOM     15  O   UNL     1     136.254 123.281 133.715  0.00  0.00    +0.000 OA
ATOM     16  H   UNL     1     137.096 122.830 133.499  0.00  0.00    +0.000 HD
ENDBRANCH   2  15
TORSDOF 2
ENDMDL
MODEL 7
REMARK VINA RESULT:      -4.8     35.485     36.851
REMARK  Name = Ciclopirox.pdbqt.pdb
REMARK  2 active torsions:
REMARK  status: ('A' for Active; 'I' for Inactive)
REMARK    1  A    between atoms: N_2  and  O_15
REMARK    2  A    between atoms: C_3  and  C_9
REMARK                            x       y       z     vdW  Elec       q    Type
REMARK                         _______ _______ _______ _____ _____    ______ ____
ROOT
ATOM      1  O   UNL     1     154.617 124.775 137.721  0.00  0.00    +0.000 OA
ATOM      2  N   UNL     1     153.306 126.691 137.411  0.00  0.00    +0.000 N 
ATOM      3  C   UNL     1     152.064 127.238 137.058  0.00  0.00    +0.000 C 
ATOM      4  C   UNL     1     151.218 126.303 136.703  0.00  0.00    +0.000 C 
ATOM      5  C   UNL     1     151.223 124.885 136.561  0.00  0.00    +0.000 C 
ATOM      6  C   UNL     1     153.571 125.310 137.382  0.00  0.00    +0.000 C 
ATOM      7  C   UNL     1     152.426 124.557 136.924  0.00  0.00    +0.000 C 
ATOM      8  C   UNL     1     150.569 124.241 135.383  0.00  0.00    +0.000 C 
ENDROOT
BRANCH   3   9
ATOM      9  C   UNL     1     151.742 128.635 137.092  0.00  0.00    +0.000 A 
ATOM     10  C   UNL     1     150.947 129.254 138.127  0.00  0.00    +0.000 A 
ATOM     11  C   UNL     1     150.300 130.656 138.193  0.00  0.00    +0.000 A 
ATOM     12  C   UNL     1     150.522 131.565 136.970  0.00  0.00    +0.000 A 
ATOM     13  C   UNL     1     151.360 130.996 135.810  0.00  0.00    +0.000 A 
ATOM     14  C   UNL     1     151.896 129.559 135.996  0.00  0.00    +0.000 A 
ENDBRANCH   3   9
BRANCH   2  15
ATOM     15  O   UNL     1     154.312 127.543 137.907  0.00  0.00    +0.000 OA
ATOM     16  H   UNL     1     154.351 127.297 138.854  0.00  0.00    +0.000 HD
ENDBRANCH   2  15
TORSDOF 2
ENDMDL
MODEL 8
REMARK VINA RESULT:      -4.7     16.446     18.775
REMARK  Name = Ciclopirox.pdbqt.pdb
REMARK  2 active torsions:
REMARK  status: ('A' for Active; 'I' for Inactive)
REMARK    1  A    between atoms: N_2  and  O_15
REMARK    2  A    between atoms: C_3  and  C_9
REMARK                            x       y       z     vdW  Elec       q    Type
REMARK                         _______ _______ _______ _____ _____    ______ ____
ROOT
ATOM      1  O   UNL     1     158.082 122.692 116.027  0.00  0.00    +0.000 OA
ATOM      2  N   UNL     1     156.254 124.133 115.772  0.00  0.00    +0.000 N 
ATOM      3  C   UNL     1     154.902 124.399 116.035  0.00  0.00    +0.000 C 
ATOM      4  C   UNL     1     154.347 123.416 116.700  0.00  0.00    +0.000 C 
ATOM      5  C   UNL     1     154.738 122.144 117.211  0.00  0.00    +0.000 C 
ATOM      6  C   UNL     1     156.898 122.955 116.189  0.00  0.00    +0.000 C 
ATOM      7  C   UNL     1     155.993 122.069 116.883  0.00  0.00    +0.000 C 
ATOM      8  C   UNL     1     153.832 120.966 117.078  0.00  0.00    +0.000 C 
ENDROOT
BRANCH   3   9
ATOM      9  C   UNL     1     154.209 125.593 115.648  0.00  0.00    +0.000 A 
ATOM     10  C   UNL     1     153.712 125.840 114.314  0.00  0.00    +0.000 A 
ATOM     11  C   UNL     1     153.182 127.138 113.664  0.00  0.00    +0.000 A 
ATOM     12  C   UNL     1     153.168 128.390 114.562  0.00  0.00    +0.000 A 
ATOM     13  C   UNL     1     153.677 128.230 116.006  0.00  0.00    +0.000 A 
ATOM     14  C   UNL     1     154.154 126.817 116.408  0.00  0.00    +0.000 A 
ENDBRANCH   3   9
BRANCH   2  15
ATOM     15  O   UNL     1     157.035 125.122 115.143  0.00  0.00    +0.000 OA
ATOM     16  H   UNL     1     156.378 125.823 114.954  0.00  0.00    +0.000 HD
ENDBRANCH   2  15
TORSDOF 2
ENDMDL
MODEL 9
REMARK VINA RESULT:      -4.6     15.679     16.812
REMARK  Name = Ciclopirox.pdbqt.pdb
REMARK  2 active torsions:
REMARK  status: ('A' for Active; 'I' for Inactive)
REMARK    1  A    between atoms: N_2  and  O_15
REMARK    2  A    between atoms: C_3  and  C_9
REMARK                            x       y       z     vdW  Elec       q    Type
REMARK                         _______ _______ _______ _____ _____    ______ ____
ROOT
ATOM      1  O   UNL     1     144.418 115.580 110.120  0.00  0.00    +0.000 OA
ATOM      2  N   UNL     1     145.810 114.773 111.822  0.00  0.00    +0.000 N 
ATOM      3  C   UNL     1     145.936 114.031 113.004  0.00  0.00    +0.000 C 
ATOM      4  C   UNL     1     144.773 113.581 113.407  0.00  0.00    +0.000 C 
ATOM      5  C   UNL     1     143.415 113.657 112.980  0.00  0.00    +0.000 C 
ATOM      6  C   UNL     1     144.579 114.982 111.175  0.00  0.00    +0.000 C 
ATOM      7  C   UNL     1     143.488 114.366 111.894  0.00  0.00    +0.000 C 
ATOM      8  C   UNL     1     142.322 113.875 113.973  0.00  0.00    +0.000 C 
ENDROOT
BRANCH   3   9
ATOM      9  C   UNL     1     147.170 113.774 113.687  0.00  0.00    +0.000 A 
ATOM     10  C   UNL     1     147.448 112.561 114.421  0.00  0.00    +0.000 A 
ATOM     11  C   UNL     1     148.590 112.224 115.407  0.00  0.00    +0.000 A 
ATOM     12  C   UNL     1     149.615 113.343 115.669  0.00  0.00    +0.000 A 
ATOM     13  C   UNL     1     149.407 114.678 114.930  0.00  0.00    +0.000 A 
ATOM     14  C   UNL     1     148.180 114.756 113.995  0.00  0.00    +0.000 A 
ENDBRANCH   3   9
BRANCH   2  15
ATOM     15  O   UNL     1     146.974 115.258 111.193  0.00  0.00    +0.000 OA
ATOM     16  H   UNL     1     147.464 115.664 111.938  0.00  0.00    +0.000 HD
ENDBRANCH   2  15
TORSDOF 2
ENDMDL
