REMARK  Name = 
REMARK  14 active torsions:
REMARK  status: ('A' for Active; 'I' for Inactive)
REMARK    1  A    between atoms: S_2  and  C_21
REMARK    2  A    between atoms: S_2  and  C_27
REMARK    3  A    between atoms: O_4  and  C_16
REMARK    4  A    between atoms: O_5  and  C_18
REMARK    5  A    between atoms: O_6  and  C_20
REMARK    6  A    between atoms: N_8  and  C_23
REMARK    7  A    between atoms: N_9  and  C_15
REMARK    8  A    between atoms: C_10  and  C_17
REMARK    9  A    between atoms: C_11  and  C_19
REMARK   10  A    between atoms: C_14  and  C_15
REMARK   11  A    between atoms: C_15  and  C_22
REMARK   12  A    between atoms: C_17  and  C_24
REMARK   13  A    between atoms: C_22  and  C_25
REMARK   14  A    between atoms: C_24  and  C_26
REMARK                            x       y       z     vdW  Elec       q    Type
REMARK                         _______ _______ _______ _____ _____    ______ ____
ROOT
ATOM      1  C   UNL     1       0.793  -0.974  -0.638  0.00  0.00    +0.000 C 
ENDROOT
BRANCH   1   3
ATOM      2  O   UNL     1       3.211  -0.964  -0.740  0.00  0.00    +0.000 OA
ATOM      3  C   UNL     1       2.100  -0.384  -0.024  0.00  0.00    +0.000 C 
ATOM      4  C   UNL     1       2.159   1.158  -0.067  0.00  0.00    +0.000 C 
ATOM      5  C   UNL     1       3.515   1.661   0.443  0.00  0.00    +0.000 C 
ATOM      6  C   UNL     1       4.658   0.996  -0.336  0.00  0.00    +0.000 C 
ATOM      7  C   UNL     1       4.507  -0.539  -0.310  0.00  0.00    +0.000 C 
BRANCH   7   8
ATOM      8  S   UNL     1       4.957  -1.268   1.320  0.00  0.00    +0.000 S 
ATOM      9  C   UNL     1       4.962  -3.012   0.842  0.00  0.00    +0.000 C 
ENDBRANCH   7   8
BRANCH   4  10
ATOM     10  O   UNL     1       1.992   1.656  -1.405  0.00  0.00    +0.000 OA
ATOM     11  H   UNL     1       1.021   1.674  -1.579  0.00  0.00    +0.000 HD
ENDBRANCH   4  10
BRANCH   5  12
ATOM     12  O   UNL     1       3.565   3.088   0.295  0.00  0.00    +0.000 OA
ATOM     13  H   UNL     1       3.300   3.259  -0.631  0.00  0.00    +0.000 HD
ENDBRANCH   5  12
BRANCH   6  14
ATOM     14  O   UNL     1       5.944   1.410   0.148  0.00  0.00    +0.000 OA
ATOM     15  H   UNL     1       5.987   1.166   1.090  0.00  0.00    +0.000 HD
ENDBRANCH   6  14
ENDBRANCH   1   3
BRANCH   1  17
ATOM     16  O   UNL     1      -0.686   1.340  -1.260  0.00  0.00    +0.000 OA
ATOM     17  N   UNL     1      -0.414  -0.495   0.054  0.00  0.00    +0.000 N 
ATOM     18  C   UNL     1      -1.103   0.637  -0.341  0.00  0.00    +0.000 C 
ATOM     19  H   UNL     1      -0.722  -1.007   0.875  0.00  0.00    +0.000 HD
BRANCH  18  22
ATOM     20  N   UNL     1      -3.051   2.152   0.061  0.00  0.00    +0.000 NA
ATOM     21  C   UNL     1      -4.680   0.521  -0.045  0.00  0.00    +0.000 C 
ATOM     22  C   UNL     1      -2.348   0.937   0.517  0.00  0.00    +0.000 C 
ATOM     23  C   UNL     1      -3.398  -0.178   0.414  0.00  0.00    +0.000 C 
ATOM     24  C   UNL     1      -4.460   1.963   0.396  0.00  0.00    +0.000 C 
ATOM     25  C   UNL     1      -2.500   3.377   0.621  0.00  0.00    +0.000 C 
BRANCH  21  26
ATOM     26  C   UNL     1      -5.970  -0.080   0.516  0.00  0.00    +0.000 C 
BRANCH  26  27
ATOM     27  C   UNL     1      -6.206  -1.512   0.031  0.00  0.00    +0.000 C 
ATOM     28  C   UNL     1      -7.521  -2.066   0.556  0.00  0.00    +0.000 C 
ENDBRANCH  26  27
ENDBRANCH  21  26
ENDBRANCH  18  22
ENDBRANCH   1  17
BRANCH   1  30
ATOM     29 CL   UNL     1       0.724  -3.215   0.985  0.00  0.00    +0.000 Cl
ATOM     30  C   UNL     1       0.817  -2.527  -0.676  0.00  0.00    +0.000 C 
ATOM     31  C   UNL     1      -0.336  -3.097  -1.501  0.00  0.00    +0.000 C 
ENDBRANCH   1  30
TORSDOF 10
