MODEL 1
REMARK VINA RESULT:      -7.7      0.000      0.000
REMARK  Name = 
REMARK  5 active torsions:
REMARK  status: ('A' for Active; 'I' for Inactive)
REMARK    1  A    between atoms: O_5  and  C_10
REMARK    2  A    between atoms: N_9  and  C_20
REMARK    3  A    between atoms: N_9  and  C_25
REMARK    4  A    between atoms: C_10  and  C_11
REMARK    5  A    between atoms: C_18  and  C_19
REMARK                            x       y       z     vdW  Elec       q    Type
REMARK                         _______ _______ _______ _____ _____    ______ ____
ROOT
ATOM      1  F   UNL     1     139.634 123.976  99.404  0.00  0.00    +0.000 F 
ATOM      2  F   UNL     1     138.035 124.216 101.566  0.00  0.00    +0.000 F 
ATOM      3  C   UNL     1     141.506 126.402 101.366  0.00  0.00    +0.000 A 
ATOM      4  C   UNL     1     141.195 125.542 100.290  0.00  0.00    +0.000 A 
ATOM      5  C   UNL     1     140.661 126.533 102.482  0.00  0.00    +0.000 A 
ATOM      6  C   UNL     1     140.008 124.803 100.392  0.00  0.00    +0.000 A 
ATOM      7  C   UNL     1     139.485 125.790 102.544  0.00  0.00    +0.000 A 
ATOM      8  C   UNL     1     139.168 124.931 101.499  0.00  0.00    +0.000 A 
ENDROOT
BRANCH   3  14
ATOM      9  O   UNL     1     142.778 128.260 100.751  0.00  0.00    +0.000 OA
ATOM     10  N   UNL     1     143.867 126.601 101.919  0.00  0.00    +0.000 N 
ATOM     11  C   UNL     1     145.554 125.545 101.291  0.00  0.00    +0.000 C 
ATOM     12  C   UNL     1     144.212 125.183 101.989  0.00  0.00    +0.000 C 
ATOM     13  C   UNL     1     145.252 127.016 101.704  0.00  0.00    +0.000 C 
ATOM     14  C   UNL     1     142.764 127.180 101.332  0.00  0.00    +0.000 C 
BRANCH  11  16
ATOM     15  N   UNL     1     146.946 125.801  99.254  0.00  0.00    +0.000 NA
ATOM     16  C   UNL     1     145.615 125.364  99.750  0.00  0.00    +0.000 C 
ATOM     17  C   UNL     1     145.380 123.899  99.343  0.00  0.00    +0.000 C 
ATOM     18  C   UNL     1     145.470 123.731  97.826  0.00  0.00    +0.000 C 
ATOM     19  C   UNL     1     146.975 125.753  97.785  0.00  0.00    +0.000 C 
ATOM     20  C   UNL     1     146.761 124.328  97.278  0.00  0.00    +0.000 C 
ATOM     21  H   UNL     1     147.641 125.128  99.588  0.00  0.00    +0.000 HD
ENDBRANCH  11  16
BRANCH  11  22
ATOM     22  O   UNL     1     146.741 124.970 101.910  0.00  0.00    +0.000 OA
ATOM     23  H   UNL     1     146.415 124.123 102.268  0.00  0.00    +0.000 HD
ENDBRANCH  11  22
ENDBRANCH   3  14
BRANCH   4  24
ATOM     24  N   UNL     1     142.104 125.396  99.220  0.00  0.00    +0.000 N 
ATOM     25  H   UNL     1     142.955 124.881  99.473  0.00  0.00    +0.000 HD
BRANCH  24  28
ATOM     26  I   UNL     1     141.599 126.113  92.980  0.00  0.00    +0.000 I 
ATOM     27  F   UNL     1     141.940 123.263  97.509  0.00  0.00    +0.000 F 
ATOM     28  C   UNL     1     141.983 125.612  97.834  0.00  0.00    +0.000 A 
ATOM     29  C   UNL     1     141.917 124.497  96.979  0.00  0.00    +0.000 A 
ATOM     30  C   UNL     1     141.954 126.878  97.243  0.00  0.00    +0.000 A 
ATOM     31  C   UNL     1     141.810 124.622  95.597  0.00  0.00    +0.000 A 
ATOM     32  C   UNL     1     141.847 127.021  95.853  0.00  0.00    +0.000 A 
ATOM     33  C   UNL     1     141.773 125.893  95.037  0.00  0.00    +0.000 A 
ENDBRANCH  24  28
ENDBRANCH   4  24
TORSDOF 5
ENDMDL
MODEL 2
REMARK VINA RESULT:      -7.2      2.370      3.432
REMARK  Name = 
REMARK  5 active torsions:
REMARK  status: ('A' for Active; 'I' for Inactive)
REMARK    1  A    between atoms: O_5  and  C_10
REMARK    2  A    between atoms: N_9  and  C_20
REMARK    3  A    between atoms: N_9  and  C_25
REMARK    4  A    between atoms: C_10  and  C_11
REMARK    5  A    between atoms: C_18  and  C_19
REMARK                            x       y       z     vdW  Elec       q    Type
REMARK                         _______ _______ _______ _____ _____    ______ ____
ROOT
ATOM      1  F   UNL     1     141.260 124.776  95.768  0.00  0.00    +0.000 F 
ATOM      2  F   UNL     1     140.168 122.680  97.072  0.00  0.00    +0.000 F 
ATOM      3  C   UNL     1     141.873 125.733  99.225  0.00  0.00    +0.000 A 
ATOM      4  C   UNL     1     141.885 125.821  97.815  0.00  0.00    +0.000 A 
ATOM      5  C   UNL     1     141.290 124.645  99.897  0.00  0.00    +0.000 A 
ATOM      6  C   UNL     1     141.303 124.759  97.109  0.00  0.00    +0.000 A 
ATOM      7  C   UNL     1     140.712 123.613  99.162  0.00  0.00    +0.000 A 
ATOM      8  C   UNL     1     140.723 123.678  97.775  0.00  0.00    +0.000 A 
ENDROOT
BRANCH   3  14
ATOM      9  O   UNL     1     141.926 127.880 100.137  0.00  0.00    +0.000 OA
ATOM     10  N   UNL     1     143.751 126.538 100.547  0.00  0.00    +0.000 N 
ATOM     11  C   UNL     1     145.736 126.961 100.061  0.00  0.00    +0.000 C 
ATOM     12  C   UNL     1     144.812 125.712  99.974  0.00  0.00    +0.000 C 
ATOM     13  C   UNL     1     144.686 127.539 101.056  0.00  0.00    +0.000 C 
ATOM     14  C   UNL     1     142.506 126.805 100.023  0.00  0.00    +0.000 C 
BRANCH  11  16
ATOM     15  N   UNL     1     146.961 128.819  98.967  0.00  0.00    +0.000 NA
ATOM     16  C   UNL     1     145.874 127.824  98.779  0.00  0.00    +0.000 C 
ATOM     17  C   UNL     1     146.188 126.958  97.546  0.00  0.00    +0.000 C 
ATOM     18  C   UNL     1     146.347 127.824  96.295  0.00  0.00    +0.000 C 
ATOM     19  C   UNL     1     147.021 129.724  97.810  0.00  0.00    +0.000 C 
ATOM     20  C   UNL     1     147.341 128.957  96.528  0.00  0.00    +0.000 C 
ATOM     21  H   UNL     1     147.849 128.311  98.993  0.00  0.00    +0.000 HD
ENDBRANCH  11  16
BRANCH  11  22
ATOM     22  O   UNL     1     147.050 126.711 100.641  0.00  0.00    +0.000 OA
ATOM     23  H   UNL     1     147.004 125.770 100.892  0.00  0.00    +0.000 HD
ENDBRANCH  11  22
ENDBRANCH   3  14
BRANCH   4  24
ATOM     24  N   UNL     1     142.538 126.901  97.182  0.00  0.00    +0.000 N 
ATOM     25  H   UNL     1     143.467 127.103  97.571  0.00  0.00    +0.000 HD
BRANCH  24  28
ATOM     26  I   UNL     1     141.163 130.158  91.967  0.00  0.00    +0.000 I 
ATOM     27  F   UNL     1     140.655 128.890  97.152  0.00  0.00    +0.000 F 
ATOM     28  C   UNL     1     142.276 127.604  95.992  0.00  0.00    +0.000 A 
ATOM     29  C   UNL     1     141.292 128.610  96.003  0.00  0.00    +0.000 A 
ATOM     30  C   UNL     1     142.916 127.345  94.777  0.00  0.00    +0.000 A 
ATOM     31  C   UNL     1     140.962 129.344  94.867  0.00  0.00    +0.000 A 
ATOM     32  C   UNL     1     142.595 128.074  93.624  0.00  0.00    +0.000 A 
ATOM     33  C   UNL     1     141.622 129.071  93.675  0.00  0.00    +0.000 A 
ENDBRANCH  24  28
ENDBRANCH   4  24
TORSDOF 5
ENDMDL
MODEL 3
REMARK VINA RESULT:      -7.2      1.804      2.168
REMARK  Name = 
REMARK  5 active torsions:
REMARK  status: ('A' for Active; 'I' for Inactive)
REMARK    1  A    between atoms: O_5  and  C_10
REMARK    2  A    between atoms: N_9  and  C_20
REMARK    3  A    between atoms: N_9  and  C_25
REMARK    4  A    between atoms: C_10  and  C_11
REMARK    5  A    between atoms: C_18  and  C_19
REMARK                            x       y       z     vdW  Elec       q    Type
REMARK                         _______ _______ _______ _____ _____    ______ ____
ROOT
ATOM      1  F   UNL     1     140.272 124.253  99.112  0.00  0.00    +0.000 F 
ATOM      2  F   UNL     1     138.933 124.572 101.434  0.00  0.00    +0.000 F 
ATOM      3  C   UNL     1     142.202 126.929 100.647  0.00  0.00    +0.000 A 
ATOM      4  C   UNL     1     141.821 125.970  99.682  0.00  0.00    +0.000 A 
ATOM      5  C   UNL     1     141.491 127.099 101.847  0.00  0.00    +0.000 A 
ATOM      6  C   UNL     1     140.707 125.175  99.984  0.00  0.00    +0.000 A 
ATOM      7  C   UNL     1     140.383 126.298 102.109  0.00  0.00    +0.000 A 
ATOM      8  C   UNL     1     139.999 125.343 101.175  0.00  0.00    +0.000 A 
ENDROOT
BRANCH   3  14
ATOM      9  O   UNL     1     143.293 128.732  99.645  0.00  0.00    +0.000 OA
ATOM     10  N   UNL     1     144.567 127.379 101.004  0.00  0.00    +0.000 N 
ATOM     11  C   UNL     1     146.295 126.345 100.457  0.00  0.00    +0.000 C 
ATOM     12  C   UNL     1     145.023 126.021 101.292  0.00  0.00    +0.000 C 
ATOM     13  C   UNL     1     145.903 127.842 100.634  0.00  0.00    +0.000 C 
ATOM     14  C   UNL     1     143.393 127.771 100.401  0.00  0.00    +0.000 C 
BRANCH  11  16
ATOM     15  N   UNL     1     147.371 126.616  98.239  0.00  0.00    +0.000 NA
ATOM     16  C   UNL     1     146.290 125.904  98.969  0.00  0.00    +0.000 C 
ATOM     17  C   UNL     1     146.500 124.386  98.829  0.00  0.00    +0.000 C 
ATOM     18  C   UNL     1     146.520 123.970  97.358  0.00  0.00    +0.000 C 
ATOM     19  C   UNL     1     147.299 126.303  96.805  0.00  0.00    +0.000 C 
ATOM     20  C   UNL     1     147.509 124.810  96.557  0.00  0.00    +0.000 C 
ATOM     21  H   UNL     1     148.267 126.256  98.578  0.00  0.00    +0.000 HD
ENDBRANCH  11  16
BRANCH  11  22
ATOM     22  O   UNL     1     147.554 125.968 101.087  0.00  0.00    +0.000 OA
ATOM     23  H   UNL     1     147.265 125.495 101.891  0.00  0.00    +0.000 HD
ENDBRANCH  11  22
ENDBRANCH   3  14
BRANCH   4  24
ATOM     24  N   UNL     1     142.603 125.792  98.520  0.00  0.00    +0.000 N 
ATOM     25  H   UNL     1     143.217 126.588  98.312  0.00  0.00    +0.000 HD
BRANCH  24  28
ATOM     26  I   UNL     1     143.790 120.887  94.747  0.00  0.00    +0.000 I 
ATOM     27  F   UNL     1     142.882 126.063  95.809  0.00  0.00    +0.000 F 
ATOM     28  C   UNL     1     142.877 124.664  97.723  0.00  0.00    +0.000 A 
ATOM     29  C   UNL     1     142.999 124.832  96.332  0.00  0.00    +0.000 A 
ATOM     30  C   UNL     1     143.008 123.368  98.228  0.00  0.00    +0.000 A 
ATOM     31  C   UNL     1     143.256 123.769  95.471  0.00  0.00    +0.000 A 
ATOM     32  C   UNL     1     143.266 122.285  97.375  0.00  0.00    +0.000 A 
ATOM     33  C   UNL     1     143.392 122.491  96.002  0.00  0.00    +0.000 A 
ENDBRANCH  24  28
ENDBRANCH   4  24
TORSDOF 5
ENDMDL
MODEL 4
REMARK VINA RESULT:      -6.7      2.839      4.816
REMARK  Name = 
REMARK  5 active torsions:
REMARK  status: ('A' for Active; 'I' for Inactive)
REMARK    1  A    between atoms: O_5  and  C_10
REMARK    2  A    between atoms: N_9  and  C_20
REMARK    3  A    between atoms: N_9  and  C_25
REMARK    4  A    between atoms: C_10  and  C_11
REMARK    5  A    between atoms: C_18  and  C_19
REMARK                            x       y       z     vdW  Elec       q    Type
REMARK                         _______ _______ _______ _____ _____    ______ ____
ROOT
ATOM      1  F   UNL     1     142.069 123.733  95.137  0.00  0.00    +0.000 F 
ATOM      2  F   UNL     1     144.073 122.230  96.144  0.00  0.00    +0.000 F 
ATOM      3  C   UNL     1     143.085 125.770  97.976  0.00  0.00    +0.000 A 
ATOM      4  C   UNL     1     142.356 125.385  96.828  0.00  0.00    +0.000 A 
ATOM      5  C   UNL     1     144.117 124.975  98.502  0.00  0.00    +0.000 A 
ATOM      6  C   UNL     1     142.723 124.176  96.221  0.00  0.00    +0.000 A 
ATOM      7  C   UNL     1     144.448 123.776  97.878  0.00  0.00    +0.000 A 
ATOM      8  C   UNL     1     143.748 123.385  96.743  0.00  0.00    +0.000 A 
ENDROOT
BRANCH   3  14
ATOM      9  O   UNL     1     143.238 128.090  98.180  0.00  0.00    +0.000 OA
ATOM     10  N   UNL     1     141.995 126.992  99.776  0.00  0.00    +0.000 N 
ATOM     11  C   UNL     1     142.308 127.035 101.839  0.00  0.00    +0.000 C 
ATOM     12  C   UNL     1     141.966 125.940 100.790  0.00  0.00    +0.000 C 
ATOM     13  C   UNL     1     141.854 128.064 100.760  0.00  0.00    +0.000 C 
ATOM     14  C   UNL     1     142.767 127.054  98.637  0.00  0.00    +0.000 C 
BRANCH  11  16
ATOM     15  N   UNL     1     143.906 127.713 103.610  0.00  0.00    +0.000 NA
ATOM     16  C   UNL     1     143.804 127.200 102.220  0.00  0.00    +0.000 C 
ATOM     17  C   UNL     1     144.564 125.867 102.116  0.00  0.00    +0.000 C 
ATOM     18  C   UNL     1     146.029 126.039 102.520  0.00  0.00    +0.000 C 
ATOM     19  C   UNL     1     145.311 127.993 103.942  0.00  0.00    +0.000 C 
ATOM     20  C   UNL     1     146.153 126.720 103.878  0.00  0.00    +0.000 C 
ATOM     21  H   UNL     1     143.593 126.971 104.242  0.00  0.00    +0.000 HD
ENDBRANCH  11  16
BRANCH  11  22
ATOM     22  O   UNL     1     141.485 127.011 103.041  0.00  0.00    +0.000 OA
ATOM     23  H   UNL     1     142.009 126.464 103.656  0.00  0.00    +0.000 HD
ENDBRANCH  11  22
ENDBRANCH   3  14
BRANCH   4  24
ATOM     24  N   UNL     1     141.370 126.245  96.298  0.00  0.00    +0.000 N 
ATOM     25  H   UNL     1     140.532 126.319  96.886  0.00  0.00    +0.000 HD
BRANCH  24  28
ATOM     26  I   UNL     1     141.356 130.631  91.774  0.00  0.00    +0.000 I 
ATOM     27  F   UNL     1     140.582 128.827  96.764  0.00  0.00    +0.000 F 
ATOM     28  C   UNL     1     141.395 127.189  95.254  0.00  0.00    +0.000 A 
ATOM     29  C   UNL     1     140.969 128.503  95.519  0.00  0.00    +0.000 A 
ATOM     30  C   UNL     1     141.792 126.893  93.947  0.00  0.00    +0.000 A 
ATOM     31  C   UNL     1     140.950 129.494  94.541  0.00  0.00    +0.000 A 
ATOM     32  C   UNL     1     141.778 127.878  92.950  0.00  0.00    +0.000 A 
ATOM     33  C   UNL     1     141.360 129.174  93.252  0.00  0.00    +0.000 A 
ENDBRANCH  24  28
ENDBRANCH   4  24
TORSDOF 5
ENDMDL
MODEL 5
REMARK VINA RESULT:      -5.7     13.526     15.775
REMARK  Name = 
REMARK  5 active torsions:
REMARK  status: ('A' for Active; 'I' for Inactive)
REMARK    1  A    between atoms: O_5  and  C_10
REMARK    2  A    between atoms: N_9  and  C_20
REMARK    3  A    between atoms: N_9  and  C_25
REMARK    4  A    between atoms: C_10  and  C_11
REMARK    5  A    between atoms: C_18  and  C_19
REMARK                            x       y       z     vdW  Elec       q    Type
REMARK                         _______ _______ _______ _____ _____    ______ ____
ROOT
ATOM      1  F   UNL     1     145.614 115.244 105.470  0.00  0.00    +0.000 F 
ATOM      2  F   UNL     1     143.171 114.769 104.424  0.00  0.00    +0.000 F 
ATOM      3  C   UNL     1     143.654 114.787 108.502  0.00  0.00    +0.000 A 
ATOM      4  C   UNL     1     144.787 115.029 107.693  0.00  0.00    +0.000 A 
ATOM      5  C   UNL     1     142.383 114.556 107.950  0.00  0.00    +0.000 A 
ATOM      6  C   UNL     1     144.591 115.007 106.305  0.00  0.00    +0.000 A 
ATOM      7  C   UNL     1     142.224 114.551 106.567  0.00  0.00    +0.000 A 
ATOM      8  C   UNL     1     143.329 114.777 105.756  0.00  0.00    +0.000 A 
ENDROOT
BRANCH   3  14
ATOM      9  O   UNL     1     143.888 113.676 110.541  0.00  0.00    +0.000 OA
ATOM     10  N   UNL     1     143.792 115.975 110.621  0.00  0.00    +0.000 N 
ATOM     11  C   UNL     1     142.411 117.123 111.684  0.00  0.00    +0.000 C 
ATOM     12  C   UNL     1     143.044 117.179 110.264  0.00  0.00    +0.000 C 
ATOM     13  C   UNL     1     143.582 116.165 112.055  0.00  0.00    +0.000 C 
ATOM     14  C   UNL     1     143.807 114.760 109.973  0.00  0.00    +0.000 C 
BRANCH  11  16
ATOM     15  N   UNL     1     140.916 115.777 113.134  0.00  0.00    +0.000 NA
ATOM     16  C   UNL     1     141.024 116.438 111.808  0.00  0.00    +0.000 C 
ATOM     17  C   UNL     1     139.877 117.452 111.654  0.00  0.00    +0.000 C 
ATOM     18  C   UNL     1     138.517 116.768 111.805  0.00  0.00    +0.000 C 
ATOM     19  C   UNL     1     139.659 115.020 113.218  0.00  0.00    +0.000 C 
ATOM     20  C   UNL     1     138.450 115.945 113.087  0.00  0.00    +0.000 C 
ATOM     21  H   UNL     1     140.869 116.510 113.847  0.00  0.00    +0.000 HD
ENDBRANCH  11  16
BRANCH  11  22
ATOM     22  O   UNL     1     142.410 118.390 112.405  0.00  0.00    +0.000 OA
ATOM     23  H   UNL     1     142.116 118.134 113.299  0.00  0.00    +0.000 HD
ENDBRANCH  11  22
ENDBRANCH   3  14
BRANCH   4  24
ATOM     24  N   UNL     1     146.056 115.194 108.290  0.00  0.00    +0.000 N 
ATOM     25  H   UNL     1     146.066 115.885 109.049  0.00  0.00    +0.000 HD
BRANCH  24  28
ATOM     26  I   UNL     1     151.482 112.032 107.774  0.00  0.00    +0.000 I 
ATOM     27  F   UNL     1     148.254 116.250 107.043  0.00  0.00    +0.000 F 
ATOM     28  C   UNL     1     147.247 114.448 108.210  0.00  0.00    +0.000 A 
ATOM     29  C   UNL     1     148.355 115.011 107.550  0.00  0.00    +0.000 A 
ATOM     30  C   UNL     1     147.394 113.158 108.726  0.00  0.00    +0.000 A 
ATOM     31  C   UNL     1     149.566 114.337 107.415  0.00  0.00    +0.000 A 
ATOM     32  C   UNL     1     148.606 112.464 108.598  0.00  0.00    +0.000 A 
ATOM     33  C   UNL     1     149.686 113.058 107.946  0.00  0.00    +0.000 A 
ENDBRANCH  24  28
ENDBRANCH   4  24
TORSDOF 5
ENDMDL
MODEL 6
REMARK VINA RESULT:      -5.6     14.026     16.215
REMARK  Name = 
REMARK  5 active torsions:
REMARK  status: ('A' for Active; 'I' for Inactive)
REMARK    1  A    between atoms: O_5  and  C_10
REMARK    2  A    between atoms: N_9  and  C_20
REMARK    3  A    between atoms: N_9  and  C_25
REMARK    4  A    between atoms: C_10  and  C_11
REMARK    5  A    between atoms: C_18  and  C_19
REMARK                            x       y       z     vdW  Elec       q    Type
REMARK                         _______ _______ _______ _____ _____    ______ ____
ROOT
ATOM      1  F   UNL     1     141.842 113.286 113.163  0.00  0.00    +0.000 F 
ATOM      2  F   UNL     1     144.371 112.900 114.025  0.00  0.00    +0.000 F 
ATOM      3  C   UNL     1     143.700 115.214 110.699  0.00  0.00    +0.000 A 
ATOM      4  C   UNL     1     142.586 114.642 111.352  0.00  0.00    +0.000 A 
ATOM      5  C   UNL     1     145.013 115.020 111.162  0.00  0.00    +0.000 A 
ATOM      6  C   UNL     1     142.848 113.851 112.478  0.00  0.00    +0.000 A 
ATOM      7  C   UNL     1     145.235 114.236 112.291  0.00  0.00    +0.000 A 
ATOM      8  C   UNL     1     144.151 113.658 112.940  0.00  0.00    +0.000 A 
ENDROOT
BRANCH   3  14
ATOM      9  O   UNL     1     143.061 117.172 109.601  0.00  0.00    +0.000 OA
ATOM     10  N   UNL     1     143.738 115.416 108.274  0.00  0.00    +0.000 N 
ATOM     11  C   UNL     1     142.623 114.498 106.768  0.00  0.00    +0.000 C 
ATOM     12  C   UNL     1     143.549 114.011 107.918  0.00  0.00    +0.000 C 
ATOM     13  C   UNL     1     143.277 115.897 106.973  0.00  0.00    +0.000 C 
ATOM     14  C   UNL     1     143.489 116.028 109.482  0.00  0.00    +0.000 C 
BRANCH  11  16
ATOM     15  N   UNL     1     140.358 114.670 105.772  0.00  0.00    +0.000 NA
ATOM     16  C   UNL     1     141.097 114.512 107.051  0.00  0.00    +0.000 C 
ATOM     17  C   UNL     1     140.639 113.215 107.743  0.00  0.00    +0.000 C 
ATOM     18  C   UNL     1     139.130 113.231 107.991  0.00  0.00    +0.000 C 
ATOM     19  C   UNL     1     138.919 114.810 106.037  0.00  0.00    +0.000 C 
ATOM     20  C   UNL     1     138.362 113.560 106.716  0.00  0.00    +0.000 C 
ATOM     21  H   UNL     1     140.479 113.809 105.232  0.00  0.00    +0.000 HD
ENDBRANCH  11  16
BRANCH  11  22
ATOM     22  O   UNL     1     142.886 113.888 105.470  0.00  0.00    +0.000 OA
ATOM     23  H   UNL     1     143.237 113.009 105.708  0.00  0.00    +0.000 HD
ENDBRANCH  11  22
ENDBRANCH   3  14
BRANCH   4  24
ATOM     24  N   UNL     1     141.291 114.812 110.814  0.00  0.00    +0.000 N 
ATOM     25  H   UNL     1     141.180 114.406 109.877  0.00  0.00    +0.000 HD
BRANCH  24  28
ATOM     26  I   UNL     1     135.942 116.853 113.444  0.00  0.00    +0.000 I 
ATOM     27  F   UNL     1     140.999 117.373 111.741  0.00  0.00    +0.000 F 
ATOM     28  C   UNL     1     140.071 115.220 111.385  0.00  0.00    +0.000 A 
ATOM     29  C   UNL     1     139.956 116.536 111.867  0.00  0.00    +0.000 A 
ATOM     30  C   UNL     1     138.962 114.382 111.532  0.00  0.00    +0.000 A 
ATOM     31  C   UNL     1     138.790 117.016 112.457  0.00  0.00    +0.000 A 
ATOM     32  C   UNL     1     137.781 114.848 112.125  0.00  0.00    +0.000 A 
ATOM     33  C   UNL     1     137.699 116.163 112.582  0.00  0.00    +0.000 A 
ENDBRANCH  24  28
ENDBRANCH   4  24
TORSDOF 5
ENDMDL
MODEL 7
REMARK VINA RESULT:      -5.6     15.526     17.628
REMARK  Name = 
REMARK  5 active torsions:
REMARK  status: ('A' for Active; 'I' for Inactive)
REMARK    1  A    between atoms: O_5  and  C_10
REMARK    2  A    between atoms: N_9  and  C_20
REMARK    3  A    between atoms: N_9  and  C_25
REMARK    4  A    between atoms: C_10  and  C_11
REMARK    5  A    between atoms: C_18  and  C_19
REMARK                            x       y       z     vdW  Elec       q    Type
REMARK                         _______ _______ _______ _____ _____    ______ ____
ROOT
ATOM      1  F   UNL     1     136.692 114.506 114.105  0.00  0.00    +0.000 F 
ATOM      2  F   UNL     1     135.677 113.695 111.738  0.00  0.00    +0.000 F 
ATOM      3  C   UNL     1     139.248 115.721 111.817  0.00  0.00    +0.000 A 
ATOM      4  C   UNL     1     138.590 115.477 113.043  0.00  0.00    +0.000 A 
ATOM      5  C   UNL     1     138.720 115.282 110.590  0.00  0.00    +0.000 A 
ATOM      6  C   UNL     1     137.370 114.791 112.982  0.00  0.00    +0.000 A 
ATOM      7  C   UNL     1     137.510 114.595 110.569  0.00  0.00    +0.000 A 
ATOM      8  C   UNL     1     136.844 114.354 111.765  0.00  0.00    +0.000 A 
ENDROOT
BRANCH   3  14
ATOM      9  O   UNL     1     140.488 117.696 111.731  0.00  0.00    +0.000 OA
ATOM     10  N   UNL     1     141.681 115.731 111.853  0.00  0.00    +0.000 N 
ATOM     11  C   UNL     1     143.112 115.062 110.489  0.00  0.00    +0.000 C 
ATOM     12  C   UNL     1     141.930 114.416 111.267  0.00  0.00    +0.000 C 
ATOM     13  C   UNL     1     143.013 116.229 111.516  0.00  0.00    +0.000 C 
ATOM     14  C   UNL     1     140.521 116.473 111.815  0.00  0.00    +0.000 C 
BRANCH  11  16
ATOM     15  N   UNL     1     144.096 115.963 108.399  0.00  0.00    +0.000 NA
ATOM     16  C   UNL     1     142.827 115.527 109.036  0.00  0.00    +0.000 C 
ATOM     17  C   UNL     1     142.199 114.402 108.195  0.00  0.00    +0.000 C 
ATOM     18  C   UNL     1     141.948 114.866 106.760  0.00  0.00    +0.000 C 
ATOM     19  C   UNL     1     143.823 116.523 107.067  0.00  0.00    +0.000 C 
ATOM     20  C   UNL     1     143.205 115.473 106.146  0.00  0.00    +0.000 C 
ATOM     21  H   UNL     1     144.678 115.133 108.259  0.00  0.00    +0.000 HD
ENDBRANCH  11  16
BRANCH  11  22
ATOM     22  O   UNL     1     144.361 114.312 110.539  0.00  0.00    +0.000 OA
ATOM     23  H   UNL     1     144.847 114.743 111.266  0.00  0.00    +0.000 HD
ENDBRANCH  11  22
ENDBRANCH   3  14
BRANCH   4  24
ATOM     24  N   UNL     1     139.126 115.991 114.244  0.00  0.00    +0.000 N 
ATOM     25  H   UNL     1     139.160 117.017 114.272  0.00  0.00    +0.000 HD
BRANCH  24  28
ATOM     26  I   UNL     1     140.594 113.215 119.707  0.00  0.00    +0.000 I 
ATOM     27  F   UNL     1     141.447 114.577 114.592  0.00  0.00    +0.000 F 
ATOM     28  C   UNL     1     139.410 115.398 115.488  0.00  0.00    +0.000 A 
ATOM     29  C   UNL     1     140.602 114.664 115.632  0.00  0.00    +0.000 A 
ATOM     30  C   UNL     1     138.560 115.466 116.595  0.00  0.00    +0.000 A 
ATOM     31  C   UNL     1     140.953 114.036 116.824  0.00  0.00    +0.000 A 
ATOM     32  C   UNL     1     138.897 114.838 117.802  0.00  0.00    +0.000 A 
ATOM     33  C   UNL     1     140.093 114.129 117.912  0.00  0.00    +0.000 A 
ENDBRANCH  24  28
ENDBRANCH   4  24
TORSDOF 5
ENDMDL
MODEL 8
REMARK VINA RESULT:      -5.6     28.002     30.706
REMARK  Name = 
REMARK  5 active torsions:
REMARK  status: ('A' for Active; 'I' for Inactive)
REMARK    1  A    between atoms: O_5  and  C_10
REMARK    2  A    between atoms: N_9  and  C_20
REMARK    3  A    between atoms: N_9  and  C_25
REMARK    4  A    between atoms: C_10  and  C_11
REMARK    5  A    between atoms: C_18  and  C_19
REMARK                            x       y       z     vdW  Elec       q    Type
REMARK                         _______ _______ _______ _____ _____    ______ ____
ROOT
ATOM      1  F   UNL     1     150.373 137.675 124.569  0.00  0.00    +0.000 F 
ATOM      2  F   UNL     1     150.156 137.081 121.945  0.00  0.00    +0.000 F 
ATOM      3  C   UNL     1     149.289 134.206 124.746  0.00  0.00    +0.000 A 
ATOM      4  C   UNL     1     149.697 135.480 125.199  0.00  0.00    +0.000 A 
ATOM      5  C   UNL     1     149.164 133.909 123.378  0.00  0.00    +0.000 A 
ATOM      6  C   UNL     1     149.994 136.437 124.219  0.00  0.00    +0.000 A 
ATOM      7  C   UNL     1     149.458 134.887 122.432  0.00  0.00    +0.000 A 
ATOM      8  C   UNL     1     149.871 136.143 122.860  0.00  0.00    +0.000 A 
ENDROOT
BRANCH   3  14
ATOM      9  O   UNL     1     147.937 133.180 126.348  0.00  0.00    +0.000 OA
ATOM     10  N   UNL     1     149.980 132.202 125.940  0.00  0.00    +0.000 N 
ATOM     11  C   UNL     1     151.487 131.846 127.339  0.00  0.00    +0.000 C 
ATOM     12  C   UNL     1     151.429 132.380 125.880  0.00  0.00    +0.000 C 
ATOM     13  C   UNL     1     150.053 131.294 127.083  0.00  0.00    +0.000 C 
ATOM     14  C   UNL     1     148.998 133.144 125.734  0.00  0.00    +0.000 C 
BRANCH  11  16
ATOM     15  N   UNL     1     150.775 132.387 129.652  0.00  0.00    +0.000 NA
ATOM     16  C   UNL     1     151.520 132.903 128.475  0.00  0.00    +0.000 C 
ATOM     17  C   UNL     1     152.962 133.237 128.894  0.00  0.00    +0.000 C 
ATOM     18  C   UNL     1     152.978 134.260 130.031  0.00  0.00    +0.000 C 
ATOM     19  C   UNL     1     150.692 133.426 130.689  0.00  0.00    +0.000 C 
ATOM     20  C   UNL     1     152.082 133.821 131.184  0.00  0.00    +0.000 C 
ATOM     21  H   UNL     1     151.315 131.614 130.049  0.00  0.00    +0.000 HD
ENDBRANCH  11  16
BRANCH  11  22
ATOM     22  O   UNL     1     152.498 130.823 127.577  0.00  0.00    +0.000 OA
ATOM     23  H   UNL     1     152.640 130.876 128.541  0.00  0.00    +0.000 HD
ENDBRANCH  11  22
ENDBRANCH   3  14
BRANCH   4  24
ATOM     24  N   UNL     1     149.869 135.714 126.581  0.00  0.00    +0.000 N 
ATOM     25  H   UNL     1     150.614 135.147 127.003  0.00  0.00    +0.000 HD
BRANCH  24  28
ATOM     26  I   UNL     1     147.888 140.139 130.605  0.00  0.00    +0.000 I 
ATOM     27  F   UNL     1     151.249 136.343 128.862  0.00  0.00    +0.000 F 
ATOM     28  C   UNL     1     149.387 136.717 127.442  0.00  0.00    +0.000 A 
ATOM     29  C   UNL     1     150.109 137.008 128.614  0.00  0.00    +0.000 A 
ATOM     30  C   UNL     1     148.208 137.433 127.220  0.00  0.00    +0.000 A 
ATOM     31  C   UNL     1     149.696 137.976 129.525  0.00  0.00    +0.000 A 
ATOM     32  C   UNL     1     147.776 138.410 128.127  0.00  0.00    +0.000 A 
ATOM     33  C   UNL     1     148.523 138.679 129.274  0.00  0.00    +0.000 A 
ENDBRANCH  24  28
ENDBRANCH   4  24
TORSDOF 5
ENDMDL
MODEL 9
REMARK VINA RESULT:      -5.3     27.923     29.092
REMARK  Name = 
REMARK  5 active torsions:
REMARK  status: ('A' for Active; 'I' for Inactive)
REMARK    1  A    between atoms: O_5  and  C_10
REMARK    2  A    between atoms: N_9  and  C_20
REMARK    3  A    between atoms: N_9  and  C_25
REMARK    4  A    between atoms: C_10  and  C_11
REMARK    5  A    between atoms: C_18  and  C_19
REMARK                            x       y       z     vdW  Elec       q    Type
REMARK                         _______ _______ _______ _____ _____    ______ ____
ROOT
ATOM      1  F   UNL     1     150.236 132.122 124.157  0.00  0.00    +0.000 F 
ATOM      2  F   UNL     1     148.390 132.008 126.123  0.00  0.00    +0.000 F 
ATOM      3  C   UNL     1     152.377 132.126 127.099  0.00  0.00    +0.000 A 
ATOM      4  C   UNL     1     152.022 132.143 125.732  0.00  0.00    +0.000 A 
ATOM      5  C   UNL     1     151.409 132.081 128.118  0.00  0.00    +0.000 A 
ATOM      6  C   UNL     1     150.654 132.093 125.431  0.00  0.00    +0.000 A 
ATOM      7  C   UNL     1     150.059 132.042 127.781  0.00  0.00    +0.000 A 
ATOM      8  C   UNL     1     149.692 132.049 126.441  0.00  0.00    +0.000 A 
ENDROOT
BRANCH   3  14
ATOM      9  O   UNL     1     154.476 133.138 127.233  0.00  0.00    +0.000 OA
ATOM     10  N   UNL     1     154.312 130.987 128.037  0.00  0.00    +0.000 N 
ATOM     11  C   UNL     1     155.420 129.337 127.400  0.00  0.00    +0.000 C 
ATOM     12  C   UNL     1     153.930 129.605 127.756  0.00  0.00    +0.000 C 
ATOM     13  C   UNL     1     155.731 130.661 128.161  0.00  0.00    +0.000 C 
ATOM     14  C   UNL     1     153.807 132.139 127.477  0.00  0.00    +0.000 C 
BRANCH  11  16
ATOM     15  N   UNL     1     157.282 129.283 125.763  0.00  0.00    +0.000 NA
ATOM     16  C   UNL     1     155.808 129.413 125.899  0.00  0.00    +0.000 C 
ATOM     17  C   UNL     1     155.125 128.302 125.082  0.00  0.00    +0.000 C 
ATOM     18  C   UNL     1     155.538 128.372 123.611  0.00  0.00    +0.000 C 
ATOM     19  C   UNL     1     157.676 129.478 124.360  0.00  0.00    +0.000 C 
ATOM     20  C   UNL     1     157.055 128.410 123.462  0.00  0.00    +0.000 C 
ATOM     21  H   UNL     1     157.537 128.325 126.013  0.00  0.00    +0.000 HD
ENDBRANCH  11  16
BRANCH  11  22
ATOM     22  O   UNL     1     155.989 128.140 128.005  0.00  0.00    +0.000 OA
ATOM     23  H   UNL     1     155.199 127.634 128.276  0.00  0.00    +0.000 HD
ENDBRANCH  11  22
ENDBRANCH   3  14
BRANCH   4  24
ATOM     24  N   UNL     1     153.030 132.125 124.743  0.00  0.00    +0.000 N 
ATOM     25  H   UNL     1     153.229 131.186 124.378  0.00  0.00    +0.000 HD
BRANCH  24  28
ATOM     26  I   UNL     1     156.008 136.544 121.380  0.00  0.00    +0.000 I 
ATOM     27  F   UNL     1     155.307 131.593 123.316  0.00  0.00    +0.000 F 
ATOM     28  C   UNL     1     153.651 133.147 124.001  0.00  0.00    +0.000 A 
ATOM     29  C   UNL     1     154.828 132.847 123.290  0.00  0.00    +0.000 A 
ATOM     30  C   UNL     1     153.185 134.463 123.946  0.00  0.00    +0.000 A 
ATOM     31  C   UNL     1     155.512 133.802 122.542  0.00  0.00    +0.000 A 
ATOM     32  C   UNL     1     153.861 135.437 123.199  0.00  0.00    +0.000 A 
ATOM     33  C   UNL     1     155.019 135.101 122.498  0.00  0.00    +0.000 A 
ENDBRANCH  24  28
ENDBRANCH   4  24
TORSDOF 5
ENDMDL
