MODEL 1
REMARK VINA RESULT:      -7.7      0.000      0.000
REMARK  Name = COUMESTROL.pdbqt.pdb
REMARK  2 active torsions:
REMARK  status: ('A' for Active; 'I' for Inactive)
REMARK    1  A    between atoms: C_16  and  O_19
REMARK    2  A    between atoms: C_18  and  O_21
REMARK                            x       y       z     vdW  Elec       q    Type
REMARK                         _______ _______ _______ _____ _____    ______ ____
ROOT
ATOM      1  O   UNL     1     140.070 124.085 135.583  0.00  0.00    +0.000 OA
ATOM      2  O   UNL     1     137.741 124.628 132.272  0.00  0.00    +0.000 OA
ATOM      3  O   UNL     1     138.868 126.613 131.914  0.00  0.00    +0.000 OA
ATOM      4  C   UNL     1     139.490 125.332 133.789  0.00  0.00    +0.000 A 
ATOM      5  C   UNL     1     139.260 124.187 134.507  0.00  0.00    +0.000 A 
ATOM      6  C   UNL     1     140.532 126.011 134.467  0.00  0.00    +0.000 A 
ATOM      7  C   UNL     1     138.286 123.187 134.192  0.00  0.00    +0.000 A 
ATOM      8  C   UNL     1     140.855 125.205 135.563  0.00  0.00    +0.000 A 
ATOM      9  C   UNL     1     137.525 123.444 133.042  0.00  0.00    +0.000 A 
ATOM     10  C   UNL     1     138.715 125.611 132.602  0.00  0.00    +0.000 A 
ATOM     11  C   UNL     1     141.239 127.210 134.283  0.00  0.00    +0.000 A 
ATOM     12  C   UNL     1     138.063 122.030 134.929  0.00  0.00    +0.000 A 
ATOM     13  C   UNL     1     141.842 125.510 136.500  0.00  0.00    +0.000 A 
ATOM     14  C   UNL     1     136.541 122.563 132.611  0.00  0.00    +0.000 A 
ATOM     15  C   UNL     1     142.236 127.547 135.204  0.00  0.00    +0.000 A 
ATOM     16  C   UNL     1     142.522 126.711 136.281  0.00  0.00    +0.000 A 
ATOM     17  C   UNL     1     137.078 121.137 134.508  0.00  0.00    +0.000 A 
ATOM     18  C   UNL     1     136.330 121.409 133.359  0.00  0.00    +0.000 A 
ENDROOT
BRANCH  16  19
ATOM     19  O   UNL     1     143.510 127.103 137.143  0.00  0.00    +0.000 OA
ATOM     20  H   UNL     1     144.170 127.613 136.642  0.00  0.00    +0.000 HD
ENDBRANCH  16  19
BRANCH  18  21
ATOM     21  O   UNL     1     135.364 120.539 132.941  0.00  0.00    +0.000 OA
ATOM     22  H   UNL     1     135.172 120.718 132.003  0.00  0.00    +0.000 HD
ENDBRANCH  18  21
TORSDOF 2
ENDMDL
MODEL 2
REMARK VINA RESULT:      -7.3     32.303     34.439
REMARK  Name = COUMESTROL.pdbqt.pdb
REMARK  2 active torsions:
REMARK  status: ('A' for Active; 'I' for Inactive)
REMARK    1  A    between atoms: C_16  and  O_19
REMARK    2  A    between atoms: C_18  and  O_21
REMARK                            x       y       z     vdW  Elec       q    Type
REMARK                         _______ _______ _______ _____ _____    ______ ____
ROOT
ATOM      1  O   UNL     1     142.884 125.232 101.192  0.00  0.00    +0.000 OA
ATOM      2  O   UNL     1     146.877 124.519 100.712  0.00  0.00    +0.000 OA
ATOM      3  O   UNL     1     146.334 123.213  98.885  0.00  0.00    +0.000 OA
ATOM      4  C   UNL     1     144.566 124.238 100.054  0.00  0.00    +0.000 A 
ATOM      5  C   UNL     1     144.219 125.047 101.105  0.00  0.00    +0.000 A 
ATOM      6  C   UNL     1     143.348 123.880  99.424  0.00  0.00    +0.000 A 
ATOM      7  C   UNL     1     145.132 125.651 102.029  0.00  0.00    +0.000 A 
ATOM      8  C   UNL     1     142.343 124.515 100.160  0.00  0.00    +0.000 A 
ATOM      9  C   UNL     1     146.485 125.360 101.799  0.00  0.00    +0.000 A 
ATOM     10  C   UNL     1     145.955 123.929  99.804  0.00  0.00    +0.000 A 
ATOM     11  C   UNL     1     142.979 123.095  98.320  0.00  0.00    +0.000 A 
ATOM     12  C   UNL     1     144.767 126.470 103.090  0.00  0.00    +0.000 A 
ATOM     13  C   UNL     1     140.982 124.424  99.873  0.00  0.00    +0.000 A 
ATOM     14  C   UNL     1     147.486 125.874 102.614  0.00  0.00    +0.000 A 
ATOM     15  C   UNL     1     141.621 122.982  98.004  0.00  0.00    +0.000 A 
ATOM     16  C   UNL     1     140.656 123.634  98.768  0.00  0.00    +0.000 A 
ATOM     17  C   UNL     1     145.762 126.993 103.916  0.00  0.00    +0.000 A 
ATOM     18  C   UNL     1     147.105 126.692 103.672  0.00  0.00    +0.000 A 
ENDROOT
BRANCH  16  19
ATOM     19  O   UNL     1     139.346 123.480  98.401  0.00  0.00    +0.000 OA
ATOM     20  H   UNL     1     139.033 122.622  98.737  0.00  0.00    +0.000 HD
ENDBRANCH  16  19
BRANCH  18  21
ATOM     21  O   UNL     1     148.085 127.201 104.477  0.00  0.00    +0.000 OA
ATOM     22  H   UNL     1     148.736 126.499 104.651  0.00  0.00    +0.000 HD
ENDBRANCH  18  21
TORSDOF 2
ENDMDL
MODEL 3
REMARK VINA RESULT:      -7.3      2.299      4.044
REMARK  Name = COUMESTROL.pdbqt.pdb
REMARK  2 active torsions:
REMARK  status: ('A' for Active; 'I' for Inactive)
REMARK    1  A    between atoms: C_16  and  O_19
REMARK    2  A    between atoms: C_18  and  O_21
REMARK                            x       y       z     vdW  Elec       q    Type
REMARK                         _______ _______ _______ _____ _____    ______ ____
ROOT
ATOM      1  O   UNL     1     137.468 123.398 132.092  0.00  0.00    +0.000 OA
ATOM      2  O   UNL     1     135.995 121.766 135.534  0.00  0.00    +0.000 OA
ATOM      3  O   UNL     1     137.676 122.869 136.671  0.00  0.00    +0.000 OA
ATOM      4  C   UNL     1     137.580 123.146 134.335  0.00  0.00    +0.000 A 
ATOM      5  C   UNL     1     136.918 122.818 133.181  0.00  0.00    +0.000 A 
ATOM      6  C   UNL     1     138.637 124.006 133.945  0.00  0.00    +0.000 A 
ATOM      7  C   UNL     1     135.773 121.964 133.090  0.00  0.00    +0.000 A 
ATOM      8  C   UNL     1     138.526 124.130 132.557  0.00  0.00    +0.000 A 
ATOM      9  C   UNL     1     135.326 121.442 134.313  0.00  0.00    +0.000 A 
ATOM     10  C   UNL     1     137.132 122.617 135.603  0.00  0.00    +0.000 A 
ATOM     11  C   UNL     1     139.672 124.691 134.601  0.00  0.00    +0.000 A 
ATOM     12  C   UNL     1     135.111 121.640 131.912  0.00  0.00    +0.000 A 
ATOM     13  C   UNL     1     139.381 124.896 131.765  0.00  0.00    +0.000 A 
ATOM     14  C   UNL     1     134.225 120.598 134.382  0.00  0.00    +0.000 A 
ATOM     15  C   UNL     1     140.548 125.469 133.838  0.00  0.00    +0.000 A 
ATOM     16  C   UNL     1     140.397 125.562 132.456  0.00  0.00    +0.000 A 
ATOM     17  C   UNL     1     134.004 120.793 131.967  0.00  0.00    +0.000 A 
ATOM     18  C   UNL     1     133.573 120.282 133.195  0.00  0.00    +0.000 A 
ENDROOT
BRANCH  16  19
ATOM     19  O   UNL     1     141.290 126.342 131.772  0.00  0.00    +0.000 OA
ATOM     20  H   UNL     1     142.007 126.592 132.379  0.00  0.00    +0.000 HD
ENDBRANCH  16  19
BRANCH  18  21
ATOM     21  O   UNL     1     132.490 119.452 133.256  0.00  0.00    +0.000 OA
ATOM     22  H   UNL     1     132.798 118.535 133.149  0.00  0.00    +0.000 HD
ENDBRANCH  18  21
TORSDOF 2
ENDMDL
MODEL 4
REMARK VINA RESULT:      -7.2     33.034     34.913
REMARK  Name = COUMESTROL.pdbqt.pdb
REMARK  2 active torsions:
REMARK  status: ('A' for Active; 'I' for Inactive)
REMARK    1  A    between atoms: C_16  and  O_19
REMARK    2  A    between atoms: C_18  and  O_21
REMARK                            x       y       z     vdW  Elec       q    Type
REMARK                         _______ _______ _______ _____ _____    ______ ____
ROOT
ATOM      1  O   UNL     1     147.197 128.358 100.456  0.00  0.00    +0.000 OA
ATOM      2  O   UNL     1     143.649 126.390 100.924  0.00  0.00    +0.000 OA
ATOM      3  O   UNL     1     143.364 126.544  98.636  0.00  0.00    +0.000 OA
ATOM      4  C   UNL     1     145.323 127.473  99.553  0.00  0.00    +0.000 A 
ATOM      5  C   UNL     1     146.041 127.704 100.698  0.00  0.00    +0.000 A 
ATOM      6  C   UNL     1     146.090 128.026  98.498  0.00  0.00    +0.000 A 
ATOM      7  C   UNL     1     145.650 127.317 102.019  0.00  0.00    +0.000 A 
ATOM      8  C   UNL     1     147.233 128.559  99.102  0.00  0.00    +0.000 A 
ATOM      9  C   UNL     1     144.420 126.646 102.099  0.00  0.00    +0.000 A 
ATOM     10  C   UNL     1     144.055 126.783  99.619  0.00  0.00    +0.000 A 
ATOM     11  C   UNL     1     145.952 128.140  97.105  0.00  0.00    +0.000 A 
ATOM     12  C   UNL     1     146.386 127.558 103.172  0.00  0.00    +0.000 A 
ATOM     13  C   UNL     1     148.260 129.203  98.413  0.00  0.00    +0.000 A 
ATOM     14  C   UNL     1     143.910 126.209 103.315  0.00  0.00    +0.000 A 
ATOM     15  C   UNL     1     146.963 128.780  96.382  0.00  0.00    +0.000 A 
ATOM     16  C   UNL     1     148.084 129.295  97.031  0.00  0.00    +0.000 A 
ATOM     17  C   UNL     1     145.886 127.124 104.400  0.00  0.00    +0.000 A 
ATOM     18  C   UNL     1     144.659 126.457 104.460  0.00  0.00    +0.000 A 
ENDROOT
BRANCH  16  19
ATOM     19  O   UNL     1     149.035 129.909  96.261  0.00  0.00    +0.000 OA
ATOM     20  H   UNL     1     148.853 130.865  96.253  0.00  0.00    +0.000 HD
ENDBRANCH  16  19
BRANCH  18  21
ATOM     21  O   UNL     1     144.164 126.030 105.660  0.00  0.00    +0.000 OA
ATOM     22  H   UNL     1     144.883 125.601 106.155  0.00  0.00    +0.000 HD
ENDBRANCH  18  21
TORSDOF 2
ENDMDL
MODEL 5
REMARK VINA RESULT:      -7.1     32.509     34.633
REMARK  Name = COUMESTROL.pdbqt.pdb
REMARK  2 active torsions:
REMARK  status: ('A' for Active; 'I' for Inactive)
REMARK    1  A    between atoms: C_16  and  O_19
REMARK    2  A    between atoms: C_18  and  O_21
REMARK                            x       y       z     vdW  Elec       q    Type
REMARK                         _______ _______ _______ _____ _____    ______ ____
ROOT
ATOM      1  O   UNL     1     144.908 123.807  99.575  0.00  0.00    +0.000 OA
ATOM      2  O   UNL     1     143.569 126.399 102.434  0.00  0.00    +0.000 OA
ATOM      3  O   UNL     1     141.435 126.060 101.615  0.00  0.00    +0.000 OA
ATOM      4  C   UNL     1     143.199 124.905 100.567  0.00  0.00    +0.000 A 
ATOM      5  C   UNL     1     144.549 124.673 100.547  0.00  0.00    +0.000 A 
ATOM      6  C   UNL     1     142.656 124.120  99.519  0.00  0.00    +0.000 A 
ATOM      7  C   UNL     1     145.509 125.258 101.435  0.00  0.00    +0.000 A 
ATOM      8  C   UNL     1     143.746 123.463  98.939  0.00  0.00    +0.000 A 
ATOM      9  C   UNL     1     144.973 126.136 102.388  0.00  0.00    +0.000 A 
ATOM     10  C   UNL     1     142.632 125.808 101.543  0.00  0.00    +0.000 A 
ATOM     11  C   UNL     1     141.375 123.889  98.994  0.00  0.00    +0.000 A 
ATOM     12  C   UNL     1     146.876 125.014 101.405  0.00  0.00    +0.000 A 
ATOM     13  C   UNL     1     143.651 122.583  97.862  0.00  0.00    +0.000 A 
ATOM     14  C   UNL     1     145.782 126.780 103.317  0.00  0.00    +0.000 A 
ATOM     15  C   UNL     1     141.243 123.011  97.914  0.00  0.00    +0.000 A 
ATOM     16  C   UNL     1     142.359 122.380  97.370  0.00  0.00    +0.000 A 
ATOM     17  C   UNL     1     147.700 125.653 102.331  0.00  0.00    +0.000 A 
ATOM     18  C   UNL     1     147.149 126.525 103.274  0.00  0.00    +0.000 A 
ENDROOT
BRANCH  16  19
ATOM     19  O   UNL     1     142.157 121.533  96.313  0.00  0.00    +0.000 OA
ATOM     20  H   UNL     1     143.019 121.178  96.034  0.00  0.00    +0.000 HD
ENDBRANCH  16  19
BRANCH  18  21
ATOM     21  O   UNL     1     147.950 127.155 104.184  0.00  0.00    +0.000 OA
ATOM     22  H   UNL     1     147.384 127.661 104.793  0.00  0.00    +0.000 HD
ENDBRANCH  18  21
TORSDOF 2
ENDMDL
MODEL 6
REMARK VINA RESULT:      -6.9     32.851     34.717
REMARK  Name = COUMESTROL.pdbqt.pdb
REMARK  2 active torsions:
REMARK  status: ('A' for Active; 'I' for Inactive)
REMARK    1  A    between atoms: C_16  and  O_19
REMARK    2  A    between atoms: C_18  and  O_21
REMARK                            x       y       z     vdW  Elec       q    Type
REMARK                         _______ _______ _______ _____ _____    ______ ____
ROOT
ATOM      1  O   UNL     1     144.854 128.504  99.253  0.00  0.00    +0.000 OA
ATOM      2  O   UNL     1     145.086 126.032 102.496  0.00  0.00    +0.000 OA
ATOM      3  O   UNL     1     147.346 125.825 102.065  0.00  0.00    +0.000 OA
ATOM      4  C   UNL     1     146.085 127.194 100.624  0.00  0.00    +0.000 A 
ATOM      5  C   UNL     1     144.843 127.698 100.337  0.00  0.00    +0.000 A 
ATOM      6  C   UNL     1     146.955 127.725  99.640  0.00  0.00    +0.000 A 
ATOM      7  C   UNL     1     143.644 127.430 101.073  0.00  0.00    +0.000 A 
ATOM      8  C   UNL     1     146.152 128.524  98.820  0.00  0.00    +0.000 A 
ATOM      9  C   UNL     1     143.803 126.574 102.172  0.00  0.00    +0.000 A 
ATOM     10  C   UNL     1     146.266 126.310 101.753  0.00  0.00    +0.000 A 
ATOM     11  C   UNL     1     148.324 127.624  99.346  0.00  0.00    +0.000 A 
ATOM     12  C   UNL     1     142.391 127.948 100.771  0.00  0.00    +0.000 A 
ATOM     13  C   UNL     1     146.618 129.238  97.717  0.00  0.00    +0.000 A 
ATOM     14  C   UNL     1     142.730 126.222 102.980  0.00  0.00    +0.000 A 
ATOM     15  C   UNL     1     148.826 128.327  98.246  0.00  0.00    +0.000 A 
ATOM     16  C   UNL     1     147.985 129.110  97.459  0.00  0.00    +0.000 A 
ATOM     17  C   UNL     1     141.303 127.604 101.574  0.00  0.00    +0.000 A 
ATOM     18  C   UNL     1     141.481 126.749 102.665  0.00  0.00    +0.000 A 
ENDROOT
BRANCH  16  19
ATOM     19  O   UNL     1     148.544 129.771  96.398  0.00  0.00    +0.000 OA
ATOM     20  H   UNL     1     149.410 130.117  96.673  0.00  0.00    +0.000 HD
ENDBRANCH  16  19
BRANCH  18  21
ATOM     21  O   UNL     1     140.420 126.407 103.455  0.00  0.00    +0.000 OA
ATOM     22  H   UNL     1     139.962 125.652 103.046  0.00  0.00    +0.000 HD
ENDBRANCH  18  21
TORSDOF 2
ENDMDL
MODEL 7
REMARK VINA RESULT:      -6.9     32.955     34.634
REMARK  Name = COUMESTROL.pdbqt.pdb
REMARK  2 active torsions:
REMARK  status: ('A' for Active; 'I' for Inactive)
REMARK    1  A    between atoms: C_16  and  O_19
REMARK    2  A    between atoms: C_18  and  O_21
REMARK                            x       y       z     vdW  Elec       q    Type
REMARK                         _______ _______ _______ _____ _____    ______ ____
ROOT
ATOM      1  O   UNL     1     142.944 125.976 100.569  0.00  0.00    +0.000 OA
ATOM      2  O   UNL     1     144.993 122.858  98.906  0.00  0.00    +0.000 OA
ATOM      3  O   UNL     1     146.787 123.441 100.240  0.00  0.00    +0.000 OA
ATOM      4  C   UNL     1     144.832 124.741 100.416  0.00  0.00    +0.000 A 
ATOM      5  C   UNL     1     143.549 124.927  99.970  0.00  0.00    +0.000 A 
ATOM      6  C   UNL     1     145.058 125.757 101.378  0.00  0.00    +0.000 A 
ATOM      7  C   UNL     1     142.885 124.128  98.985  0.00  0.00    +0.000 A 
ATOM      8  C   UNL     1     143.869 126.490 101.436  0.00  0.00    +0.000 A 
ATOM      9  C   UNL     1     143.652 123.077  98.461  0.00  0.00    +0.000 A 
ATOM     10  C   UNL     1     145.635 123.664  99.886  0.00  0.00    +0.000 A 
ATOM     11  C   UNL     1     146.126 126.142 102.204  0.00  0.00    +0.000 A 
ATOM     12  C   UNL     1     141.584 124.327  98.541  0.00  0.00    +0.000 A 
ATOM     13  C   UNL     1     143.664 127.591 102.267  0.00  0.00    +0.000 A 
ATOM     14  C   UNL     1     143.142 122.217  97.496  0.00  0.00    +0.000 A 
ATOM     15  C   UNL     1     145.955 127.242 103.050  0.00  0.00    +0.000 A 
ATOM     16  C   UNL     1     144.750 127.941 103.072  0.00  0.00    +0.000 A 
ATOM     17  C   UNL     1     141.059 123.471  97.574  0.00  0.00    +0.000 A 
ATOM     18  C   UNL     1     141.838 122.429  97.062  0.00  0.00    +0.000 A 
ENDROOT
BRANCH  16  19
ATOM     19  O   UNL     1     144.652 129.008 103.925  0.00  0.00    +0.000 OA
ATOM     20  H   UNL     1     145.314 128.900 104.630  0.00  0.00    +0.000 HD
ENDBRANCH  16  19
BRANCH  18  21
ATOM     21  O   UNL     1     141.330 121.587  96.114  0.00  0.00    +0.000 OA
ATOM     22  H   UNL     1     140.371 121.739  96.050  0.00  0.00    +0.000 HD
ENDBRANCH  18  21
TORSDOF 2
ENDMDL
MODEL 8
REMARK VINA RESULT:      -6.7     32.698     34.428
REMARK  Name = COUMESTROL.pdbqt.pdb
REMARK  2 active torsions:
REMARK  status: ('A' for Active; 'I' for Inactive)
REMARK    1  A    between atoms: C_16  and  O_19
REMARK    2  A    between atoms: C_18  and  O_21
REMARK                            x       y       z     vdW  Elec       q    Type
REMARK                         _______ _______ _______ _____ _____    ______ ____
ROOT
ATOM      1  O   UNL     1     144.294 125.620  99.096  0.00  0.00    +0.000 OA
ATOM      2  O   UNL     1     141.860 127.030 102.057  0.00  0.00    +0.000 OA
ATOM      3  O   UNL     1     143.573 128.456 102.665  0.00  0.00    +0.000 OA
ATOM      4  C   UNL     1     143.952 127.014 100.842  0.00  0.00    +0.000 A 
ATOM      5  C   UNL     1     143.427 126.030 100.047  0.00  0.00    +0.000 A 
ATOM      6  C   UNL     1     145.262 127.248 100.354  0.00  0.00    +0.000 A 
ATOM      7  C   UNL     1     142.116 125.468 100.171  0.00  0.00    +0.000 A 
ATOM      8  C   UNL     1     145.425 126.368  99.281  0.00  0.00    +0.000 A 
ATOM      9  C   UNL     1     141.340 126.003 101.210  0.00  0.00    +0.000 A 
ATOM     10  C   UNL     1     143.166 127.575 101.917  0.00  0.00    +0.000 A 
ATOM     11  C   UNL     1     146.326 128.099 100.694  0.00  0.00    +0.000 A 
ATOM     12  C   UNL     1     141.594 124.470  99.358  0.00  0.00    +0.000 A 
ATOM     13  C   UNL     1     146.585 126.272  98.511  0.00  0.00    +0.000 A 
ATOM     14  C   UNL     1     140.046 125.557 101.453  0.00  0.00    +0.000 A 
ATOM     15  C   UNL     1     147.504 128.030  99.943  0.00  0.00    +0.000 A 
ATOM     16  C   UNL     1     147.618 127.135  98.881  0.00  0.00    +0.000 A 
ATOM     17  C   UNL     1     140.298 124.013  99.590  0.00  0.00    +0.000 A 
ATOM     18  C   UNL     1     139.539 124.558 100.630  0.00  0.00    +0.000 A 
ENDROOT
BRANCH  16  19
ATOM     19  O   UNL     1     148.800 127.121  98.190  0.00  0.00    +0.000 OA
ATOM     20  H   UNL     1     149.494 127.497  98.759  0.00  0.00    +0.000 HD
ENDBRANCH  16  19
BRANCH  18  21
ATOM     21  O   UNL     1     138.268 124.115 100.864  0.00  0.00    +0.000 OA
ATOM     22  H   UNL     1     138.279 123.553 101.659  0.00  0.00    +0.000 HD
ENDBRANCH  18  21
TORSDOF 2
ENDMDL
MODEL 9
REMARK VINA RESULT:      -6.7     33.271     35.450
REMARK  Name = COUMESTROL.pdbqt.pdb
REMARK  2 active torsions:
REMARK  status: ('A' for Active; 'I' for Inactive)
REMARK    1  A    between atoms: C_16  and  O_19
REMARK    2  A    between atoms: C_18  and  O_21
REMARK                            x       y       z     vdW  Elec       q    Type
REMARK                         _______ _______ _______ _____ _____    ______ ____
ROOT
ATOM      1  O   UNL     1     143.598 127.567  99.166  0.00  0.00    +0.000 OA
ATOM      2  O   UNL     1     147.282 128.434 100.702  0.00  0.00    +0.000 OA
ATOM      3  O   UNL     1     146.466 127.812 102.773  0.00  0.00    +0.000 OA
ATOM      4  C   UNL     1     144.994 127.683 100.940  0.00  0.00    +0.000 A 
ATOM      5  C   UNL     1     144.842 127.876  99.592  0.00  0.00    +0.000 A 
ATOM      6  C   UNL     1     143.742 127.213 101.408  0.00  0.00    +0.000 A 
ATOM      7  C   UNL     1     145.855 128.349  98.698  0.00  0.00    +0.000 A 
ATOM      8  C   UNL     1     142.917 127.158 100.280  0.00  0.00    +0.000 A 
ATOM      9  C   UNL     1     147.092 128.625  99.299  0.00  0.00    +0.000 A 
ATOM     10  C   UNL     1     146.262 127.963 101.575  0.00  0.00    +0.000 A 
ATOM     11  C   UNL     1     143.211 126.827 102.649  0.00  0.00    +0.000 A 
ATOM     12  C   UNL     1     145.688 128.541  97.332  0.00  0.00    +0.000 A 
ATOM     13  C   UNL     1     141.586 126.743 100.299  0.00  0.00    +0.000 A 
ATOM     14  C   UNL     1     148.171 129.091  98.558  0.00  0.00    +0.000 A 
ATOM     15  C   UNL     1     141.879 126.405 102.705  0.00  0.00    +0.000 A 
ATOM     16  C   UNL     1     141.096 126.368 101.553  0.00  0.00    +0.000 A 
ATOM     17  C   UNL     1     146.762 129.008  96.576  0.00  0.00    +0.000 A 
ATOM     18  C   UNL     1     147.988 129.277  97.192  0.00  0.00    +0.000 A 
ENDROOT
BRANCH  16  19
ATOM     19  O   UNL     1     139.800 125.944 101.680  0.00  0.00    +0.000 OA
ATOM     20  H   UNL     1     139.329 126.144 100.853  0.00  0.00    +0.000 HD
ENDBRANCH  16  19
BRANCH  18  21
ATOM     21  O   UNL     1     149.045 129.735  96.457  0.00  0.00    +0.000 OA
ATOM     22  H   UNL     1     149.277 130.625  96.774  0.00  0.00    +0.000 HD
ENDBRANCH  18  21
TORSDOF 2
ENDMDL
