MODEL 1
REMARK VINA RESULT:      -8.3      0.000      0.000
REMARK  Name = CP466722.pdbqt.pdb
REMARK  3 active torsions:
REMARK  status: ('A' for Active; 'I' for Inactive)
REMARK    1  A    between atoms: C_5  and  C_23
REMARK    2  A    between atoms: C_14  and  O_16
REMARK    3  A    between atoms: C_15  and  O_18
REMARK                            x       y       z     vdW  Elec       q    Type
REMARK                         _______ _______ _______ _____ _____    ______ ____
ROOT
ATOM      1  N   UNL     1     138.901 123.238 133.810  0.00  0.00    +0.000 N 
ATOM      2  N   UNL     1     139.628 123.226 134.952  0.00  0.00    +0.000 NA
ATOM      3  N   UNL     1     140.776 124.293 133.301  0.00  0.00    +0.000 NA
ATOM      4  C   UNL     1     139.621 123.910 132.820  0.00  0.00    +0.000 A 
ATOM      5  C   UNL     1     140.754 123.868 134.609  0.00  0.00    +0.000 A 
ATOM      6  C   UNL     1     137.618 122.605 133.693  0.00  0.00    +0.000 A 
ATOM      7  N   UNL     1     137.059 122.578 132.453  0.00  0.00    +0.000 NA
ATOM      8  C   UNL     1     135.875 121.967 132.341  0.00  0.00    +0.000 A 
ATOM      9  N   UNL     1     135.207 121.380 133.339  0.00  0.00    +0.000 NA
ATOM     10  C   UNL     1     135.760 121.411 134.553  0.00  0.00    +0.000 A 
ATOM     11  C   UNL     1     136.991 122.028 134.814  0.00  0.00    +0.000 A 
ATOM     12  C   UNL     1     135.080 120.796 135.595  0.00  0.00    +0.000 A 
ATOM     13  C   UNL     1     137.470 122.030 136.146  0.00  0.00    +0.000 A 
ATOM     14  C   UNL     1     136.762 121.444 137.189  0.00  0.00    +0.000 A 
ATOM     15  C   UNL     1     135.580 120.772 136.898  0.00  0.00    +0.000 A 
ATOM     16  N   UNL     1     139.183 124.133 131.566  0.00  0.00    +0.000 N 
ATOM     17  H   UNL     1     139.860 124.411 130.864  0.00  0.00    +0.000 HD
ATOM     18  H   UNL     1     138.379 123.613 131.215  0.00  0.00    +0.000 HD
ENDROOT
BRANCH   5  19
ATOM     19  C   UNL     1     141.876 124.103 135.522  0.00  0.00    +0.000 A 
ATOM     20  N   UNL     1     142.803 123.116 135.664  0.00  0.00    +0.000 NA
ATOM     21  C   UNL     1     143.826 123.356 136.512  0.00  0.00    +0.000 A 
ATOM     22  C   UNL     1     143.983 124.529 137.229  0.00  0.00    +0.000 A 
ATOM     23  C   UNL     1     143.024 125.519 137.063  0.00  0.00    +0.000 A 
ATOM     24  C   UNL     1     141.954 125.313 136.201  0.00  0.00    +0.000 A 
ENDBRANCH   5  19
BRANCH  14  25
ATOM     25  O   UNL     1     137.308 121.472 138.443  0.00  0.00    +0.000 OA
ATOM     26  C   UNL     1     137.130 122.737 139.029  0.00  0.00    +0.000 C 
ENDBRANCH  14  25
BRANCH  15  27
ATOM     27  O   UNL     1     134.855 120.161 137.885  0.00  0.00    +0.000 OA
ATOM     28  C   UNL     1     133.782 120.981 138.276  0.00  0.00    +0.000 C 
ENDBRANCH  15  27
TORSDOF 3
ENDMDL
MODEL 2
REMARK VINA RESULT:      -7.4     33.965     36.598
REMARK  Name = CP466722.pdbqt.pdb
REMARK  3 active torsions:
REMARK  status: ('A' for Active; 'I' for Inactive)
REMARK    1  A    between atoms: C_5  and  C_23
REMARK    2  A    between atoms: C_14  and  O_16
REMARK    3  A    between atoms: C_15  and  O_18
REMARK                            x       y       z     vdW  Elec       q    Type
REMARK                         _______ _______ _______ _____ _____    ______ ____
ROOT
ATOM      1  N   UNL     1     145.312 126.768 100.345  0.00  0.00    +0.000 N 
ATOM      2  N   UNL     1     145.375 126.032  99.210  0.00  0.00    +0.000 NA
ATOM      3  N   UNL     1     147.360 127.087  99.573  0.00  0.00    +0.000 NA
ATOM      4  C   UNL     1     146.545 127.391 100.550  0.00  0.00    +0.000 A 
ATOM      5  C   UNL     1     146.623 126.249  98.769  0.00  0.00    +0.000 A 
ATOM      6  C   UNL     1     144.123 126.879 101.140  0.00  0.00    +0.000 A 
ATOM      7  N   UNL     1     144.159 127.757 102.178  0.00  0.00    +0.000 NA
ATOM      8  C   UNL     1     143.043 127.877 102.904  0.00  0.00    +0.000 A 
ATOM      9  N   UNL     1     141.902 127.215 102.688  0.00  0.00    +0.000 NA
ATOM     10  C   UNL     1     141.873 126.354 101.669  0.00  0.00    +0.000 A 
ATOM     11  C   UNL     1     142.975 126.122 100.835  0.00  0.00    +0.000 A 
ATOM     12  C   UNL     1     140.690 125.668 101.429  0.00  0.00    +0.000 A 
ATOM     13  C   UNL     1     142.844 125.162  99.803  0.00  0.00    +0.000 A 
ATOM     14  C   UNL     1     141.666 124.453  99.596  0.00  0.00    +0.000 A 
ATOM     15  C   UNL     1     140.561 124.751 100.384  0.00  0.00    +0.000 A 
ATOM     16  N   UNL     1     146.844 128.179 101.602  0.00  0.00    +0.000 N 
ATOM     17  H   UNL     1     147.667 128.768 101.540  0.00  0.00    +0.000 HD
ATOM     18  H   UNL     1     146.093 128.539 102.189  0.00  0.00    +0.000 HD
ENDROOT
BRANCH   5  19
ATOM     19  C   UNL     1     147.173 125.665  97.542  0.00  0.00    +0.000 A 
ATOM     20  N   UNL     1     148.336 126.178  97.055  0.00  0.00    +0.000 NA
ATOM     21  C   UNL     1     148.822 125.624  95.923  0.00  0.00    +0.000 A 
ATOM     22  C   UNL     1     148.216 124.581  95.246  0.00  0.00    +0.000 A 
ATOM     23  C   UNL     1     147.032 124.075  95.768  0.00  0.00    +0.000 A 
ATOM     24  C   UNL     1     146.496 124.618  96.929  0.00  0.00    +0.000 A 
ENDBRANCH   5  19
BRANCH  14  25
ATOM     25  O   UNL     1     141.619 123.560  98.560  0.00  0.00    +0.000 OA
ATOM     26  C   UNL     1     142.854 122.905  98.419  0.00  0.00    +0.000 C 
ENDBRANCH  14  25
BRANCH  15  27
ATOM     27  O   UNL     1     139.372 124.096 100.208  0.00  0.00    +0.000 OA
ATOM     28  C   UNL     1     138.455 124.482 101.201  0.00  0.00    +0.000 C 
ENDBRANCH  15  27
TORSDOF 3
ENDMDL
MODEL 3
REMARK VINA RESULT:      -7.2      2.352      3.615
REMARK  Name = CP466722.pdbqt.pdb
REMARK  3 active torsions:
REMARK  status: ('A' for Active; 'I' for Inactive)
REMARK    1  A    between atoms: C_5  and  C_23
REMARK    2  A    between atoms: C_14  and  O_16
REMARK    3  A    between atoms: C_15  and  O_18
REMARK                            x       y       z     vdW  Elec       q    Type
REMARK                         _______ _______ _______ _____ _____    ______ ____
ROOT
ATOM      1  N   UNL     1     135.519 122.383 133.975  0.00  0.00    +0.000 N 
ATOM      2  N   UNL     1     136.484 123.047 134.653  0.00  0.00    +0.000 NA
ATOM      3  N   UNL     1     136.829 123.235 132.411  0.00  0.00    +0.000 NA
ATOM      4  C   UNL     1     135.746 122.526 132.605  0.00  0.00    +0.000 A 
ATOM      5  C   UNL     1     137.259 123.547 133.679  0.00  0.00    +0.000 A 
ATOM      6  C   UNL     1     134.481 121.635 134.625  0.00  0.00    +0.000 A 
ATOM      7  N   UNL     1     133.658 120.906 133.824  0.00  0.00    +0.000 NA
ATOM      8  C   UNL     1     132.705 120.192 134.433  0.00  0.00    +0.000 A 
ATOM      9  N   UNL     1     132.505 120.131 135.753  0.00  0.00    +0.000 NA
ATOM     10  C   UNL     1     133.315 120.848 136.533  0.00  0.00    +0.000 A 
ATOM     11  C   UNL     1     134.346 121.651 136.027  0.00  0.00    +0.000 A 
ATOM     12  C   UNL     1     133.122 120.784 137.906  0.00  0.00    +0.000 A 
ATOM     13  C   UNL     1     135.126 122.396 136.943  0.00  0.00    +0.000 A 
ATOM     14  C   UNL     1     134.899 122.354 138.314  0.00  0.00    +0.000 A 
ATOM     15  C   UNL     1     133.922 121.496 138.803  0.00  0.00    +0.000 A 
ATOM     16  N   UNL     1     134.960 122.017 131.636  0.00  0.00    +0.000 N 
ATOM     17  H   UNL     1     135.332 121.969 130.694  0.00  0.00    +0.000 HD
ATOM     18  H   UNL     1     134.275 121.300 131.872  0.00  0.00    +0.000 HD
ENDROOT
BRANCH   5  19
ATOM     19  C   UNL     1     138.463 124.349 133.917  0.00  0.00    +0.000 A 
ATOM     20  N   UNL     1     138.643 125.469 133.164  0.00  0.00    +0.000 NA
ATOM     21  C   UNL     1     139.760 126.191 133.402  0.00  0.00    +0.000 A 
ATOM     22  C   UNL     1     140.711 125.862 134.352  0.00  0.00    +0.000 A 
ATOM     23  C   UNL     1     140.498 124.716 135.108  0.00  0.00    +0.000 A 
ATOM     24  C   UNL     1     139.363 123.944 134.895  0.00  0.00    +0.000 A 
ENDBRANCH   5  19
BRANCH  14  25
ATOM     25  O   UNL     1     135.715 123.090 139.131  0.00  0.00    +0.000 OA
ATOM     26  C   UNL     1     137.037 122.619 139.059  0.00  0.00    +0.000 C 
ENDBRANCH  14  25
BRANCH  15  27
ATOM     27  O   UNL     1     133.672 121.402 140.145  0.00  0.00    +0.000 OA
ATOM     28  C   UNL     1     132.437 121.999 140.452  0.00  0.00    +0.000 C 
ENDBRANCH  15  27
TORSDOF 3
ENDMDL
MODEL 4
REMARK VINA RESULT:      -7.2     33.635     36.516
REMARK  Name = CP466722.pdbqt.pdb
REMARK  3 active torsions:
REMARK  status: ('A' for Active; 'I' for Inactive)
REMARK    1  A    between atoms: C_5  and  C_23
REMARK    2  A    between atoms: C_14  and  O_16
REMARK    3  A    between atoms: C_15  and  O_18
REMARK                            x       y       z     vdW  Elec       q    Type
REMARK                         _______ _______ _______ _____ _____    ______ ____
ROOT
ATOM      1  N   UNL     1     141.607 124.838  99.881  0.00  0.00    +0.000 N 
ATOM      2  N   UNL     1     142.628 124.504  99.057  0.00  0.00    +0.000 NA
ATOM      3  N   UNL     1     140.712 123.466  98.396  0.00  0.00    +0.000 NA
ATOM      4  C   UNL     1     140.443 124.201  99.444  0.00  0.00    +0.000 A 
ATOM      5  C   UNL     1     142.053 123.673  98.174  0.00  0.00    +0.000 A 
ATOM      6  C   UNL     1     141.773 125.685 101.027  0.00  0.00    +0.000 A 
ATOM      7  N   UNL     1     140.695 125.830 101.844  0.00  0.00    +0.000 NA
ATOM      8  C   UNL     1     140.858 126.601 102.924  0.00  0.00    +0.000 A 
ATOM      9  N   UNL     1     141.987 127.228 103.267  0.00  0.00    +0.000 NA
ATOM     10  C   UNL     1     143.041 127.083 102.462  0.00  0.00    +0.000 A 
ATOM     11  C   UNL     1     143.006 126.314 101.290  0.00  0.00    +0.000 A 
ATOM     12  C   UNL     1     144.222 127.721 102.813  0.00  0.00    +0.000 A 
ATOM     13  C   UNL     1     144.173 126.254 100.492  0.00  0.00    +0.000 A 
ATOM     14  C   UNL     1     145.339 126.929 100.834  0.00  0.00    +0.000 A 
ATOM     15  C   UNL     1     145.379 127.625 102.036  0.00  0.00    +0.000 A 
ATOM     16  N   UNL     1     139.231 124.334 100.017  0.00  0.00    +0.000 N 
ATOM     17  H   UNL     1     138.513 123.657  99.782  0.00  0.00    +0.000 HD
ATOM     18  H   UNL     1     139.158 124.741 100.949  0.00  0.00    +0.000 HD
ENDROOT
BRANCH   5  19
ATOM     19  C   UNL     1     142.768 123.026  97.070  0.00  0.00    +0.000 A 
ATOM     20  N   UNL     1     143.960 123.558  96.682  0.00  0.00    +0.000 NA
ATOM     21  C   UNL     1     144.599 122.945  95.661  0.00  0.00    +0.000 A 
ATOM     22  C   UNL     1     144.119 121.827  95.004  0.00  0.00    +0.000 A 
ATOM     23  C   UNL     1     142.903 121.304  95.423  0.00  0.00    +0.000 A 
ATOM     24  C   UNL     1     142.211 121.905  96.468  0.00  0.00    +0.000 A 
ENDBRANCH   5  19
BRANCH  14  25
ATOM     25  O   UNL     1     146.429 126.799 100.016  0.00  0.00    +0.000 OA
ATOM     26  C   UNL     1     146.126 125.972  98.921  0.00  0.00    +0.000 C 
ENDBRANCH  14  25
BRANCH  15  27
ATOM     27  O   UNL     1     146.509 128.290 102.429  0.00  0.00    +0.000 OA
ATOM     28  C   UNL     1     147.123 127.613 103.498  0.00  0.00    +0.000 C 
ENDBRANCH  15  27
TORSDOF 3
ENDMDL
MODEL 5
REMARK VINA RESULT:      -7.1     33.442     36.156
REMARK  Name = CP466722.pdbqt.pdb
REMARK  3 active torsions:
REMARK  status: ('A' for Active; 'I' for Inactive)
REMARK    1  A    between atoms: C_5  and  C_23
REMARK    2  A    between atoms: C_14  and  O_16
REMARK    3  A    between atoms: C_15  and  O_18
REMARK                            x       y       z     vdW  Elec       q    Type
REMARK                         _______ _______ _______ _____ _____    ______ ____
ROOT
ATOM      1  N   UNL     1     143.292 128.057  99.469  0.00  0.00    +0.000 N 
ATOM      2  N   UNL     1     144.609 128.007  99.156  0.00  0.00    +0.000 NA
ATOM      3  N   UNL     1     143.403 128.729  97.365  0.00  0.00    +0.000 NA
ATOM      4  C   UNL     1     142.579 128.516  98.359  0.00  0.00    +0.000 A 
ATOM      5  C   UNL     1     144.640 128.416  97.879  0.00  0.00    +0.000 A 
ATOM      6  C   UNL     1     142.775 127.649 100.743  0.00  0.00    +0.000 A 
ATOM      7  N   UNL     1     141.422 127.624 100.876  0.00  0.00    +0.000 NA
ATOM      8  C   UNL     1     140.941 127.221 102.057  0.00  0.00    +0.000 A 
ATOM      9  N   UNL     1     141.677 126.838 103.104  0.00  0.00    +0.000 NA
ATOM     10  C   UNL     1     143.004 126.865 102.969  0.00  0.00    +0.000 A 
ATOM     11  C   UNL     1     143.641 127.278 101.791  0.00  0.00    +0.000 A 
ATOM     12  C   UNL     1     143.778 126.460 104.047  0.00  0.00    +0.000 A 
ATOM     13  C   UNL     1     145.056 127.299 101.766  0.00  0.00    +0.000 A 
ATOM     14  C   UNL     1     145.821 126.927 102.865  0.00  0.00    +0.000 A 
ATOM     15  C   UNL     1     145.173 126.450 103.999  0.00  0.00    +0.000 A 
ATOM     16  N   UNL     1     141.247 128.715  98.327  0.00  0.00    +0.000 N 
ATOM     17  H   UNL     1     140.799 128.815  97.423  0.00  0.00    +0.000 HD
ATOM     18  H   UNL     1     140.663 128.316  99.061  0.00  0.00    +0.000 HD
ENDROOT
BRANCH   5  19
ATOM     19  C   UNL     1     145.865 128.523  97.081  0.00  0.00    +0.000 A 
ATOM     20  N   UNL     1     146.852 129.344  97.532  0.00  0.00    +0.000 NA
ATOM     21  C   UNL     1     147.970 129.426  96.778  0.00  0.00    +0.000 A 
ATOM     22  C   UNL     1     148.164 128.732  95.597  0.00  0.00    +0.000 A 
ATOM     23  C   UNL     1     147.141 127.899  95.163  0.00  0.00    +0.000 A 
ATOM     24  C   UNL     1     145.973 127.787  95.907  0.00  0.00    +0.000 A 
ENDBRANCH   5  19
BRANCH  14  25
ATOM     25  O   UNL     1     147.184 126.957 102.749  0.00  0.00    +0.000 OA
ATOM     26  C   UNL     1     147.649 125.791 102.115  0.00  0.00    +0.000 C 
ENDBRANCH  14  25
BRANCH  15  27
ATOM     27  O   UNL     1     145.881 126.052 105.101  0.00  0.00    +0.000 OA
ATOM     28  C   UNL     1     145.025 125.939 106.211  0.00  0.00    +0.000 C 
ENDBRANCH  15  27
TORSDOF 3
ENDMDL
MODEL 6
REMARK VINA RESULT:      -6.9     35.587     38.244
REMARK  Name = CP466722.pdbqt.pdb
REMARK  3 active torsions:
REMARK  status: ('A' for Active; 'I' for Inactive)
REMARK    1  A    between atoms: C_5  and  C_23
REMARK    2  A    between atoms: C_14  and  O_16
REMARK    3  A    between atoms: C_15  and  O_18
REMARK                            x       y       z     vdW  Elec       q    Type
REMARK                         _______ _______ _______ _____ _____    ______ ____
ROOT
ATOM      1  N   UNL     1     143.960 123.983  98.841  0.00  0.00    +0.000 N 
ATOM      2  N   UNL     1     145.085 124.530  99.359  0.00  0.00    +0.000 NA
ATOM      3  N   UNL     1     143.481 124.363 100.966  0.00  0.00    +0.000 NA
ATOM      4  C   UNL     1     143.000 123.879  99.850  0.00  0.00    +0.000 A 
ATOM      5  C   UNL     1     144.760 124.749 100.642  0.00  0.00    +0.000 A 
ATOM      6  C   UNL     1     143.829 123.629  97.457  0.00  0.00    +0.000 A 
ATOM      7  N   UNL     1     142.601 123.215  97.043  0.00  0.00    +0.000 NA
ATOM      8  C   UNL     1     142.475 122.907  95.748  0.00  0.00    +0.000 A 
ATOM      9  N   UNL     1     143.448 122.981  94.835  0.00  0.00    +0.000 NA
ATOM     10  C   UNL     1     144.650 123.387  95.246  0.00  0.00    +0.000 A 
ATOM     11  C   UNL     1     144.925 123.729  96.577  0.00  0.00    +0.000 A 
ATOM     12  C   UNL     1     145.665 123.477  94.304  0.00  0.00    +0.000 A 
ATOM     13  C   UNL     1     146.245 124.116  96.911  0.00  0.00    +0.000 A 
ATOM     14  C   UNL     1     147.263 124.165  95.966  0.00  0.00    +0.000 A 
ATOM     15  C   UNL     1     146.955 123.896  94.638  0.00  0.00    +0.000 A 
ATOM     16  N   UNL     1     141.770 123.352  99.691  0.00  0.00    +0.000 N 
ATOM     17  H   UNL     1     141.074 123.538 100.404  0.00  0.00    +0.000 HD
ATOM     18  H   UNL     1     141.404 123.208  98.750  0.00  0.00    +0.000 HD
ENDROOT
BRANCH   5  19
ATOM     19  C   UNL     1     145.665 125.350 101.627  0.00  0.00    +0.000 A 
ATOM     20  N   UNL     1     146.984 125.017 101.570  0.00  0.00    +0.000 NA
ATOM     21  C   UNL     1     147.797 125.583 102.489  0.00  0.00    +0.000 A 
ATOM     22  C   UNL     1     147.371 126.466 103.464  0.00  0.00    +0.000 A 
ATOM     23  C   UNL     1     146.020 126.789 103.497  0.00  0.00    +0.000 A 
ATOM     24  C   UNL     1     145.149 126.229 102.571  0.00  0.00    +0.000 A 
ENDBRANCH   5  19
BRANCH  14  25
ATOM     25  O   UNL     1     148.506 124.572  96.370  0.00  0.00    +0.000 OA
ATOM     26  C   UNL     1     148.525 125.961  96.580  0.00  0.00    +0.000 C 
ENDBRANCH  14  25
BRANCH  15  27
ATOM     27  O   UNL     1     147.917 123.950  93.665  0.00  0.00    +0.000 OA
ATOM     28  C   UNL     1     147.806 125.150  92.941  0.00  0.00    +0.000 C 
ENDBRANCH  15  27
TORSDOF 3
ENDMDL
MODEL 7
REMARK VINA RESULT:      -6.8     34.678     37.480
REMARK  Name = CP466722.pdbqt.pdb
REMARK  3 active torsions:
REMARK  status: ('A' for Active; 'I' for Inactive)
REMARK    1  A    between atoms: C_5  and  C_23
REMARK    2  A    between atoms: C_14  and  O_16
REMARK    3  A    between atoms: C_15  and  O_18
REMARK                            x       y       z     vdW  Elec       q    Type
REMARK                         _______ _______ _______ _____ _____    ______ ____
ROOT
ATOM      1  N   UNL     1     142.331 126.939  97.414  0.00  0.00    +0.000 N 
ATOM      2  N   UNL     1     142.628 125.623  97.526  0.00  0.00    +0.000 NA
ATOM      3  N   UNL     1     142.236 126.158  95.348  0.00  0.00    +0.000 NA
ATOM      4  C   UNL     1     142.110 127.242  96.069  0.00  0.00    +0.000 A 
ATOM      5  C   UNL     1     142.559 125.182  96.262  0.00  0.00    +0.000 A 
ATOM      6  C   UNL     1     142.234 127.818  98.545  0.00  0.00    +0.000 A 
ATOM      7  N   UNL     1     141.797 129.083  98.302  0.00  0.00    +0.000 NA
ATOM      8  C   UNL     1     141.686 129.893  99.360  0.00  0.00    +0.000 A 
ATOM      9  N   UNL     1     141.959 129.561 100.625  0.00  0.00    +0.000 NA
ATOM     10  C   UNL     1     142.388 128.319 100.857  0.00  0.00    +0.000 A 
ATOM     11  C   UNL     1     142.562 127.370  99.840  0.00  0.00    +0.000 A 
ATOM     12  C   UNL     1     142.665 127.959 102.168  0.00  0.00    +0.000 A 
ATOM     13  C   UNL     1     143.054 126.091 100.193  0.00  0.00    +0.000 A 
ATOM     14  C   UNL     1     143.365 125.754 101.506  0.00  0.00    +0.000 A 
ATOM     15  C   UNL     1     143.115 126.682 102.510  0.00  0.00    +0.000 A 
ATOM     16  N   UNL     1     141.820 128.469  95.593  0.00  0.00    +0.000 N 
ATOM     17  H   UNL     1     141.446 128.542  94.653  0.00  0.00    +0.000 HD
ATOM     18  H   UNL     1     141.523 129.200  96.239  0.00  0.00    +0.000 HD
ENDROOT
BRANCH   5  19
ATOM     19  C   UNL     1     142.796 123.791  95.864  0.00  0.00    +0.000 A 
ATOM     20  N   UNL     1     143.905 123.518  95.123  0.00  0.00    +0.000 NA
ATOM     21  C   UNL     1     144.100 122.229  94.768  0.00  0.00    +0.000 A 
ATOM     22  C   UNL     1     143.252 121.191  95.111  0.00  0.00    +0.000 A 
ATOM     23  C   UNL     1     142.130 121.499  95.870  0.00  0.00    +0.000 A 
ATOM     24  C   UNL     1     141.891 122.812  96.255  0.00  0.00    +0.000 A 
ENDBRANCH   5  19
BRANCH  14  25
ATOM     25  O   UNL     1     143.815 124.487 101.762  0.00  0.00    +0.000 OA
ATOM     26  C   UNL     1     144.010 123.782 100.562  0.00  0.00    +0.000 C 
ENDBRANCH  14  25
BRANCH  15  27
ATOM     27  O   UNL     1     143.384 126.393 103.820  0.00  0.00    +0.000 OA
ATOM     28  C   UNL     1     144.723 126.703 104.120  0.00  0.00    +0.000 C 
ENDBRANCH  15  27
TORSDOF 3
ENDMDL
MODEL 8
REMARK VINA RESULT:      -6.8     34.297     36.918
REMARK  Name = CP466722.pdbqt.pdb
REMARK  3 active torsions:
REMARK  status: ('A' for Active; 'I' for Inactive)
REMARK    1  A    between atoms: C_5  and  C_23
REMARK    2  A    between atoms: C_14  and  O_16
REMARK    3  A    between atoms: C_15  and  O_18
REMARK                            x       y       z     vdW  Elec       q    Type
REMARK                         _______ _______ _______ _____ _____    ______ ____
ROOT
ATOM      1  N   UNL     1     142.262 127.716  99.215  0.00  0.00    +0.000 N 
ATOM      2  N   UNL     1     142.880 126.887 100.089  0.00  0.00    +0.000 NA
ATOM      3  N   UNL     1     142.576 128.938 101.031  0.00  0.00    +0.000 NA
ATOM      4  C   UNL     1     142.075 128.960  99.823  0.00  0.00    +0.000 A 
ATOM      5  C   UNL     1     143.057 127.657 101.173  0.00  0.00    +0.000 A 
ATOM      6  C   UNL     1     141.918 127.327  97.877  0.00  0.00    +0.000 A 
ATOM      7  N   UNL     1     141.425 128.298  97.063  0.00  0.00    +0.000 NA
ATOM      8  C   UNL     1     141.127 127.938  95.810  0.00  0.00    +0.000 A 
ATOM      9  N   UNL     1     141.283 126.715  95.296  0.00  0.00    +0.000 NA
ATOM     10  C   UNL     1     141.767 125.766  96.099  0.00  0.00    +0.000 A 
ATOM     11  C   UNL     1     142.109 126.001  97.438  0.00  0.00    +0.000 A 
ATOM     12  C   UNL     1     141.943 124.494  95.573  0.00  0.00    +0.000 A 
ATOM     13  C   UNL     1     142.584 124.914  98.210  0.00  0.00    +0.000 A 
ATOM     14  C   UNL     1     142.719 123.635  97.682  0.00  0.00    +0.000 A 
ATOM     15  C   UNL     1     142.447 123.437  96.334  0.00  0.00    +0.000 A 
ATOM     16  N   UNL     1     141.464 130.014  99.247  0.00  0.00    +0.000 N 
ATOM     17  H   UNL     1     141.589 130.928  99.668  0.00  0.00    +0.000 HD
ATOM     18  H   UNL     1     141.308 130.015  98.240  0.00  0.00    +0.000 HD
ENDROOT
BRANCH   5  19
ATOM     19  C   UNL     1     143.706 127.202 102.406  0.00  0.00    +0.000 A 
ATOM     20  N   UNL     1     144.798 127.887 102.844  0.00  0.00    +0.000 NA
ATOM     21  C   UNL     1     145.379 127.447 103.982  0.00  0.00    +0.000 A 
ATOM     22  C   UNL     1     144.932 126.362 104.713  0.00  0.00    +0.000 A 
ATOM     23  C   UNL     1     143.814 125.684 104.244  0.00  0.00    +0.000 A 
ATOM     24  C   UNL     1     143.187 126.101 103.077  0.00  0.00    +0.000 A 
ENDBRANCH   5  19
BRANCH  14  25
ATOM     25  O   UNL     1     143.207 122.646  98.493  0.00  0.00    +0.000 OA
ATOM     26  C   UNL     1     144.383 123.071  99.133  0.00  0.00    +0.000 C 
ENDBRANCH  14  25
BRANCH  15  27
ATOM     27  O   UNL     1     142.584 122.202  95.761  0.00  0.00    +0.000 OA
ATOM     28  C   UNL     1     143.809 122.117  95.078  0.00  0.00    +0.000 C 
ENDBRANCH  15  27
TORSDOF 3
ENDMDL
MODEL 9
REMARK VINA RESULT:      -6.8     35.173     37.792
REMARK  Name = CP466722.pdbqt.pdb
REMARK  3 active torsions:
REMARK  status: ('A' for Active; 'I' for Inactive)
REMARK    1  A    between atoms: C_5  and  C_23
REMARK    2  A    between atoms: C_14  and  O_16
REMARK    3  A    between atoms: C_15  and  O_18
REMARK                            x       y       z     vdW  Elec       q    Type
REMARK                         _______ _______ _______ _____ _____    ______ ____
ROOT
ATOM      1  N   UNL     1     146.906 125.922  98.330  0.00  0.00    +0.000 N 
ATOM      2  N   UNL     1     146.158 125.608  99.414  0.00  0.00    +0.000 NA
ATOM      3  N   UNL     1     147.666 127.230  99.943  0.00  0.00    +0.000 NA
ATOM      4  C   UNL     1     147.811 126.928  98.679  0.00  0.00    +0.000 A 
ATOM      5  C   UNL     1     146.644 126.414 100.370  0.00  0.00    +0.000 A 
ATOM      6  C   UNL     1     146.768 125.259  97.065  0.00  0.00    +0.000 A 
ATOM      7  N   UNL     1     147.673 125.579  96.103  0.00  0.00    +0.000 NA
ATOM      8  C   UNL     1     147.556 124.943  94.932  0.00  0.00    +0.000 A 
ATOM      9  N   UNL     1     146.636 124.020  94.639  0.00  0.00    +0.000 NA
ATOM     10  C   UNL     1     145.750 123.710  95.588  0.00  0.00    +0.000 A 
ATOM     11  C   UNL     1     145.749 124.309  96.855  0.00  0.00    +0.000 A 
ATOM     12  C   UNL     1     144.795 122.745  95.298  0.00  0.00    +0.000 A 
ATOM     13  C   UNL     1     144.743 123.929  97.775  0.00  0.00    +0.000 A 
ATOM     14  C   UNL     1     143.768 122.989  97.460  0.00  0.00    +0.000 A 
ATOM     15  C   UNL     1     143.830 122.351  96.227  0.00  0.00    +0.000 A 
ATOM     16  N   UNL     1     148.690 127.500  97.833  0.00  0.00    +0.000 N 
ATOM     17  H   UNL     1     149.454 128.038  98.228  0.00  0.00    +0.000 HD
ATOM     18  H   UNL     1     148.887 127.054  96.937  0.00  0.00    +0.000 HD
ENDROOT
BRANCH   5  19
ATOM     19  C   UNL     1     146.155 126.438 101.752  0.00  0.00    +0.000 A 
ATOM     20  N   UNL     1     144.863 126.072 101.978  0.00  0.00    +0.000 NA
ATOM     21  C   UNL     1     144.435 126.103 103.259  0.00  0.00    +0.000 A 
ATOM     22  C   UNL     1     145.224 126.476 104.333  0.00  0.00    +0.000 A 
ATOM     23  C   UNL     1     146.538 126.842 104.072  0.00  0.00    +0.000 A 
ATOM     24  C   UNL     1     147.019 126.826 102.769  0.00  0.00    +0.000 A 
ENDBRANCH   5  19
BRANCH  14  25
ATOM     25  O   UNL     1     142.845 122.663  98.417  0.00  0.00    +0.000 OA
ATOM     26  C   UNL     1     142.656 123.738  99.303  0.00  0.00    +0.000 C 
ENDBRANCH  14  25
BRANCH  15  27
ATOM     27  O   UNL     1     142.906 121.404  95.875  0.00  0.00    +0.000 OA
ATOM     28  C   UNL     1     143.361 120.673  94.763  0.00  0.00    +0.000 C 
ENDBRANCH  15  27
TORSDOF 3
ENDMDL
