MODEL 1
REMARK VINA RESULT:      -6.5      0.000      0.000
REMARK  Name = Curcumin.pdbqt.pdb
REMARK  8 active torsions:
REMARK  status: ('A' for Active; 'I' for Inactive)
REMARK    1  A    between atoms: C_2  and  C_4
REMARK    2  A    between atoms: C_5  and  C_6
REMARK    3  A    between atoms: C_8  and  O_12
REMARK    4  A    between atoms: C_9  and  O_14
REMARK    5  A    between atoms: C_16  and  C_18
REMARK    6  A    between atoms: C_19  and  C_20
REMARK    7  A    between atoms: C_22  and  O_26
REMARK    8  A    between atoms: C_23  and  O_28
REMARK                            x       y       z     vdW  Elec       q    Type
REMARK                         _______ _______ _______ _____ _____    ______ ____
ROOT
ATOM      1  C   UNL     1     139.020 132.634 135.334  0.00  0.00    +0.000 C 
ATOM      2  C   UNL     1     138.422 132.918 136.596  0.00  0.00    +0.000 C 
ATOM      3  O   UNL     1     137.658 132.108 137.100  0.00  0.00    +0.000 OA
ATOM      4  C   UNL     1     139.614 132.350 134.070  0.00  0.00    +0.000 C 
ATOM      5  O   UNL     1     140.116 133.255 133.419  0.00  0.00    +0.000 OA
ENDROOT
BRANCH   2   6
ATOM      6  C   UNL     1     138.724 134.155 137.270  0.00  0.00    +0.000 C 
ATOM      7  C   UNL     1     138.974 135.187 137.831  0.00  0.00    +0.000 C 
BRANCH   7   8
ATOM      8  C   UNL     1     139.271 136.412 138.500  0.00  0.00    +0.000 A 
ATOM      9  C   UNL     1     138.572 136.761 139.654  0.00  0.00    +0.000 A 
ATOM     10  C   UNL     1     138.850 137.957 140.322  0.00  0.00    +0.000 A 
ATOM     11  C   UNL     1     139.843 138.798 139.809  0.00  0.00    +0.000 A 
ATOM     12  C   UNL     1     140.543 138.452 138.654  0.00  0.00    +0.000 A 
ATOM     13  C   UNL     1     140.256 137.257 137.999  0.00  0.00    +0.000 A 
BRANCH  10  14
ATOM     14  O   UNL     1     138.206 138.365 141.463  0.00  0.00    +0.000 OA
ATOM     15  C   UNL     1     137.272 137.470 141.997  0.00  0.00    +0.000 C 
ENDBRANCH  10  14
BRANCH  11  16
ATOM     16  O   UNL     1     140.184 139.987 140.392  0.00  0.00    +0.000 OA
ATOM     17  H   UNL     1     139.411 140.395 140.817  0.00  0.00    +0.000 HD
ENDBRANCH  11  16
ENDBRANCH   7   8
ENDBRANCH   2   6
BRANCH   4  18
ATOM     18  C   UNL     1     139.618 131.000 133.569  0.00  0.00    +0.000 C 
ATOM     19  C   UNL     1     139.618 129.872 133.152  0.00  0.00    +0.000 C 
BRANCH  19  20
ATOM     20  C   UNL     1     139.614 128.535 132.660  0.00  0.00    +0.000 A 
ATOM     21  C   UNL     1     139.917 127.479 133.519  0.00  0.00    +0.000 A 
ATOM     22  C   UNL     1     139.918 126.161 133.053  0.00  0.00    +0.000 A 
ATOM     23  C   UNL     1     139.609 125.924 131.710  0.00  0.00    +0.000 A 
ATOM     24  C   UNL     1     139.306 126.976 130.847  0.00  0.00    +0.000 A 
ATOM     25  C   UNL     1     139.309 128.284 131.325  0.00  0.00    +0.000 A 
BRANCH  22  26
ATOM     26  O   UNL     1     140.205 125.064 133.829  0.00  0.00    +0.000 OA
ATOM     27  C   UNL     1     140.925 125.327 135.005  0.00  0.00    +0.000 C 
ENDBRANCH  22  26
BRANCH  23  28
ATOM     28  O   UNL     1     139.605 124.642 131.234  0.00  0.00    +0.000 OA
ATOM     29  H   UNL     1     139.058 124.610 130.428  0.00  0.00    +0.000 HD
ENDBRANCH  23  28
ENDBRANCH  19  20
ENDBRANCH   4  18
TORSDOF 8
ENDMDL
MODEL 2
REMARK VINA RESULT:      -6.4      8.177     13.368
REMARK  Name = Curcumin.pdbqt.pdb
REMARK  8 active torsions:
REMARK  status: ('A' for Active; 'I' for Inactive)
REMARK    1  A    between atoms: C_2  and  C_4
REMARK    2  A    between atoms: C_5  and  C_6
REMARK    3  A    between atoms: C_8  and  O_12
REMARK    4  A    between atoms: C_9  and  O_14
REMARK    5  A    between atoms: C_16  and  C_18
REMARK    6  A    between atoms: C_19  and  C_20
REMARK    7  A    between atoms: C_22  and  O_26
REMARK    8  A    between atoms: C_23  and  O_28
REMARK                            x       y       z     vdW  Elec       q    Type
REMARK                         _______ _______ _______ _____ _____    ______ ____
ROOT
ATOM      1  C   UNL     1     135.416 122.991 134.440  0.00  0.00    +0.000 C 
ATOM      2  C   UNL     1     134.860 122.860 135.746  0.00  0.00    +0.000 C 
ATOM      3  O   UNL     1     135.475 123.289 136.711  0.00  0.00    +0.000 OA
ATOM      4  C   UNL     1     135.975 123.118 133.135  0.00  0.00    +0.000 C 
ATOM      5  O   UNL     1     135.539 122.435 132.219  0.00  0.00    +0.000 OA
ENDROOT
BRANCH   2   6
ATOM      6  C   UNL     1     133.578 122.227 135.919  0.00  0.00    +0.000 C 
ATOM      7  C   UNL     1     132.507 121.701 136.064  0.00  0.00    +0.000 C 
BRANCH   7   8
ATOM      8  C   UNL     1     131.237 121.075 136.233  0.00  0.00    +0.000 A 
ATOM      9  C   UNL     1     130.169 121.802 136.756  0.00  0.00    +0.000 A 
ATOM     10  C   UNL     1     128.916 121.205 136.929  0.00  0.00    +0.000 A 
ATOM     11  C   UNL     1     128.756 119.863 136.567  0.00  0.00    +0.000 A 
ATOM     12  C   UNL     1     129.823 119.134 136.044  0.00  0.00    +0.000 A 
ATOM     13  C   UNL     1     131.065 119.741 135.877  0.00  0.00    +0.000 A 
BRANCH  10  14
ATOM     14  O   UNL     1     127.820 121.856 137.435  0.00  0.00    +0.000 OA
ATOM     15  C   UNL     1     128.035 123.162 137.890  0.00  0.00    +0.000 C 
ENDBRANCH  10  14
BRANCH  11  16
ATOM     16  O   UNL     1     127.570 119.195 136.699  0.00  0.00    +0.000 OA
ATOM     17  H   UNL     1     127.057 119.239 135.875  0.00  0.00    +0.000 HD
ENDBRANCH  11  16
ENDBRANCH   7   8
ENDBRANCH   2   6
BRANCH   4  18
ATOM     18  C   UNL     1     137.048 124.051 132.905  0.00  0.00    +0.000 C 
ATOM     19  C   UNL     1     137.946 124.826 132.709  0.00  0.00    +0.000 C 
BRANCH  19  20
ATOM     20  C   UNL     1     139.011 125.743 132.476  0.00  0.00    +0.000 A 
ATOM     21  C   UNL     1     139.981 125.450 131.517  0.00  0.00    +0.000 A 
ATOM     22  C   UNL     1     141.033 126.339 131.276  0.00  0.00    +0.000 A 
ATOM     23  C   UNL     1     141.092 127.525 132.012  0.00  0.00    +0.000 A 
ATOM     24  C   UNL     1     140.125 127.822 132.972  0.00  0.00    +0.000 A 
ATOM     25  C   UNL     1     139.083 126.929 133.203  0.00  0.00    +0.000 A 
BRANCH  22  26
ATOM     26  O   UNL     1     142.027 126.128 130.352  0.00  0.00    +0.000 OA
ATOM     27  C   UNL     1     141.606 126.052 129.015  0.00  0.00    +0.000 C 
ENDBRANCH  22  26
BRANCH  23  28
ATOM     28  O   UNL     1     142.113 128.407 131.791  0.00  0.00    +0.000 OA
ATOM     29  H   UNL     1     141.751 129.202 131.360  0.00  0.00    +0.000 HD
ENDBRANCH  23  28
ENDBRANCH  19  20
ENDBRANCH   4  18
TORSDOF 8
ENDMDL
MODEL 3
REMARK VINA RESULT:      -5.9     28.688     33.007
REMARK  Name = Curcumin.pdbqt.pdb
REMARK  8 active torsions:
REMARK  status: ('A' for Active; 'I' for Inactive)
REMARK    1  A    between atoms: C_2  and  C_4
REMARK    2  A    between atoms: C_5  and  C_6
REMARK    3  A    between atoms: C_8  and  O_12
REMARK    4  A    between atoms: C_9  and  O_14
REMARK    5  A    between atoms: C_16  and  C_18
REMARK    6  A    between atoms: C_19  and  C_20
REMARK    7  A    between atoms: C_22  and  O_26
REMARK    8  A    between atoms: C_23  and  O_28
REMARK                            x       y       z     vdW  Elec       q    Type
REMARK                         _______ _______ _______ _____ _____    ______ ____
ROOT
ATOM      1  C   UNL     1     148.255 114.747 110.281  0.00  0.00    +0.000 C 
ATOM      2  C   UNL     1     147.530 114.884 111.500  0.00  0.00    +0.000 C 
ATOM      3  O   UNL     1     146.375 115.282 111.476  0.00  0.00    +0.000 OA
ATOM      4  C   UNL     1     148.981 114.615 109.062  0.00  0.00    +0.000 C 
ATOM      5  O   UNL     1     150.200 114.525 109.088  0.00  0.00    +0.000 OA
ENDROOT
BRANCH   2   6
ATOM      6  C   UNL     1     148.161 114.550 112.752  0.00  0.00    +0.000 C 
ATOM      7  C   UNL     1     148.686 114.271 113.796  0.00  0.00    +0.000 C 
BRANCH   7   8
ATOM      8  C   UNL     1     149.309 113.939 115.035  0.00  0.00    +0.000 A 
ATOM      9  C   UNL     1     150.014 114.911 115.742  0.00  0.00    +0.000 A 
ATOM     10  C   UNL     1     150.631 114.603 116.958  0.00  0.00    +0.000 A 
ATOM     11  C   UNL     1     150.528 113.299 117.452  0.00  0.00    +0.000 A 
ATOM     12  C   UNL     1     149.823 112.324 116.747  0.00  0.00    +0.000 A 
ATOM     13  C   UNL     1     149.214 112.644 115.537  0.00  0.00    +0.000 A 
BRANCH  10  14
ATOM     14  O   UNL     1     151.339 115.507 117.709  0.00  0.00    +0.000 OA
ATOM     15  C   UNL     1     152.676 115.700 117.341  0.00  0.00    +0.000 C 
ENDBRANCH  10  14
BRANCH  11  16
ATOM     16  O   UNL     1     151.097 112.903 118.631  0.00  0.00    +0.000 OA
ATOM     17  H   UNL     1     150.557 113.190 119.386  0.00  0.00    +0.000 HD
ENDBRANCH  11  16
ENDBRANCH   7   8
ENDBRANCH   2   6
BRANCH   4  18
ATOM     18  C   UNL     1     148.273 114.587 107.808  0.00  0.00    +0.000 C 
ATOM     19  C   UNL     1     147.678 114.562 106.763  0.00  0.00    +0.000 C 
BRANCH  19  20
ATOM     20  C   UNL     1     146.971 114.530 105.526  0.00  0.00    +0.000 A 
ATOM     21  C   UNL     1     145.577 114.517 105.524  0.00  0.00    +0.000 A 
ATOM     22  C   UNL     1     144.868 114.486 104.320  0.00  0.00    +0.000 A 
ATOM     23  C   UNL     1     145.585 114.468 103.120  0.00  0.00    +0.000 A 
ATOM     24  C   UNL     1     146.979 114.480 103.116  0.00  0.00    +0.000 A 
ATOM     25  C   UNL     1     147.672 114.511 104.323  0.00  0.00    +0.000 A 
BRANCH  22  26
ATOM     26  O   UNL     1     143.497 114.472 104.228  0.00  0.00    +0.000 OA
ATOM     27  C   UNL     1     142.812 115.040 105.313  0.00  0.00    +0.000 C 
ENDBRANCH  22  26
BRANCH  23  28
ATOM     28  O   UNL     1     144.909 114.437 101.931  0.00  0.00    +0.000 OA
ATOM     29  H   UNL     1     145.488 114.797 101.234  0.00  0.00    +0.000 HD
ENDBRANCH  23  28
ENDBRANCH  19  20
ENDBRANCH   4  18
TORSDOF 8
ENDMDL
MODEL 4
REMARK VINA RESULT:      -5.8      7.474     14.376
REMARK  Name = Curcumin.pdbqt.pdb
REMARK  8 active torsions:
REMARK  status: ('A' for Active; 'I' for Inactive)
REMARK    1  A    between atoms: C_2  and  C_4
REMARK    2  A    between atoms: C_5  and  C_6
REMARK    3  A    between atoms: C_8  and  O_12
REMARK    4  A    between atoms: C_9  and  O_14
REMARK    5  A    between atoms: C_16  and  C_18
REMARK    6  A    between atoms: C_19  and  C_20
REMARK    7  A    between atoms: C_22  and  O_26
REMARK    8  A    between atoms: C_23  and  O_28
REMARK                            x       y       z     vdW  Elec       q    Type
REMARK                         _______ _______ _______ _____ _____    ______ ____
ROOT
ATOM      1  C   UNL     1     137.325 122.042 134.334  0.00  0.00    +0.000 C 
ATOM      2  C   UNL     1     137.259 121.304 135.551  0.00  0.00    +0.000 C 
ATOM      3  O   UNL     1     138.045 121.552 136.453  0.00  0.00    +0.000 OA
ATOM      4  C   UNL     1     137.395 122.778 133.116  0.00  0.00    +0.000 C 
ATOM      5  O   UNL     1     136.844 122.346 132.113  0.00  0.00    +0.000 OA
ENDROOT
BRANCH   2   6
ATOM      6  C   UNL     1     136.264 120.273 135.712  0.00  0.00    +0.000 C 
ATOM      7  C   UNL     1     135.435 119.415 135.848  0.00  0.00    +0.000 C 
BRANCH   7   8
ATOM      8  C   UNL     1     134.449 118.396 136.007  0.00  0.00    +0.000 A 
ATOM      9  C   UNL     1     133.779 118.262 137.221  0.00  0.00    +0.000 A 
ATOM     10  C   UNL     1     132.809 117.270 137.396  0.00  0.00    +0.000 A 
ATOM     11  C   UNL     1     132.525 116.414 136.327  0.00  0.00    +0.000 A 
ATOM     12  C   UNL     1     133.194 116.546 135.111  0.00  0.00    +0.000 A 
ATOM     13  C   UNL     1     134.157 117.538 134.951  0.00  0.00    +0.000 A 
BRANCH  10  14
ATOM     14  O   UNL     1     132.109 117.079 138.560  0.00  0.00    +0.000 OA
ATOM     15  C   UNL     1     131.143 118.045 138.864  0.00  0.00    +0.000 C 
ENDBRANCH  10  14
BRANCH  11  16
ATOM     16  O   UNL     1     131.594 115.415 136.403  0.00  0.00    +0.000 OA
ATOM     17  H   UNL     1     131.991 114.558 136.172  0.00  0.00    +0.000 HD
ENDBRANCH  11  16
ENDBRANCH   7   8
ENDBRANCH   2   6
BRANCH   4  18
ATOM     18  C   UNL     1     138.115 124.025 133.074  0.00  0.00    +0.000 C 
ATOM     19  C   UNL     1     138.716 125.065 133.035  0.00  0.00    +0.000 C 
BRANCH  19  20
ATOM     20  C   UNL     1     139.430 126.298 132.985  0.00  0.00    +0.000 A 
ATOM     21  C   UNL     1     140.363 126.599 133.975  0.00  0.00    +0.000 A 
ATOM     22  C   UNL     1     141.072 127.804 133.941  0.00  0.00    +0.000 A 
ATOM     23  C   UNL     1     140.826 128.697 132.895  0.00  0.00    +0.000 A 
ATOM     24  C   UNL     1     139.894 128.400 131.902  0.00  0.00    +0.000 A 
ATOM     25  C   UNL     1     139.195 127.198 131.948  0.00  0.00    +0.000 A 
BRANCH  22  26
ATOM     26  O   UNL     1     142.007 128.179 134.875  0.00  0.00    +0.000 OA
ATOM     27  C   UNL     1     142.107 127.345 136.000  0.00  0.00    +0.000 C 
ENDBRANCH  22  26
BRANCH  23  28
ATOM     28  O   UNL     1     141.510 129.881 132.844  0.00  0.00    +0.000 OA
ATOM     29  H   UNL     1     141.786 130.042 131.923  0.00  0.00    +0.000 HD
ENDBRANCH  23  28
ENDBRANCH  19  20
ENDBRANCH   4  18
TORSDOF 8
ENDMDL
MODEL 5
REMARK VINA RESULT:      -5.8      8.070     14.991
REMARK  Name = Curcumin.pdbqt.pdb
REMARK  8 active torsions:
REMARK  status: ('A' for Active; 'I' for Inactive)
REMARK    1  A    between atoms: C_2  and  C_4
REMARK    2  A    between atoms: C_5  and  C_6
REMARK    3  A    between atoms: C_8  and  O_12
REMARK    4  A    between atoms: C_9  and  O_14
REMARK    5  A    between atoms: C_16  and  C_18
REMARK    6  A    between atoms: C_19  and  C_20
REMARK    7  A    between atoms: C_22  and  O_26
REMARK    8  A    between atoms: C_23  and  O_28
REMARK                            x       y       z     vdW  Elec       q    Type
REMARK                         _______ _______ _______ _____ _____    ______ ____
ROOT
ATOM      1  C   UNL     1     136.745 121.794 133.928  0.00  0.00    +0.000 C 
ATOM      2  C   UNL     1     136.084 120.869 134.786  0.00  0.00    +0.000 C 
ATOM      3  O   UNL     1     136.564 120.607 135.879  0.00  0.00    +0.000 OA
ATOM      4  C   UNL     1     137.410 122.717 133.069  0.00  0.00    +0.000 C 
ATOM      5  O   UNL     1     137.126 122.753 131.881  0.00  0.00    +0.000 OA
ENDROOT
BRANCH   2   6
ATOM      6  C   UNL     1     134.853 120.251 134.362  0.00  0.00    +0.000 C 
ATOM      7  C   UNL     1     133.826 119.739 134.008  0.00  0.00    +0.000 C 
BRANCH   7   8
ATOM      8  C   UNL     1     132.608 119.128 133.586  0.00  0.00    +0.000 A 
ATOM      9  C   UNL     1     132.382 118.891 132.231  0.00  0.00    +0.000 A 
ATOM     10  C   UNL     1     131.194 118.293 131.800  0.00  0.00    +0.000 A 
ATOM     11  C   UNL     1     130.235 117.939 132.754  0.00  0.00    +0.000 A 
ATOM     12  C   UNL     1     130.458 118.175 134.110  0.00  0.00    +0.000 A 
ATOM     13  C   UNL     1     131.646 118.771 134.526  0.00  0.00    +0.000 A 
BRANCH  10  14
ATOM     14  O   UNL     1     130.903 118.028 130.485  0.00  0.00    +0.000 OA
ATOM     15  C   UNL     1     131.949 118.212 129.573  0.00  0.00    +0.000 C 
ENDBRANCH  10  14
BRANCH  11  16
ATOM     16  O   UNL     1     129.045 117.351 132.428  0.00  0.00    +0.000 OA
ATOM     17  H   UNL     1     128.653 116.915 133.204  0.00  0.00    +0.000 HD
ENDBRANCH  11  16
ENDBRANCH   7   8
ENDBRANCH   2   6
BRANCH   4  18
ATOM     18  C   UNL     1     138.412 123.601 133.608  0.00  0.00    +0.000 C 
ATOM     19  C   UNL     1     139.250 124.339 134.053  0.00  0.00    +0.000 C 
BRANCH  19  20
ATOM     20  C   UNL     1     140.245 125.214 134.578  0.00  0.00    +0.000 A 
ATOM     21  C   UNL     1     141.015 124.814 135.669  0.00  0.00    +0.000 A 
ATOM     22  C   UNL     1     141.995 125.660 136.195  0.00  0.00    +0.000 A 
ATOM     23  C   UNL     1     142.187 126.913 135.606  0.00  0.00    +0.000 A 
ATOM     24  C   UNL     1     141.420 127.318 134.515  0.00  0.00    +0.000 A 
ATOM     25  C   UNL     1     140.447 126.466 134.001  0.00  0.00    +0.000 A 
BRANCH  22  26
ATOM     26  O   UNL     1     142.797 125.345 137.266  0.00  0.00    +0.000 OA
ATOM     27  C   UNL     1     143.677 124.270 137.067  0.00  0.00    +0.000 C 
ENDBRANCH  22  26
BRANCH  23  28
ATOM     28  O   UNL     1     143.142 127.755 136.107  0.00  0.00    +0.000 OA
ATOM     29  H   UNL     1     142.709 128.403 136.693  0.00  0.00    +0.000 HD
ENDBRANCH  23  28
ENDBRANCH  19  20
ENDBRANCH   4  18
TORSDOF 8
ENDMDL
MODEL 6
REMARK VINA RESULT:      -5.8      8.397     12.957
REMARK  Name = Curcumin.pdbqt.pdb
REMARK  8 active torsions:
REMARK  status: ('A' for Active; 'I' for Inactive)
REMARK    1  A    between atoms: C_2  and  C_4
REMARK    2  A    between atoms: C_5  and  C_6
REMARK    3  A    between atoms: C_8  and  O_12
REMARK    4  A    between atoms: C_9  and  O_14
REMARK    5  A    between atoms: C_16  and  C_18
REMARK    6  A    between atoms: C_19  and  C_20
REMARK    7  A    between atoms: C_22  and  O_26
REMARK    8  A    between atoms: C_23  and  O_28
REMARK                            x       y       z     vdW  Elec       q    Type
REMARK                         _______ _______ _______ _____ _____    ______ ____
ROOT
ATOM      1  C   UNL     1     135.026 122.453 133.682  0.00  0.00    +0.000 C 
ATOM      2  C   UNL     1     135.627 123.558 134.350  0.00  0.00    +0.000 C 
ATOM      3  O   UNL     1     135.185 123.928 135.428  0.00  0.00    +0.000 OA
ATOM      4  C   UNL     1     134.421 121.350 133.012  0.00  0.00    +0.000 C 
ATOM      5  O   UNL     1     134.638 121.169 131.823  0.00  0.00    +0.000 OA
ENDROOT
BRANCH   2   6
ATOM      6  C   UNL     1     136.754 124.230 133.754  0.00  0.00    +0.000 C 
ATOM      7  C   UNL     1     137.692 124.791 133.256  0.00  0.00    +0.000 C 
BRANCH   7   8
ATOM      8  C   UNL     1     138.807 125.458 132.666  0.00  0.00    +0.000 A 
ATOM      9  C   UNL     1     139.031 126.807 132.934  0.00  0.00    +0.000 A 
ATOM     10  C   UNL     1     140.119 127.477 132.366  0.00  0.00    +0.000 A 
ATOM     11  C   UNL     1     140.977 126.767 131.521  0.00  0.00    +0.000 A 
ATOM     12  C   UNL     1     140.755 125.417 131.250  0.00  0.00    +0.000 A 
ATOM     13  C   UNL     1     139.668 124.762 131.824  0.00  0.00    +0.000 A 
BRANCH  10  14
ATOM     14  O   UNL     1     140.403 128.801 132.585  0.00  0.00    +0.000 OA
ATOM     15  C   UNL     1     140.491 129.199 133.923  0.00  0.00    +0.000 C 
ENDBRANCH  10  14
BRANCH  11  16
ATOM     16  O   UNL     1     142.065 127.335 130.919  0.00  0.00    +0.000 OA
ATOM     17  H   UNL     1     142.876 127.139 131.418  0.00  0.00    +0.000 HD
ENDBRANCH  11  16
ENDBRANCH   7   8
ENDBRANCH   2   6
BRANCH   4  18
ATOM     18  C   UNL     1     133.558 120.457 133.742  0.00  0.00    +0.000 C 
ATOM     19  C   UNL     1     132.839 119.713 134.355  0.00  0.00    +0.000 C 
BRANCH  19  20
ATOM     20  C   UNL     1     131.987 118.834 135.084  0.00  0.00    +0.000 A 
ATOM     21  C   UNL     1     130.887 118.253 134.455  0.00  0.00    +0.000 A 
ATOM     22  C   UNL     1     130.042 117.388 135.156  0.00  0.00    +0.000 A 
ATOM     23  C   UNL     1     130.323 117.117 136.498  0.00  0.00    +0.000 A 
ATOM     24  C   UNL     1     131.422 117.695 137.132  0.00  0.00    +0.000 A 
ATOM     25  C   UNL     1     132.255 118.555 136.423  0.00  0.00    +0.000 A 
BRANCH  22  26
ATOM     26  O   UNL     1     128.939 116.774 134.614  0.00  0.00    +0.000 OA
ATOM     27  C   UNL     1     129.202 115.851 133.590  0.00  0.00    +0.000 C 
ENDBRANCH  22  26
BRANCH  23  28
ATOM     28  O   UNL     1     129.508 116.273 137.202  0.00  0.00    +0.000 OA
ATOM     29  H   UNL     1     129.901 115.381 137.194  0.00  0.00    +0.000 HD
ENDBRANCH  23  28
ENDBRANCH  19  20
ENDBRANCH   4  18
TORSDOF 8
ENDMDL
MODEL 7
REMARK VINA RESULT:      -5.7     10.052     11.577
REMARK  Name = Curcumin.pdbqt.pdb
REMARK  8 active torsions:
REMARK  status: ('A' for Active; 'I' for Inactive)
REMARK    1  A    between atoms: C_2  and  C_4
REMARK    2  A    between atoms: C_5  and  C_6
REMARK    3  A    between atoms: C_8  and  O_12
REMARK    4  A    between atoms: C_9  and  O_14
REMARK    5  A    between atoms: C_16  and  C_18
REMARK    6  A    between atoms: C_19  and  C_20
REMARK    7  A    between atoms: C_22  and  O_26
REMARK    8  A    between atoms: C_23  and  O_28
REMARK                            x       y       z     vdW  Elec       q    Type
REMARK                         _______ _______ _______ _____ _____    ______ ____
ROOT
ATOM      1  C   UNL     1     136.177 125.312 144.037  0.00  0.00    +0.000 C 
ATOM      2  C   UNL     1     136.324 124.902 145.393  0.00  0.00    +0.000 C 
ATOM      3  O   UNL     1     136.096 123.742 145.703  0.00  0.00    +0.000 OA
ATOM      4  C   UNL     1     136.025 125.722 142.680  0.00  0.00    +0.000 C 
ATOM      5  O   UNL     1     135.942 126.912 142.411  0.00  0.00    +0.000 OA
ENDROOT
BRANCH   2   6
ATOM      6  C   UNL     1     136.743 125.855 146.389  0.00  0.00    +0.000 C 
ATOM      7  C   UNL     1     137.092 126.651 147.218  0.00  0.00    +0.000 C 
BRANCH   7   8
ATOM      8  C   UNL     1     137.505 127.596 148.204  0.00  0.00    +0.000 A 
ATOM      9  C   UNL     1     138.217 127.167 149.322  0.00  0.00    +0.000 A 
ATOM     10  C   UNL     1     138.630 128.080 150.298  0.00  0.00    +0.000 A 
ATOM     11  C   UNL     1     138.314 129.432 150.131  0.00  0.00    +0.000 A 
ATOM     12  C   UNL     1     137.601 129.863 149.013  0.00  0.00    +0.000 A 
ATOM     13  C   UNL     1     137.196 128.944 148.048  0.00  0.00    +0.000 A 
BRANCH  10  14
ATOM     14  O   UNL     1     139.334 127.732 151.423  0.00  0.00    +0.000 OA
ATOM     15  C   UNL     1     140.694 127.458 151.239  0.00  0.00    +0.000 C 
ENDBRANCH  10  14
BRANCH  11  16
ATOM     16  O   UNL     1     138.674 130.396 151.030  0.00  0.00    +0.000 OA
ATOM     17  H   UNL     1     139.634 130.545 151.008  0.00  0.00    +0.000 HD
ENDBRANCH  11  16
ENDBRANCH   7   8
ENDBRANCH   2   6
BRANCH   4  18
ATOM     18  C   UNL     1     135.970 124.732 141.635  0.00  0.00    +0.000 C 
ATOM     19  C   UNL     1     135.921 123.907 140.762  0.00  0.00    +0.000 C 
BRANCH  19  20
ATOM     20  C   UNL     1     135.860 122.932 139.725  0.00  0.00    +0.000 A 
ATOM     21  C   UNL     1     136.949 122.755 138.873  0.00  0.00    +0.000 A 
ATOM     22  C   UNL     1     136.906 121.803 137.851  0.00  0.00    +0.000 A 
ATOM     23  C   UNL     1     135.750 121.032 137.702  0.00  0.00    +0.000 A 
ATOM     24  C   UNL     1     134.657 121.204 138.551  0.00  0.00    +0.000 A 
ATOM     25  C   UNL     1     134.714 122.156 139.564  0.00  0.00    +0.000 A 
BRANCH  22  26
ATOM     26  O   UNL     1     137.932 121.565 136.969  0.00  0.00    +0.000 OA
ATOM     27  C   UNL     1     138.085 122.515 135.947  0.00  0.00    +0.000 C 
ENDBRANCH  22  26
BRANCH  23  28
ATOM     28  O   UNL     1     135.687 120.094 136.707  0.00  0.00    +0.000 OA
ATOM     29  H   UNL     1     136.578 119.723 136.571  0.00  0.00    +0.000 HD
ENDBRANCH  23  28
ENDBRANCH  19  20
ENDBRANCH   4  18
TORSDOF 8
ENDMDL
MODEL 8
REMARK VINA RESULT:      -5.7     33.906     39.232
REMARK  Name = Curcumin.pdbqt.pdb
REMARK  8 active torsions:
REMARK  status: ('A' for Active; 'I' for Inactive)
REMARK    1  A    between atoms: C_2  and  C_4
REMARK    2  A    between atoms: C_5  and  C_6
REMARK    3  A    between atoms: C_8  and  O_12
REMARK    4  A    between atoms: C_9  and  O_14
REMARK    5  A    between atoms: C_16  and  C_18
REMARK    6  A    between atoms: C_19  and  C_20
REMARK    7  A    between atoms: C_22  and  O_26
REMARK    8  A    between atoms: C_23  and  O_28
REMARK                            x       y       z     vdW  Elec       q    Type
REMARK                         _______ _______ _______ _____ _____    ______ ____
ROOT
ATOM      1  C   UNL     1     142.091 128.365  97.428  0.00  0.00    +0.000 C 
ATOM      2  C   UNL     1     142.589 129.157  98.503  0.00  0.00    +0.000 C 
ATOM      3  O   UNL     1     142.674 130.369  98.374  0.00  0.00    +0.000 OA
ATOM      4  C   UNL     1     141.597 127.575  96.350  0.00  0.00    +0.000 C 
ATOM      5  O   UNL     1     141.795 126.368  96.342  0.00  0.00    +0.000 OA
ENDROOT
BRANCH   2   6
ATOM      6  C   UNL     1     142.986 128.524  99.735  0.00  0.00    +0.000 C 
ATOM      7  C   UNL     1     143.316 127.997 100.764  0.00  0.00    +0.000 C 
BRANCH   7   8
ATOM      8  C   UNL     1     143.706 127.370 101.984  0.00  0.00    +0.000 A 
ATOM      9  C   UNL     1     144.967 127.621 102.522  0.00  0.00    +0.000 A 
ATOM     10  C   UNL     1     145.366 127.015 103.717  0.00  0.00    +0.000 A 
ATOM     11  C   UNL     1     144.476 126.152 104.363  0.00  0.00    +0.000 A 
ATOM     12  C   UNL     1     143.214 125.899 103.827  0.00  0.00    +0.000 A 
ATOM     13  C   UNL     1     142.829 126.508 102.636  0.00  0.00    +0.000 A 
BRANCH  10  14
ATOM     14  O   UNL     1     146.589 127.215 104.306  0.00  0.00    +0.000 OA
ATOM     15  C   UNL     1     147.644 126.438 103.815  0.00  0.00    +0.000 C 
ENDBRANCH  10  14
BRANCH  11  16
ATOM     16  O   UNL     1     144.777 125.514 105.534  0.00  0.00    +0.000 OA
ATOM     17  H   UNL     1     144.831 126.150 106.267  0.00  0.00    +0.000 HD
ENDBRANCH  11  16
ENDBRANCH   7   8
ENDBRANCH   2   6
BRANCH   4  18
ATOM     18  C   UNL     1     140.867 128.202  95.279  0.00  0.00    +0.000 C 
ATOM     19  C   UNL     1     140.261 128.730  94.385  0.00  0.00    +0.000 C 
BRANCH  19  20
ATOM     20  C   UNL     1     139.544 129.358  93.325  0.00  0.00    +0.000 A 
ATOM     21  C   UNL     1     139.191 130.703  93.428  0.00  0.00    +0.000 A 
ATOM     22  C   UNL     1     138.489 131.334  92.398  0.00  0.00    +0.000 A 
ATOM     23  C   UNL     1     138.148 130.591  91.264  0.00  0.00    +0.000 A 
ATOM     24  C   UNL     1     138.498 129.246  91.157  0.00  0.00    +0.000 A 
ATOM     25  C   UNL     1     139.197 128.629  92.190  0.00  0.00    +0.000 A 
BRANCH  22  26
ATOM     26  O   UNL     1     138.103 132.653  92.418  0.00  0.00    +0.000 OA
ATOM     27  C   UNL     1     139.127 133.579  92.671  0.00  0.00    +0.000 C 
ENDBRANCH  22  26
BRANCH  23  28
ATOM     28  O   UNL     1     137.460 131.190  90.245  0.00  0.00    +0.000 OA
ATOM     29  H   UNL     1     137.213 130.510  89.593  0.00  0.00    +0.000 HD
ENDBRANCH  23  28
ENDBRANCH  19  20
ENDBRANCH   4  18
TORSDOF 8
ENDMDL
MODEL 9
REMARK VINA RESULT:      -5.5     28.855     35.718
REMARK  Name = Curcumin.pdbqt.pdb
REMARK  8 active torsions:
REMARK  status: ('A' for Active; 'I' for Inactive)
REMARK    1  A    between atoms: C_2  and  C_4
REMARK    2  A    between atoms: C_5  and  C_6
REMARK    3  A    between atoms: C_8  and  O_12
REMARK    4  A    between atoms: C_9  and  O_14
REMARK    5  A    between atoms: C_16  and  C_18
REMARK    6  A    between atoms: C_19  and  C_20
REMARK    7  A    between atoms: C_22  and  O_26
REMARK    8  A    between atoms: C_23  and  O_28
REMARK                            x       y       z     vdW  Elec       q    Type
REMARK                         _______ _______ _______ _____ _____    ______ ____
ROOT
ATOM      1  C   UNL     1     141.766 113.535 105.622  0.00  0.00    +0.000 C 
ATOM      2  C   UNL     1     142.472 114.741 105.898  0.00  0.00    +0.000 C 
ATOM      3  O   UNL     1     142.883 115.427 104.974  0.00  0.00    +0.000 OA
ATOM      4  C   UNL     1     141.063 112.327 105.344  0.00  0.00    +0.000 C 
ATOM      5  O   UNL     1     140.924 111.489 106.224  0.00  0.00    +0.000 OA
ENDROOT
BRANCH   2   6
ATOM      6  C   UNL     1     142.693 115.146 107.263  0.00  0.00    +0.000 C 
ATOM      7  C   UNL     1     142.876 115.485 108.401  0.00  0.00    +0.000 C 
BRANCH   7   8
ATOM      8  C   UNL     1     143.092 115.887 109.753  0.00  0.00    +0.000 A 
ATOM      9  C   UNL     1     142.701 117.156 110.172  0.00  0.00    +0.000 A 
ATOM     10  C   UNL     1     142.904 117.566 111.493  0.00  0.00    +0.000 A 
ATOM     11  C   UNL     1     143.510 116.677 112.386  0.00  0.00    +0.000 A 
ATOM     12  C   UNL     1     143.903 115.406 111.969  0.00  0.00    +0.000 A 
ATOM     13  C   UNL     1     143.694 115.010 110.651  0.00  0.00    +0.000 A 
BRANCH  10  14
ATOM     14  O   UNL     1     142.544 118.799 111.977  0.00  0.00    +0.000 OA
ATOM     15  C   UNL     1     142.813 119.891 111.144  0.00  0.00    +0.000 C 
ENDBRANCH  10  14
BRANCH  11  16
ATOM     16  O   UNL     1     143.751 116.988 113.696  0.00  0.00    +0.000 OA
ATOM     17  H   UNL     1     143.817 116.181 114.234  0.00  0.00    +0.000 HD
ENDBRANCH  11  16
ENDBRANCH   7   8
ENDBRANCH   2   6
BRANCH   4  18
ATOM     18  C   UNL     1     140.522 112.100 104.028  0.00  0.00    +0.000 C 
ATOM     19  C   UNL     1     140.069 111.915 102.930  0.00  0.00    +0.000 C 
BRANCH  19  20
ATOM     20  C   UNL     1     139.530 111.700 101.629  0.00  0.00    +0.000 A 
ATOM     21  C   UNL     1     139.521 112.739 100.700  0.00  0.00    +0.000 A 
ATOM     22  C   UNL     1     138.996 112.544  99.419  0.00  0.00    +0.000 A 
ATOM     23  C   UNL     1     138.481 111.288  99.089  0.00  0.00    +0.000 A 
ATOM     24  C   UNL     1     138.487 110.245 100.015  0.00  0.00    +0.000 A 
ATOM     25  C   UNL     1     139.012 110.452 101.286  0.00  0.00    +0.000 A 
BRANCH  22  26
ATOM     26  O   UNL     1     138.949 113.513  98.446  0.00  0.00    +0.000 OA
ATOM     27  C   UNL     1     137.928 114.465  98.588  0.00  0.00    +0.000 C 
ENDBRANCH  22  26
BRANCH  23  28
ATOM     28  O   UNL     1     137.963 111.077  97.841  0.00  0.00    +0.000 OA
ATOM     29  H   UNL     1     137.604 111.918  97.506  0.00  0.00    +0.000 HD
ENDBRANCH  23  28
ENDBRANCH  19  20
ENDBRANCH   4  18
TORSDOF 8
ENDMDL
