MODEL 1
REMARK VINA RESULT:      -8.9      0.000      0.000
REMARK  Name = Cyclosporin_A.pdbqt.pdb
REMARK  4 active torsions:
REMARK  status: ('A' for Active; 'I' for Inactive)
REMARK    1  A    between atoms: N_13  and  C_36
REMARK    2  A    between atoms: C_36  and  O_70
REMARK    3  A    between atoms: C_72  and  C_73
REMARK    4  A    between atoms: C_75  and  C_76
REMARK                            x       y       z     vdW  Elec       q    Type
REMARK                         _______ _______ _______ _____ _____    ______ ____
ROOT
ATOM      1  O   UNL     1     138.410 140.648 137.588  0.00  0.00    +0.000 OA
ATOM      2  O   UNL     1     141.022 136.234 137.482  0.00  0.00    +0.000 OA
ATOM      3  O   UNL     1     137.504 133.042 138.072  0.00  0.00    +0.000 OA
ATOM      4  O   UNL     1     134.441 140.977 140.441  0.00  0.00    +0.000 OA
ATOM      5  O   UNL     1     139.455 134.965 133.803  0.00  0.00    +0.000 OA
ATOM      6  O   UNL     1     128.846 135.810 130.085  0.00  0.00    +0.000 OA
ATOM      7  O   UNL     1     134.235 143.227 135.344  0.00  0.00    +0.000 OA
ATOM      8  O   UNL     1     128.036 138.105 134.368  0.00  0.00    +0.000 OA
ATOM      9  O   UNL     1     132.770 133.003 129.645  0.00  0.00    +0.000 OA
ATOM     10  O   UNL     1     130.136 141.558 135.098  0.00  0.00    +0.000 OA
ATOM     11  O   UNL     1     136.393 135.077 130.731  0.00  0.00    +0.000 OA
ATOM     12  N   UNL     1     139.472 137.362 137.759  0.00  0.00    +0.000 NA
ATOM     13  N   UNL     1     136.926 138.980 138.483  0.00  0.00    +0.000 NA
ATOM     14  N   UNL     1     139.107 134.150 137.693  0.00  0.00    +0.000 NA
ATOM     15  N   UNL     1     137.800 133.315 134.917  0.00  0.00    +0.000 NA
ATOM     16  N   UNL     1     134.312 140.557 138.042  0.00  0.00    +0.000 NA
ATOM     17  N   UNL     1     129.851 134.414 131.692  0.00  0.00    +0.000 N 
ATOM     18  N   UNL     1     129.837 137.080 133.280  0.00  0.00    +0.000 N 
ATOM     19  N   UNL     1     130.298 139.746 134.338  0.00  0.00    +0.000 NA
ATOM     20  N   UNL     1     133.746 141.021 135.080  0.00  0.00    +0.000 NA
ATOM     21  N   UNL     1     135.963 134.884 133.169  0.00  0.00    +0.000 NA
ATOM     22  N   UNL     1     132.931 134.670 131.384  0.00  0.00    +0.000 NA
ATOM     23  C   UNL     1     139.163 138.596 137.267  0.00  0.00    +0.000 C 
ATOM     24  C   UNL     1     138.690 135.410 137.841  0.00  0.00    +0.000 C 
ATOM     25  C   UNL     1     136.283 139.801 139.390  0.00  0.00    +0.000 C 
ATOM     26  C   UNL     1     140.107 139.474 136.765  0.00  0.00    +0.000 C 
ATOM     27  C   UNL     1     138.068 135.240 139.174  0.00  0.00    +0.000 C 
ATOM     28  C   UNL     1     138.105 139.300 137.802  0.00  0.00    +0.000 C 
ATOM     29  C   UNL     1     139.756 136.076 137.337  0.00  0.00    +0.000 C 
ATOM     30  C   UNL     1     138.656 133.195 135.894  0.00  0.00    +0.000 C 
ATOM     31  C   UNL     1     138.066 133.614 137.049  0.00  0.00    +0.000 C 
ATOM     32  C   UNL     1     134.847 140.202 139.299  0.00  0.00    +0.000 C 
ATOM     33  C   UNL     1     141.305 138.756 137.067  0.00  0.00    +0.000 C 
ATOM     34  C   UNL     1     139.714 140.716 137.137  0.00  0.00    +0.000 C 
ATOM     35  C   UNL     1     140.820 137.532 137.501  0.00  0.00    +0.000 C 
ATOM     36  C   UNL     1     138.517 133.616 138.872  0.00  0.00    +0.000 C 
ATOM     37  C   UNL     1     134.324 141.862 137.487  0.00  0.00    +0.000 C 
ATOM     38  C   UNL     1     129.313 136.855 132.033  0.00  0.00    +0.000 A 
ATOM     39  C   UNL     1     138.291 134.451 134.432  0.00  0.00    +0.000 C 
ATOM     40  C   UNL     1     130.797 133.754 130.867  0.00  0.00    +0.000 C 
ATOM     41  C   UNL     1     129.768 138.780 135.126  0.00  0.00    +0.000 C 
ATOM     42  C   UNL     1     138.312 132.042 134.346  0.00  0.00    +0.000 C 
ATOM     43  C   UNL     1     128.638 137.758 131.156  0.00  0.00    +0.000 A 
ATOM     44  C   UNL     1     129.716 132.479 130.166  0.00  0.00    +0.000 C 
ATOM     45  C   UNL     1     137.206 134.948 133.537  0.00  0.00    +0.000 C 
ATOM     46  C   UNL     1     128.323 139.173 135.273  0.00  0.00    +0.000 C 
ATOM     47  C   UNL     1     134.649 142.880 138.432  0.00  0.00    +0.000 C 
ATOM     48  C   UNL     1     129.396 135.655 131.335  0.00  0.00    +0.000 A 
ATOM     49  C   UNL     1     134.127 142.042 136.157  0.00  0.00    +0.000 C 
ATOM     50  C   UNL     1     129.307 137.884 134.174  0.00  0.00    +0.000 C 
ATOM     51  C   UNL     1     132.143 133.846 130.603  0.00  0.00    +0.000 C 
ATOM     52  C   UNL     1     132.338 140.639 135.222  0.00  0.00    +0.000 C 
ATOM     53  C   UNL     1     128.337 139.221 131.347  0.00  0.00    +0.000 C 
ATOM     54  C   UNL     1     128.381 137.086 129.989  0.00  0.00    +0.000 A 
ATOM     55  C   UNL     1     130.936 140.448 135.327  0.00  0.00    +0.000 C 
ATOM     56  C   UNL     1     134.206 134.841 131.246  0.00  0.00    +0.000 C 
ATOM     57  C   UNL     1     138.458 135.341 133.150  0.00  0.00    +0.000 C 
ATOM     58  C   UNL     1     129.232 133.376 131.084  0.00  0.00    +0.000 C 
ATOM     59  C   UNL     1     134.978 143.065 139.570  0.00  0.00    +0.000 C 
ATOM     60  C   UNL     1     135.564 134.967 131.908  0.00  0.00    +0.000 C 
ATOM     61  C   UNL     1     129.124 140.782 134.384  0.00  0.00    +0.000 C 
ATOM     62  C   UNL     1     133.932 142.252 134.644  0.00  0.00    +0.000 C 
ATOM     63  C   UNL     1     135.218 134.940 130.350  0.00  0.00    +0.000 C 
ATOM     64  H   UNL     1     134.585 139.889 137.321  0.00  0.00    +0.000 HD
ATOM     65  H   UNL     1     130.797 136.776 133.424  0.00  0.00    +0.000 HD
ATOM     66  H   UNL     1     135.299 134.508 133.840  0.00  0.00    +0.000 HD
ATOM     67  H   UNL     1     132.501 134.837 132.289  0.00  0.00    +0.000 HD
ATOM     68  C   UNL     1     136.926 140.609 140.187  0.00  0.00    +0.000 C 
ATOM     69  C   UNL     1     136.632 141.800 140.908  0.00  0.00    +0.000 C 
ATOM     70  C   UNL     1     135.223 142.167 140.659  0.00  0.00    +0.000 C 
ATOM     71  C   UNL     1     138.517 135.208 140.785  0.00  0.00    +0.000 C 
ATOM     72  C   UNL     1     137.820 135.687 141.814  0.00  0.00    +0.000 C 
ATOM     73  C   UNL     1     138.622 133.962 140.161  0.00  0.00    +0.000 C 
ATOM     74  C   UNL     1     139.158 131.875 135.486  0.00  0.00    +0.000 C 
ATOM     75  C   UNL     1     139.658 131.383 134.288  0.00  0.00    +0.000 C 
ATOM     76  C   UNL     1     139.869 129.870 134.067  0.00  0.00    +0.000 C 
ATOM     77  C   UNL     1     139.062 131.967 133.187  0.00  0.00    +0.000 C 
ATOM     78  C   UNL     1     127.322 140.110 136.099  0.00  0.00    +0.000 C 
ATOM     79  C   UNL     1     126.041 140.032 136.453  0.00  0.00    +0.000 C 
ATOM     80  C   UNL     1     128.062 140.917 135.235  0.00  0.00    +0.000 C 
ATOM     81  C   UNL     1     130.467 131.772 129.318  0.00  0.00    +0.000 C 
ATOM     82  C   UNL     1     129.923 130.616 128.546  0.00  0.00    +0.000 C 
ATOM     83  C   UNL     1     131.823 132.168 129.217  0.00  0.00    +0.000 C 
ENDROOT
BRANCH  69  84
ATOM     84  C   UNL     1     137.577 142.715 141.426  0.00  0.00    +0.000 C 
ATOM     85  C   UNL     1     138.386 143.490 141.862  0.00  0.00    +0.000 C 
BRANCH  85  86
ATOM     86  C   UNL     1     139.421 144.475 142.415  0.00  0.00    +0.000 C 
ATOM     87  C   UNL     1     140.325 145.327 142.895  0.00  0.00    +0.000 C 
ENDBRANCH  85  86
ENDBRANCH  69  84
BRANCH  13  88
ATOM     88  C   UNL     1     136.184 137.828 137.997  0.00  0.00    +0.000 C 
BRANCH  88  89
ATOM     89  O   UNL     1     135.488 136.792 137.548  0.00  0.00    +0.000 OA
ATOM     90  H   UNL     1     135.464 136.804 136.575  0.00  0.00    +0.000 HD
ENDBRANCH  88  89
ENDBRANCH  13  88
TORSDOF 4
ENDMDL
MODEL 2
REMARK VINA RESULT:      -8.5     17.807     21.778
REMARK  Name = Cyclosporin_A.pdbqt.pdb
REMARK  4 active torsions:
REMARK  status: ('A' for Active; 'I' for Inactive)
REMARK    1  A    between atoms: N_13  and  C_36
REMARK    2  A    between atoms: C_36  and  O_70
REMARK    3  A    between atoms: C_72  and  C_73
REMARK    4  A    between atoms: C_75  and  C_76
REMARK                            x       y       z     vdW  Elec       q    Type
REMARK                         _______ _______ _______ _____ _____    ______ ____
ROOT
ATOM      1  O   UNL     1     155.505 136.076 134.601  0.00  0.00    +0.000 OA
ATOM      2  O   UNL     1     155.844 131.669 137.203  0.00  0.00    +0.000 OA
ATOM      3  O   UNL     1     152.946 128.840 134.649  0.00  0.00    +0.000 OA
ATOM      4  O   UNL     1     151.264 137.220 132.430  0.00  0.00    +0.000 OA
ATOM      5  O   UNL     1     157.936 129.623 134.197  0.00  0.00    +0.000 OA
ATOM      6  O   UNL     1     156.233 129.959 123.058  0.00  0.00    +0.000 OA
ATOM      7  O   UNL     1     156.006 138.204 129.666  0.00  0.00    +0.000 OA
ATOM      8  O   UNL     1     152.725 133.232 124.177  0.00  0.00    +0.000 OA
ATOM      9  O   UNL     1     157.843 126.982 126.526  0.00  0.00    +0.000 OA
ATOM     10  O   UNL     1     153.885 136.679 126.085  0.00  0.00    +0.000 OA
ATOM     11  O   UNL     1     159.113 129.118 130.051  0.00  0.00    +0.000 OA
ATOM     12  N   UNL     1     155.124 132.887 135.880  0.00  0.00    +0.000 NA
ATOM     13  N   UNL     1     153.661 134.725 133.853  0.00  0.00    +0.000 NA
ATOM     14  N   UNL     1     154.280 129.766 135.789  0.00  0.00    +0.000 NA
ATOM     15  N   UNL     1     155.829 128.347 133.401  0.00  0.00    +0.000 NA
ATOM     16  N   UNL     1     153.147 136.249 131.221  0.00  0.00    +0.000 NA
ATOM     17  N   UNL     1     155.031 128.946 124.811  0.00  0.00    +0.000 N 
ATOM     18  N   UNL     1     154.276 131.911 125.330  0.00  0.00    +0.000 N 
ATOM     19  N   UNL     1     154.199 134.733 126.017  0.00  0.00    +0.000 NA
ATOM     20  N   UNL     1     155.499 136.018 129.291  0.00  0.00    +0.000 NA
ATOM     21  N   UNL     1     156.794 129.525 130.837  0.00  0.00    +0.000 NA
ATOM     22  N   UNL     1     156.817 129.007 127.351  0.00  0.00    +0.000 NA
ATOM     23  C   UNL     1     155.674 133.980 135.277  0.00  0.00    +0.000 C 
ATOM     24  C   UNL     1     154.241 131.041 135.391  0.00  0.00    +0.000 C 
ATOM     25  C   UNL     1     152.770 135.760 133.649  0.00  0.00    +0.000 C 
ATOM     26  C   UNL     1     156.749 134.678 135.798  0.00  0.00    +0.000 C 
ATOM     27  C   UNL     1     152.774 131.215 135.486  0.00  0.00    +0.000 C 
ATOM     28  C   UNL     1     154.873 134.830 134.542  0.00  0.00    +0.000 C 
ATOM     29  C   UNL     1     155.327 131.528 136.036  0.00  0.00    +0.000 C 
ATOM     30  C   UNL     1     155.379 128.430 134.623  0.00  0.00    +0.000 C 
ATOM     31  C   UNL     1     154.211 129.132 134.615  0.00  0.00    +0.000 C 
ATOM     32  C   UNL     1     152.253 136.181 132.312  0.00  0.00    +0.000 C 
ATOM     33  C   UNL     1     156.900 134.007 137.051  0.00  0.00    +0.000 C 
ATOM     34  C   UNL     1     156.525 135.987 135.528  0.00  0.00    +0.000 C 
ATOM     35  C   UNL     1     156.023 132.940 136.929  0.00  0.00    +0.000 C 
ATOM     36  C   UNL     1     152.878 129.550 135.869  0.00  0.00    +0.000 C 
ATOM     37  C   UNL     1     153.919 137.383 130.864  0.00  0.00    +0.000 C 
ATOM     38  C   UNL     1     155.036 131.417 124.301  0.00  0.00    +0.000 A 
ATOM     39  C   UNL     1     156.731 129.316 133.512  0.00  0.00    +0.000 C 
ATOM     40  C   UNL     1     156.034 128.075 125.307  0.00  0.00    +0.000 C 
ATOM     41  C   UNL     1     153.058 134.002 126.000  0.00  0.00    +0.000 C 
ATOM     42  C   UNL     1     156.270 126.957 133.686  0.00  0.00    +0.000 C 
ATOM     43  C   UNL     1     155.663 132.111 123.221  0.00  0.00    +0.000 A 
ATOM     44  C   UNL     1     155.826 126.712 124.131  0.00  0.00    +0.000 C 
ATOM     45  C   UNL     1     157.087 129.628 132.097  0.00  0.00    +0.000 C 
ATOM     46  C   UNL     1     152.334 134.473 124.768  0.00  0.00    +0.000 C 
ATOM     47  C   UNL     1     153.500 138.583 131.513  0.00  0.00    +0.000 C 
ATOM     48  C   UNL     1     155.397 130.083 124.142  0.00  0.00    +0.000 A 
ATOM     49  C   UNL     1     154.996 137.250 130.051  0.00  0.00    +0.000 C 
ATOM     50  C   UNL     1     153.446 132.924 125.221  0.00  0.00    +0.000 C 
ATOM     51  C   UNL     1     156.920 128.051 126.358  0.00  0.00    +0.000 C 
ATOM     52  C   UNL     1     154.621 135.733 128.153  0.00  0.00    +0.000 C 
ATOM     53  C   UNL     1     155.688 133.588 122.928  0.00  0.00    +0.000 C 
ATOM     54  C   UNL     1     156.381 131.192 122.500  0.00  0.00    +0.000 A 
ATOM     55  C   UNL     1     153.821 135.625 126.986  0.00  0.00    +0.000 C 
ATOM     56  C   UNL     1     157.580 129.093 128.392  0.00  0.00    +0.000 C 
ATOM     57  C   UNL     1     158.101 129.871 132.983  0.00  0.00    +0.000 C 
ATOM     58  C   UNL     1     155.018 127.818 124.065  0.00  0.00    +0.000 C 
ATOM     59  C   UNL     1     152.732 139.021 132.323  0.00  0.00    +0.000 C 
ATOM     60  C   UNL     1     157.693 129.321 129.886  0.00  0.00    +0.000 C 
ATOM     61  C   UNL     1     153.835 135.794 124.923  0.00  0.00    +0.000 C 
ATOM     62  C   UNL     1     156.236 137.103 129.150  0.00  0.00    +0.000 C 
ATOM     63  C   UNL     1     158.846 128.939 128.851  0.00  0.00    +0.000 C 
ATOM     64  H   UNL     1     153.739 135.419 131.176  0.00  0.00    +0.000 HD
ATOM     65  H   UNL     1     154.542 131.615 126.266  0.00  0.00    +0.000 HD
ATOM     66  H   UNL     1     155.822 129.344 130.601  0.00  0.00    +0.000 HD
ATOM     67  H   UNL     1     155.881 129.399 127.386  0.00  0.00    +0.000 HD
ATOM     68  C   UNL     1     152.581 136.710 134.524  0.00  0.00    +0.000 C 
ATOM     69  C   UNL     1     152.097 138.048 134.507  0.00  0.00    +0.000 C 
ATOM     70  C   UNL     1     151.720 138.398 133.124  0.00  0.00    +0.000 C 
ATOM     71  C   UNL     1     151.612 131.549 136.641  0.00  0.00    +0.000 C 
ATOM     72  C   UNL     1     150.513 132.283 136.475  0.00  0.00    +0.000 C 
ATOM     73  C   UNL     1     151.910 130.187 136.541  0.00  0.00    +0.000 C 
ATOM     74  C   UNL     1     155.667 127.033 134.979  0.00  0.00    +0.000 C 
ATOM     75  C   UNL     1     156.812 126.253 134.894  0.00  0.00    +0.000 C 
ATOM     76  C   UNL     1     156.759 124.724 135.098  0.00  0.00    +0.000 C 
ATOM     77  C   UNL     1     157.596 126.581 133.804  0.00  0.00    +0.000 C 
ATOM     78  C   UNL     1     151.367 135.615 124.202  0.00  0.00    +0.000 C 
ATOM     79  C   UNL     1     150.439 135.671 123.250  0.00  0.00    +0.000 C 
ATOM     80  C   UNL     1     152.636 136.166 124.380  0.00  0.00    +0.000 C 
ATOM     81  C   UNL     1     156.745 125.796 124.448  0.00  0.00    +0.000 C 
ATOM     82  C   UNL     1     156.881 124.511 123.701  0.00  0.00    +0.000 C 
ATOM     83  C   UNL     1     157.566 126.106 125.560  0.00  0.00    +0.000 C 
ENDROOT
BRANCH  69  84
ATOM     84  C   UNL     1     152.314 139.024 135.508  0.00  0.00    +0.000 C 
ATOM     85  C   UNL     1     152.504 139.848 136.361  0.00  0.00    +0.000 C 
BRANCH  85  86
ATOM     86  C   UNL     1     152.748 140.897 137.451  0.00  0.00    +0.000 C 
ATOM     87  C   UNL     1     152.956 141.808 138.400  0.00  0.00    +0.000 C 
ENDBRANCH  85  86
ENDBRANCH  69  84
BRANCH  13  88
ATOM     88  C   UNL     1     153.460 133.519 133.066  0.00  0.00    +0.000 C 
BRANCH  88  89
ATOM     89  O   UNL     1     153.283 132.432 132.328  0.00  0.00    +0.000 OA
ATOM     90  H   UNL     1     154.042 131.831 132.431  0.00  0.00    +0.000 HD
ENDBRANCH  88  89
ENDBRANCH  13  88
TORSDOF 4
ENDMDL
MODEL 3
REMARK VINA RESULT:      -8.4     31.445     39.724
REMARK  Name = Cyclosporin_A.pdbqt.pdb
REMARK  4 active torsions:
REMARK  status: ('A' for Active; 'I' for Inactive)
REMARK    1  A    between atoms: N_13  and  C_36
REMARK    2  A    between atoms: C_36  and  O_70
REMARK    3  A    between atoms: C_72  and  C_73
REMARK    4  A    between atoms: C_75  and  C_76
REMARK                            x       y       z     vdW  Elec       q    Type
REMARK                         _______ _______ _______ _____ _____    ______ ____
ROOT
ATOM      1  O   UNL     1     131.648 110.950 105.246  0.00  0.00    +0.000 OA
ATOM      2  O   UNL     1     132.946 112.057 100.409  0.00  0.00    +0.000 OA
ATOM      3  O   UNL     1     135.565 116.019 101.017  0.00  0.00    +0.000 OA
ATOM      4  O   UNL     1     130.925 114.629 108.401  0.00  0.00    +0.000 OA
ATOM      5  O   UNL     1     137.014 111.159 100.902  0.00  0.00    +0.000 OA
ATOM      6  O   UNL     1     143.676 113.597 109.664  0.00  0.00    +0.000 OA
ATOM      7  O   UNL     1     133.704 110.130 110.168  0.00  0.00    +0.000 OA
ATOM      8  O   UNL     1     139.583 115.509 111.628  0.00  0.00    +0.000 OA
ATOM      9  O   UNL     1     143.869 112.917 104.870  0.00  0.00    +0.000 OA
ATOM     10  O   UNL     1     136.405 112.977 112.229  0.00  0.00    +0.000 OA
ATOM     11  O   UNL     1     140.517 110.631 103.408  0.00  0.00    +0.000 OA
ATOM     12  N   UNL     1     132.782 112.383 102.311  0.00  0.00    +0.000 NA
ATOM     13  N   UNL     1     132.430 113.225 105.276  0.00  0.00    +0.000 NA
ATOM     14  N   UNL     1     134.633 114.338 100.520  0.00  0.00    +0.000 NA
ATOM     15  N   UNL     1     137.690 113.653 101.066  0.00  0.00    +0.000 NA
ATOM     16  N   UNL     1     133.007 113.363 108.303  0.00  0.00    +0.000 NA
ATOM     17  N   UNL     1     142.774 114.930 107.945  0.00  0.00    +0.000 N 
ATOM     18  N   UNL     1     140.206 114.469 109.626  0.00  0.00    +0.000 N 
ATOM     19  N   UNL     1     137.847 113.422 110.960  0.00  0.00    +0.000 NA
ATOM     20  N   UNL     1     135.237 111.450 109.127  0.00  0.00    +0.000 NA
ATOM     21  N   UNL     1     138.946 112.550 103.536  0.00  0.00    +0.000 NA
ATOM     22  N   UNL     1     141.630 113.032 105.769  0.00  0.00    +0.000 NA
ATOM     23  C   UNL     1     132.643 111.519 103.358  0.00  0.00    +0.000 C 
ATOM     24  C   UNL     1     134.040 113.933 101.647  0.00  0.00    +0.000 C 
ATOM     25  C   UNL     1     131.581 113.678 106.268  0.00  0.00    +0.000 C 
ATOM     26  C   UNL     1     132.190 110.220 103.219  0.00  0.00    +0.000 C 
ATOM     27  C   UNL     1     133.371 115.213 101.970  0.00  0.00    +0.000 C 
ATOM     28  C   UNL     1     132.304 112.006 104.604  0.00  0.00    +0.000 C 
ATOM     29  C   UNL     1     133.648 112.691 101.278  0.00  0.00    +0.000 C 
ATOM     30  C   UNL     1     136.667 113.929 100.305  0.00  0.00    +0.000 C 
ATOM     31  C   UNL     1     135.816 114.745 100.989  0.00  0.00    +0.000 C 
ATOM     32  C   UNL     1     132.024 114.116 107.626  0.00  0.00    +0.000 C 
ATOM     33  C   UNL     1     131.847 110.220 101.832  0.00  0.00    +0.000 C 
ATOM     34  C   UNL     1     131.427 109.960 104.309  0.00  0.00    +0.000 C 
ATOM     35  C   UNL     1     132.345 111.440 101.399  0.00  0.00    +0.000 C 
ATOM     36  C   UNL     1     134.255 115.707 100.589  0.00  0.00    +0.000 C 
ATOM     37  C   UNL     1     132.751 112.258 109.153  0.00  0.00    +0.000 C 
ATOM     38  C   UNL     1     141.477 114.044 109.920  0.00  0.00    +0.000 A 
ATOM     39  C   UNL     1     137.274 112.447 101.439  0.00  0.00    +0.000 C 
ATOM     40  C   UNL     1     143.356 114.286 106.823  0.00  0.00    +0.000 C 
ATOM     41  C   UNL     1     137.963 114.750 110.718  0.00  0.00    +0.000 C 
ATOM     42  C   UNL     1     138.570 113.741  99.872  0.00  0.00    +0.000 C 
ATOM     43  C   UNL     1     141.947 113.302 111.046  0.00  0.00    +0.000 A 
ATOM     44  C   UNL     1     144.978 115.092 106.848  0.00  0.00    +0.000 C 
ATOM     45  C   UNL     1     138.133 112.129 102.616  0.00  0.00    +0.000 C 
ATOM     46  C   UNL     1     138.233 115.352 112.070  0.00  0.00    +0.000 C 
ATOM     47  C   UNL     1     131.380 112.136 109.532  0.00  0.00    +0.000 C 
ATOM     48  C   UNL     1     142.589 114.224 109.104  0.00  0.00    +0.000 A 
ATOM     49  C   UNL     1     133.743 111.385 109.461  0.00  0.00    +0.000 C 
ATOM     50  C   UNL     1     139.330 114.866 110.521  0.00  0.00    +0.000 C 
ATOM     51  C   UNL     1     142.963 113.384 105.863  0.00  0.00    +0.000 C 
ATOM     52  C   UNL     1     135.895 112.468 109.951  0.00  0.00    +0.000 C 
ATOM     53  C   UNL     1     141.172 112.752 112.213  0.00  0.00    +0.000 C 
ATOM     54  C   UNL     1     143.280 113.048 110.845  0.00  0.00    +0.000 A 
ATOM     55  C   UNL     1     136.480 113.351 110.895  0.00  0.00    +0.000 C 
ATOM     56  C   UNL     1     141.132 112.203 104.909  0.00  0.00    +0.000 C 
ATOM     57  C   UNL     1     137.717 111.023 101.926  0.00  0.00    +0.000 C 
ATOM     58  C   UNL     1     144.018 115.430 107.767  0.00  0.00    +0.000 C 
ATOM     59  C   UNL     1     130.292 112.609 109.364  0.00  0.00    +0.000 C 
ATOM     60  C   UNL     1     140.018 111.880 103.933  0.00  0.00    +0.000 C 
ATOM     61  C   UNL     1     137.754 113.459 112.524  0.00  0.00    +0.000 C 
ATOM     62  C   UNL     1     134.858 110.376 109.792  0.00  0.00    +0.000 C 
ATOM     63  C   UNL     1     141.350 111.052 104.228  0.00  0.00    +0.000 C 
ATOM     64  H   UNL     1     133.786 113.132 107.686  0.00  0.00    +0.000 HD
ATOM     65  H   UNL     1     139.865 114.251 108.693  0.00  0.00    +0.000 HD
ATOM     66  H   UNL     1     138.900 113.536 103.779  0.00  0.00    +0.000 HD
ATOM     67  H   UNL     1     141.034 113.746 106.176  0.00  0.00    +0.000 HD
ATOM     68  C   UNL     1     130.303 113.418 106.273  0.00  0.00    +0.000 C 
ATOM     69  C   UNL     1     129.264 113.365 107.244  0.00  0.00    +0.000 C 
ATOM     70  C   UNL     1     129.831 113.705 108.564  0.00  0.00    +0.000 C 
ATOM     71  C   UNL     1     131.988 116.058 101.556  0.00  0.00    +0.000 C 
ATOM     72  C   UNL     1     131.245 116.812 102.365  0.00  0.00    +0.000 C 
ATOM     73  C   UNL     1     133.059 116.302 100.692  0.00  0.00    +0.000 C 
ATOM     74  C   UNL     1     137.453 114.154  99.083  0.00  0.00    +0.000 C 
ATOM     75  C   UNL     1     138.410 113.398  98.421  0.00  0.00    +0.000 C 
ATOM     76  C   UNL     1     139.270 114.001  97.291  0.00  0.00    +0.000 C 
ATOM     77  C   UNL     1     139.183 112.648  99.287  0.00  0.00    +0.000 C 
ATOM     78  C   UNL     1     137.531 115.868 113.413  0.00  0.00    +0.000 C 
ATOM     79  C   UNL     1     137.820 116.787 114.329  0.00  0.00    +0.000 C 
ATOM     80  C   UNL     1     137.469 114.473 113.395  0.00  0.00    +0.000 C 
ATOM     81  C   UNL     1     145.680 114.559 105.845  0.00  0.00    +0.000 C 
ATOM     82  C   UNL     1     147.079 114.982 105.539  0.00  0.00    +0.000 C 
ATOM     83  C   UNL     1     145.005 113.586 105.069  0.00  0.00    +0.000 C 
ENDROOT
BRANCH  69  84
ATOM     84  C   UNL     1     128.018 112.711 107.096  0.00  0.00    +0.000 C 
ATOM     85  C   UNL     1     126.963 112.150 106.976  0.00  0.00    +0.000 C 
BRANCH  85  86
ATOM     86  C   UNL     1     125.619 111.430 106.824  0.00  0.00    +0.000 C 
ATOM     87  C   UNL     1     124.448 110.808 106.696  0.00  0.00    +0.000 C 
ENDBRANCH  85  86
ENDBRANCH  69  84
BRANCH  13  88
ATOM     88  C   UNL     1     133.690 113.932 105.115  0.00  0.00    +0.000 C 
BRANCH  88  89
ATOM     89  O   UNL     1     134.847 114.568 104.990  0.00  0.00    +0.000 OA
ATOM     90  H   UNL     1     134.708 115.529 105.063  0.00  0.00    +0.000 HD
ENDBRANCH  88  89
ENDBRANCH  13  88
TORSDOF 4
ENDMDL
MODEL 4
REMARK VINA RESULT:      -8.3     32.185     37.581
REMARK  Name = Cyclosporin_A.pdbqt.pdb
REMARK  4 active torsions:
REMARK  status: ('A' for Active; 'I' for Inactive)
REMARK    1  A    between atoms: N_13  and  C_36
REMARK    2  A    between atoms: C_36  and  O_70
REMARK    3  A    between atoms: C_72  and  C_73
REMARK    4  A    between atoms: C_75  and  C_76
REMARK                            x       y       z     vdW  Elec       q    Type
REMARK                         _______ _______ _______ _____ _____    ______ ____
ROOT
ATOM      1  O   UNL     1     158.841 125.705 114.236  0.00  0.00    +0.000 OA
ATOM      2  O   UNL     1     158.762 120.637 115.025  0.00  0.00    +0.000 OA
ATOM      3  O   UNL     1     155.543 119.226 111.775  0.00  0.00    +0.000 OA
ATOM      4  O   UNL     1     154.706 127.948 112.866  0.00  0.00    +0.000 OA
ATOM      5  O   UNL     1     160.580 119.665 111.371  0.00  0.00    +0.000 OA
ATOM      6  O   UNL     1     158.733 124.240 101.235  0.00  0.00    +0.000 OA
ATOM      7  O   UNL     1     159.478 129.449 110.401  0.00  0.00    +0.000 OA
ATOM      8  O   UNL     1     155.605 127.173 103.660  0.00  0.00    +0.000 OA
ATOM      9  O   UNL     1     160.083 120.062 103.283  0.00  0.00    +0.000 OA
ATOM     10  O   UNL     1     157.150 129.552 106.631  0.00  0.00    +0.000 OA
ATOM     11  O   UNL     1     161.628 120.621 107.270  0.00  0.00    +0.000 OA
ATOM     12  N   UNL     1     158.152 122.317 114.280  0.00  0.00    +0.000 NA
ATOM     13  N   UNL     1     156.854 124.898 113.147  0.00  0.00    +0.000 NA
ATOM     14  N   UNL     1     156.986 119.541 113.100  0.00  0.00    +0.000 NA
ATOM     15  N   UNL     1     158.338 118.969 110.279  0.00  0.00    +0.000 NA
ATOM     16  N   UNL     1     156.457 127.326 111.286  0.00  0.00    +0.000 NA
ATOM     17  N   UNL     1     157.462 122.766 102.559  0.00  0.00    +0.000 N 
ATOM     18  N   UNL     1     157.030 125.385 104.165  0.00  0.00    +0.000 N 
ATOM     19  N   UNL     1     157.258 127.749 105.839  0.00  0.00    +0.000 NA
ATOM     20  N   UNL     1     158.739 127.611 109.281  0.00  0.00    +0.000 NA
ATOM     21  N   UNL     1     159.377 120.917 108.275  0.00  0.00    +0.000 NA
ATOM     22  N   UNL     1     159.288 121.723 104.844  0.00  0.00    +0.000 NA
ATOM     23  C   UNL     1     158.802 123.501 114.089  0.00  0.00    +0.000 C 
ATOM     24  C   UNL     1     157.073 120.871 113.198  0.00  0.00    +0.000 C 
ATOM     25  C   UNL     1     156.072 126.012 113.384  0.00  0.00    +0.000 C 
ATOM     26  C   UNL     1     159.952 123.857 114.771  0.00  0.00    +0.000 C 
ATOM     27  C   UNL     1     155.634 121.129 113.429  0.00  0.00    +0.000 C 
ATOM     28  C   UNL     1     158.082 124.631 113.760  0.00  0.00    +0.000 C 
ATOM     29  C   UNL     1     158.214 120.984 113.917  0.00  0.00    +0.000 C 
ATOM     30  C   UNL     1     157.920 118.636 111.469  0.00  0.00    +0.000 C 
ATOM     31  C   UNL     1     156.831 119.394 111.781  0.00  0.00    +0.000 C 
ATOM     32  C   UNL     1     155.580 126.942 112.323  0.00  0.00    +0.000 C 
ATOM     33  C   UNL     1     160.054 122.761 115.682  0.00  0.00    +0.000 C 
ATOM     34  C   UNL     1     159.861 125.188 115.010  0.00  0.00    +0.000 C 
ATOM     35  C   UNL     1     159.069 121.898 115.226  0.00  0.00    +0.000 C 
ATOM     36  C   UNL     1     155.570 119.438 113.172  0.00  0.00    +0.000 C 
ATOM     37  C   UNL     1     157.337 128.437 111.327  0.00  0.00    +0.000 C 
ATOM     38  C   UNL     1     157.716 125.240 102.987  0.00  0.00    +0.000 A 
ATOM     39  C   UNL     1     159.338 119.743 110.687  0.00  0.00    +0.000 C 
ATOM     40  C   UNL     1     158.377 121.686 102.647  0.00  0.00    +0.000 C 
ATOM     41  C   UNL     1     156.047 127.182 105.618  0.00  0.00    +0.000 C 
ATOM     42  C   UNL     1     158.637 117.538 110.012  0.00  0.00    +0.000 C 
ATOM     43  C   UNL     1     158.394 126.223 102.204  0.00  0.00    +0.000 A 
ATOM     44  C   UNL     1     158.009 120.878 101.067  0.00  0.00    +0.000 C 
ATOM     45  C   UNL     1     159.700 120.521 109.467  0.00  0.00    +0.000 C 
ATOM     46  C   UNL     1     155.356 128.138 104.684  0.00  0.00    +0.000 C 
ATOM     47  C   UNL     1     157.056 129.346 112.391  0.00  0.00    +0.000 C 
ATOM     48  C   UNL     1     157.934 124.031 102.333  0.00  0.00    +0.000 A 
ATOM     49  C   UNL     1     158.380 128.516 110.464  0.00  0.00    +0.000 C 
ATOM     50  C   UNL     1     156.307 126.438 104.478  0.00  0.00    +0.000 C 
ATOM     51  C   UNL     1     159.274 121.196 103.567  0.00  0.00    +0.000 C 
ATOM     52  C   UNL     1     157.818 127.848 108.167  0.00  0.00    +0.000 C 
ATOM     53  C   UNL     1     158.567 127.695 102.469  0.00  0.00    +0.000 C 
ATOM     54  C   UNL     1     159.000 125.573 101.159  0.00  0.00    +0.000 A 
ATOM     55  C   UNL     1     156.991 128.251 107.086  0.00  0.00    +0.000 C 
ATOM     56  C   UNL     1     160.073 121.349 105.802  0.00  0.00    +0.000 C 
ATOM     57  C   UNL     1     160.749 120.327 110.325  0.00  0.00    +0.000 C 
ATOM     58  C   UNL     1     157.320 121.998 101.454  0.00  0.00    +0.000 C 
ATOM     59  C   UNL     1     156.352 129.521 113.345  0.00  0.00    +0.000 C 
ATOM     60  C   UNL     1     160.234 120.999 107.268  0.00  0.00    +0.000 C 
ATOM     61  C   UNL     1     156.988 129.167 105.229  0.00  0.00    +0.000 C 
ATOM     62  C   UNL     1     159.583 128.600 109.507  0.00  0.00    +0.000 C 
ATOM     63  C   UNL     1     161.323 120.922 106.104  0.00  0.00    +0.000 C 
ATOM     64  H   UNL     1     156.958 126.521 110.909  0.00  0.00    +0.000 HD
ATOM     65  H   UNL     1     157.279 124.742 104.912  0.00  0.00    +0.000 HD
ATOM     66  H   UNL     1     158.387 120.925 108.041  0.00  0.00    +0.000 HD
ATOM     67  H   UNL     1     158.398 122.158 105.071  0.00  0.00    +0.000 HD
ATOM     68  C   UNL     1     155.998 126.584 114.554  0.00  0.00    +0.000 C 
ATOM     69  C   UNL     1     155.656 127.872 115.054  0.00  0.00    +0.000 C 
ATOM     70  C   UNL     1     155.294 128.741 113.916  0.00  0.00    +0.000 C 
ATOM     71  C   UNL     1     154.532 121.117 114.688  0.00  0.00    +0.000 C 
ATOM     72  C   UNL     1     153.513 121.958 114.860  0.00  0.00    +0.000 C 
ATOM     73  C   UNL     1     154.685 119.868 114.080  0.00  0.00    +0.000 C 
ATOM     74  C   UNL     1     158.067 117.186 111.274  0.00  0.00    +0.000 C 
ATOM     75  C   UNL     1     159.122 116.392 110.848  0.00  0.00    +0.000 C 
ATOM     76  C   UNL     1     158.914 114.907 110.482  0.00  0.00    +0.000 C 
ATOM     77  C   UNL     1     159.918 117.027 109.913  0.00  0.00    +0.000 C 
ATOM     78  C   UNL     1     154.503 129.491 104.628  0.00  0.00    +0.000 C 
ATOM     79  C   UNL     1     153.570 129.979 103.814  0.00  0.00    +0.000 C 
ATOM     80  C   UNL     1     155.826 129.820 104.926  0.00  0.00    +0.000 C 
ATOM     81  C   UNL     1     158.833 119.831 100.978  0.00  0.00    +0.000 C 
ATOM     82  C   UNL     1     158.821 118.906  99.806  0.00  0.00    +0.000 C 
ATOM     83  C   UNL     1     159.701 119.633 102.080  0.00  0.00    +0.000 C 
ENDROOT
BRANCH  69  84
ATOM     84  C   UNL     1     155.989 128.386 116.329  0.00  0.00    +0.000 C 
ATOM     85  C   UNL     1     156.272 128.830 117.408  0.00  0.00    +0.000 C 
BRANCH  85  86
ATOM     86  C   UNL     1     156.635 129.401 118.783  0.00  0.00    +0.000 C 
ATOM     87  C   UNL     1     156.945 129.896 119.980  0.00  0.00    +0.000 C 
ENDBRANCH  85  86
ENDBRANCH  69  84
BRANCH  13  88
ATOM     88  C   UNL     1     156.515 124.091 111.986  0.00  0.00    +0.000 C 
BRANCH  88  89
ATOM     89  O   UNL     1     156.220 123.370 110.912  0.00  0.00    +0.000 OA
ATOM     90  H   UNL     1     156.523 123.830 110.109  0.00  0.00    +0.000 HD
ENDBRANCH  88  89
ENDBRANCH  13  88
TORSDOF 4
ENDMDL
MODEL 5
REMARK VINA RESULT:      -8.3      9.028     14.306
REMARK  Name = Cyclosporin_A.pdbqt.pdb
REMARK  4 active torsions:
REMARK  status: ('A' for Active; 'I' for Inactive)
REMARK    1  A    between atoms: N_13  and  C_36
REMARK    2  A    between atoms: C_36  and  O_70
REMARK    3  A    between atoms: C_72  and  C_73
REMARK    4  A    between atoms: C_75  and  C_76
REMARK                            x       y       z     vdW  Elec       q    Type
REMARK                         _______ _______ _______ _____ _____    ______ ____
ROOT
ATOM      1  O   UNL     1     137.860 138.997 152.475  0.00  0.00    +0.000 OA
ATOM      2  O   UNL     1     142.957 139.566 152.576  0.00  0.00    +0.000 OA
ATOM      3  O   UNL     1     144.305 136.616 149.054  0.00  0.00    +0.000 OA
ATOM      4  O   UNL     1     135.992 134.630 151.272  0.00  0.00    +0.000 OA
ATOM      5  O   UNL     1     143.180 141.559 148.892  0.00  0.00    +0.000 OA
ATOM      6  O   UNL     1     137.529 139.313 139.399  0.00  0.00    +0.000 OA
ATOM      7  O   UNL     1     133.575 139.209 149.201  0.00  0.00    +0.000 OA
ATOM      8  O   UNL     1     135.377 135.787 142.083  0.00  0.00    +0.000 OA
ATOM      9  O   UNL     1     141.744 141.159 140.916  0.00  0.00    +0.000 OA
ATOM     10  O   UNL     1     133.251 136.955 145.398  0.00  0.00    +0.000 OA
ATOM     11  O   UNL     1     141.546 142.546 144.995  0.00  0.00    +0.000 OA
ATOM     12  N   UNL     1     141.281 138.754 152.042  0.00  0.00    +0.000 NA
ATOM     13  N   UNL     1     138.755 137.152 151.218  0.00  0.00    +0.000 NA
ATOM     14  N   UNL     1     143.995 137.982 150.460  0.00  0.00    +0.000 NA
ATOM     15  N   UNL     1     143.999 139.447 147.638  0.00  0.00    +0.000 NA
ATOM     16  N   UNL     1     136.165 136.475 149.686  0.00  0.00    +0.000 NA
ATOM     17  N   UNL     1     139.320 138.222 140.468  0.00  0.00    +0.000 N 
ATOM     18  N   UNL     1     137.022 137.423 142.394  0.00  0.00    +0.000 N 
ATOM     19  N   UNL     1     134.901 137.311 144.376  0.00  0.00    +0.000 NA
ATOM     20  N   UNL     1     135.320 138.736 147.820  0.00  0.00    +0.000 NA
ATOM     21  N   UNL     1     141.678 140.259 145.950  0.00  0.00    +0.000 NA
ATOM     22  N   UNL     1     140.427 140.126 142.657  0.00  0.00    +0.000 NA
ATOM     23  C   UNL     1     140.010 139.248 152.034  0.00  0.00    +0.000 C 
ATOM     24  C   UNL     1     142.691 137.893 150.738  0.00  0.00    +0.000 C 
ATOM     25  C   UNL     1     137.793 136.227 151.574  0.00  0.00    +0.000 C 
ATOM     26  C   UNL     1     139.608 140.330 152.797  0.00  0.00    +0.000 C 
ATOM     27  C   UNL     1     142.651 136.428 150.951  0.00  0.00    +0.000 C 
ATOM     28  C   UNL     1     138.946 138.393 151.833  0.00  0.00    +0.000 C 
ATOM     29  C   UNL     1     142.533 138.997 151.506  0.00  0.00    +0.000 C 
ATOM     30  C   UNL     1     144.542 139.054 148.757  0.00  0.00    +0.000 C 
ATOM     31  C   UNL     1     143.978 137.871 149.129  0.00  0.00    +0.000 C 
ATOM     32  C   UNL     1     136.796 135.637 150.631  0.00  0.00    +0.000 C 
ATOM     33  C   UNL     1     140.797 140.557 153.556  0.00  0.00    +0.000 C 
ATOM     34  C   UNL     1     138.345 140.062 153.209  0.00  0.00    +0.000 C 
ATOM     35  C   UNL     1     141.707 139.701 152.954  0.00  0.00    +0.000 C 
ATOM     36  C   UNL     1     144.285 136.590 150.467  0.00  0.00    +0.000 C 
ATOM     37  C   UNL     1     134.968 137.202 149.906  0.00  0.00    +0.000 C 
ATOM     38  C   UNL     1     136.916 138.143 141.233  0.00  0.00    +0.000 A 
ATOM     39  C   UNL     1     143.167 140.330 148.181  0.00  0.00    +0.000 C 
ATOM     40  C   UNL     1     140.277 139.268 140.443  0.00  0.00    +0.000 C 
ATOM     41  C   UNL     1     135.581 136.189 144.039  0.00  0.00    +0.000 C 
ATOM     42  C   UNL     1     145.329 139.935 147.192  0.00  0.00    +0.000 C 
ATOM     43  C   UNL     1     135.757 138.701 140.612  0.00  0.00    +0.000 A 
ATOM     44  C   UNL     1     140.901 139.037 138.758  0.00  0.00    +0.000 C 
ATOM     45  C   UNL     1     142.190 140.610 147.090  0.00  0.00    +0.000 C 
ATOM     46  C   UNL     1     134.601 135.395 143.217  0.00  0.00    +0.000 C 
ATOM     47  C   UNL     1     134.257 136.786 151.072  0.00  0.00    +0.000 C 
ATOM     48  C   UNL     1     137.986 138.528 140.431  0.00  0.00    +0.000 A 
ATOM     49  C   UNL     1     134.639 138.241 149.100  0.00  0.00    +0.000 C 
ATOM     50  C   UNL     1     136.123 136.564 142.820  0.00  0.00    +0.000 C 
ATOM     51  C   UNL     1     140.771 140.204 141.321  0.00  0.00    +0.000 C 
ATOM     52  C   UNL     1     135.052 137.812 146.715  0.00  0.00    +0.000 C 
ATOM     53  C   UNL     1     134.326 138.676 141.078  0.00  0.00    +0.000 C 
ATOM     54  C   UNL     1     136.175 139.405 139.512  0.00  0.00    +0.000 A 
ATOM     55  C   UNL     1     134.612 136.959 145.669  0.00  0.00    +0.000 C 
ATOM     56  C   UNL     1     140.826 140.937 143.583  0.00  0.00    +0.000 C 
ATOM     57  C   UNL     1     142.365 141.659 147.950  0.00  0.00    +0.000 C 
ATOM     58  C   UNL     1     139.940 138.200 139.267  0.00  0.00    +0.000 C 
ATOM     59  C   UNL     1     134.305 136.048 152.015  0.00  0.00    +0.000 C 
ATOM     60  C   UNL     1     141.351 141.116 144.994  0.00  0.00    +0.000 C 
ATOM     61  C   UNL     1     133.458 136.869 143.953  0.00  0.00    +0.000 C 
ATOM     62  C   UNL     1     134.273 139.440 148.205  0.00  0.00    +0.000 C 
ATOM     63  C   UNL     1     141.129 142.226 143.870  0.00  0.00    +0.000 C 
ATOM     64  H   UNL     1     136.840 137.084 149.222  0.00  0.00    +0.000 HD
ATOM     65  H   UNL     1     137.725 137.740 143.057  0.00  0.00    +0.000 HD
ATOM     66  H   UNL     1     141.763 139.281 145.685  0.00  0.00    +0.000 HD
ATOM     67  H   UNL     1     140.143 139.184 142.908  0.00  0.00    +0.000 HD
ATOM     68  C   UNL     1     137.400 136.059 152.807  0.00  0.00    +0.000 C 
ATOM     69  C   UNL     1     136.247 135.543 153.462  0.00  0.00    +0.000 C 
ATOM     70  C   UNL     1     135.283 135.091 152.439  0.00  0.00    +0.000 C 
ATOM     71  C   UNL     1     142.975 135.315 152.156  0.00  0.00    +0.000 C 
ATOM     72  C   UNL     1     142.302 134.193 152.404  0.00  0.00    +0.000 C 
ATOM     73  C   UNL     1     144.100 135.641 151.393  0.00  0.00    +0.000 C 
ATOM     74  C   UNL     1     145.920 139.393 148.375  0.00  0.00    +0.000 C 
ATOM     75  C   UNL     1     146.509 140.550 147.884  0.00  0.00    +0.000 C 
ATOM     76  C   UNL     1     147.944 140.544 147.315  0.00  0.00    +0.000 C 
ATOM     77  C   UNL     1     145.656 141.273 147.071  0.00  0.00    +0.000 C 
ATOM     78  C   UNL     1     133.372 134.374 143.312  0.00  0.00    +0.000 C 
ATOM     79  C   UNL     1     132.899 133.401 142.539  0.00  0.00    +0.000 C 
ATOM     80  C   UNL     1     132.922 135.638 143.699  0.00  0.00    +0.000 C 
ATOM     81  C   UNL     1     141.813 139.991 138.559  0.00  0.00    +0.000 C 
ATOM     82  C   UNL     1     142.562 140.121 137.274  0.00  0.00    +0.000 C 
ATOM     83  C   UNL     1     142.048 140.857 139.654  0.00  0.00    +0.000 C 
ENDROOT
BRANCH  69  84
ATOM     84  C   UNL     1     135.875 135.784 154.806  0.00  0.00    +0.000 C 
ATOM     85  C   UNL     1     135.552 135.993 155.944  0.00  0.00    +0.000 C 
BRANCH  85  86
ATOM     86  C   UNL     1     135.139 136.264 157.394  0.00  0.00    +0.000 C 
ATOM     87  C   UNL     1     134.785 136.501 158.656  0.00  0.00    +0.000 C 
ENDBRANCH  85  86
ENDBRANCH  69  84
BRANCH  13  88
ATOM     88  C   UNL     1     139.431 136.942 149.948  0.00  0.00    +0.000 C 
BRANCH  88  89
ATOM     89  O   UNL     1     140.070 136.752 148.802  0.00  0.00    +0.000 OA
ATOM     90  H   UNL     1     140.312 135.813 148.707  0.00  0.00    +0.000 HD
ENDBRANCH  88  89
ENDBRANCH  13  88
TORSDOF 4
ENDMDL
MODEL 6
REMARK VINA RESULT:      -8.3     42.153     49.116
REMARK  Name = Cyclosporin_A.pdbqt.pdb
REMARK  4 active torsions:
REMARK  status: ('A' for Active; 'I' for Inactive)
REMARK    1  A    between atoms: N_13  and  C_36
REMARK    2  A    between atoms: C_36  and  O_70
REMARK    3  A    between atoms: C_72  and  C_73
REMARK    4  A    between atoms: C_75  and  C_76
REMARK                            x       y       z     vdW  Elec       q    Type
REMARK                         _______ _______ _______ _____ _____    ______ ____
ROOT
ATOM      1  O   UNL     1     142.588 115.599  89.596  0.00  0.00    +0.000 OA
ATOM      2  O   UNL     1     137.802 115.513  87.752  0.00  0.00    +0.000 OA
ATOM      3  O   UNL     1     135.513 118.252  90.942  0.00  0.00    +0.000 OA
ATOM      4  O   UNL     1     143.249 115.835  94.445  0.00  0.00    +0.000 OA
ATOM      5  O   UNL     1     137.779 119.544  86.592  0.00  0.00    +0.000 OA
ATOM      6  O   UNL     1     141.966 128.417  92.146  0.00  0.00    +0.000 OA
ATOM      7  O   UNL     1     146.529 118.934  91.169  0.00  0.00    +0.000 OA
ATOM      8  O   UNL     1     143.407 125.060  95.451  0.00  0.00    +0.000 OA
ATOM      9  O   UNL     1     138.451 127.258  89.019  0.00  0.00    +0.000 OA
ATOM     10  O   UNL     1     146.003 122.141  94.183  0.00  0.00    +0.000 OA
ATOM     11  O   UNL     1     139.295 123.599  86.896  0.00  0.00    +0.000 OA
ATOM     12  N   UNL     1     139.186 115.890  89.054  0.00  0.00    +0.000 NA
ATOM     13  N   UNL     1     141.179 116.390  91.379  0.00  0.00    +0.000 NA
ATOM     14  N   UNL     1     136.252 117.196  89.433  0.00  0.00    +0.000 NA
ATOM     15  N   UNL     1     136.381 120.274  88.646  0.00  0.00    +0.000 NA
ATOM     16  N   UNL     1     143.402 117.789  92.995  0.00  0.00    +0.000 NA
ATOM     17  N   UNL     1     140.053 127.090  92.499  0.00  0.00    +0.000 N 
ATOM     18  N   UNL     1     142.234 125.087  93.426  0.00  0.00    +0.000 N 
ATOM     19  N   UNL     1     144.414 123.179  93.647  0.00  0.00    +0.000 NA
ATOM     20  N   UNL     1     144.619 120.134  91.467  0.00  0.00    +0.000 NA
ATOM     21  N   UNL     1     138.690 122.153  88.821  0.00  0.00    +0.000 NA
ATOM     22  N   UNL     1     139.612 125.360  89.958  0.00  0.00    +0.000 NA
ATOM     23  C   UNL     1     140.535 116.037  88.910  0.00  0.00    +0.000 C 
ATOM     24  C   UNL     1     137.513 116.935  89.787  0.00  0.00    +0.000 C 
ATOM     25  C   UNL     1     141.916 115.858  92.419  0.00  0.00    +0.000 C 
ATOM     26  C   UNL     1     141.243 115.545  87.828  0.00  0.00    +0.000 C 
ATOM     27  C   UNL     1     137.216 116.400  91.135  0.00  0.00    +0.000 C 
ATOM     28  C   UNL     1     141.342 116.064  90.028  0.00  0.00    +0.000 C 
ATOM     29  C   UNL     1     137.992 116.438  88.622  0.00  0.00    +0.000 C 
ATOM     30  C   UNL     1     135.848 119.084  88.643  0.00  0.00    +0.000 C 
ATOM     31  C   UNL     1     136.138 118.469  89.824  0.00  0.00    +0.000 C 
ATOM     32  C   UNL     1     142.664 116.667  93.427  0.00  0.00    +0.000 C 
ATOM     33  C   UNL     1     140.207 114.829  87.153  0.00  0.00    +0.000 C 
ATOM     34  C   UNL     1     142.433 115.112  88.313  0.00  0.00    +0.000 C 
ATOM     35  C   UNL     1     139.073 115.203  87.859  0.00  0.00    +0.000 C 
ATOM     36  C   UNL     1     135.636 116.871  90.673  0.00  0.00    +0.000 C 
ATOM     37  C   UNL     1     144.753 117.765  92.564  0.00  0.00    +0.000 C 
ATOM     38  C   UNL     1     142.419 126.383  93.017  0.00  0.00    +0.000 A 
ATOM     39  C   UNL     1     137.441 119.962  87.906  0.00  0.00    +0.000 C 
ATOM     40  C   UNL     1     139.378 127.327  91.275  0.00  0.00    +0.000 C 
ATOM     41  C   UNL     1     143.459 123.241  94.606  0.00  0.00    +0.000 C 
ATOM     42  C   UNL     1     135.177 120.788  87.944  0.00  0.00    +0.000 C 
ATOM     43  C   UNL     1     143.627 127.138  92.914  0.00  0.00    +0.000 A 
ATOM     44  C   UNL     1     138.587 128.904  91.692  0.00  0.00    +0.000 C 
ATOM     45  C   UNL     1     138.368 121.110  88.120  0.00  0.00    +0.000 C 
ATOM     46  C   UNL     1     144.152 123.885  95.776  0.00  0.00    +0.000 C 
ATOM     47  C   UNL     1     145.432 116.552  92.889  0.00  0.00    +0.000 C 
ATOM     48  C   UNL     1     141.415 127.226  92.553  0.00  0.00    +0.000 A 
ATOM     49  C   UNL     1     145.259 118.791  91.836  0.00  0.00    +0.000 C 
ATOM     50  C   UNL     1     142.930 124.500  94.373  0.00  0.00    +0.000 C 
ATOM     51  C   UNL     1     139.194 126.671  90.081  0.00  0.00    +0.000 C 
ATOM     52  C   UNL     1     144.570 121.009  92.642  0.00  0.00    +0.000 C 
ATOM     53  C   UNL     1     145.042 126.711  93.200  0.00  0.00    +0.000 C 
ATOM     54  C   UNL     1     143.306 128.358  92.377  0.00  0.00    +0.000 A 
ATOM     55  C   UNL     1     144.709 121.847  93.779  0.00  0.00    +0.000 C 
ATOM     56  C   UNL     1     139.493 124.630  88.896  0.00  0.00    +0.000 C 
ATOM     57  C   UNL     1     138.519 120.503  86.903  0.00  0.00    +0.000 C 
ATOM     58  C   UNL     1     139.354 128.242  92.616  0.00  0.00    +0.000 C 
ATOM     59  C   UNL     1     145.281 115.467  93.375  0.00  0.00    +0.000 C 
ATOM     60  C   UNL     1     139.138 123.284  88.296  0.00  0.00    +0.000 C 
ATOM     61  C   UNL     1     145.669 123.525  94.517  0.00  0.00    +0.000 C 
ATOM     62  C   UNL     1     145.832 119.940  90.985  0.00  0.00    +0.000 C 
ATOM     63  C   UNL     1     139.534 124.633  87.542  0.00  0.00    +0.000 C 
ATOM     64  H   UNL     1     142.860 118.362  92.348  0.00  0.00    +0.000 HD
ATOM     65  H   UNL     1     141.682 124.496  92.808  0.00  0.00    +0.000 HD
ATOM     66  H   UNL     1     138.352 122.190  89.779  0.00  0.00    +0.000 HD
ATOM     67  H   UNL     1     139.679 124.910  90.867  0.00  0.00    +0.000 HD
ATOM     68  C   UNL     1     142.351 114.627  92.416  0.00  0.00    +0.000 C 
ATOM     69  C   UNL     1     143.393 113.900  93.056  0.00  0.00    +0.000 C 
ATOM     70  C   UNL     1     144.137 114.817  93.942  0.00  0.00    +0.000 C 
ATOM     71  C   UNL     1     136.728 114.969  91.850  0.00  0.00    +0.000 C 
ATOM     72  C   UNL     1     137.127 114.491  93.027  0.00  0.00    +0.000 C 
ATOM     73  C   UNL     1     135.659 115.760  91.420  0.00  0.00    +0.000 C 
ATOM     74  C   UNL     1     134.566 119.501  88.056  0.00  0.00    +0.000 C 
ATOM     75  C   UNL     1     134.238 120.225  86.919  0.00  0.00    +0.000 C 
ATOM     76  C   UNL     1     132.804 120.745  86.683  0.00  0.00    +0.000 C 
ATOM     77  C   UNL     1     135.173 121.198  86.624  0.00  0.00    +0.000 C 
ATOM     78  C   UNL     1     145.102 123.592  97.030  0.00  0.00    +0.000 C 
ATOM     79  C   UNL     1     145.264 124.138  98.233  0.00  0.00    +0.000 C 
ATOM     80  C   UNL     1     145.872 123.508  95.869  0.00  0.00    +0.000 C 
ATOM     81  C   UNL     1     137.919 129.291  90.603  0.00  0.00    +0.000 C 
ATOM     82  C   UNL     1     137.126 130.555  90.563  0.00  0.00    +0.000 C 
ATOM     83  C   UNL     1     137.985 128.413  89.494  0.00  0.00    +0.000 C 
ENDROOT
BRANCH  69  84
ATOM     84  C   UNL     1     143.916 112.653  92.638  0.00  0.00    +0.000 C 
ATOM     85  C   UNL     1     144.359 111.592  92.291  0.00  0.00    +0.000 C 
BRANCH  85  86
ATOM     86  C   UNL     1     144.925 110.237  91.853  0.00  0.00    +0.000 C 
ATOM     87  C   UNL     1     145.414 109.057  91.475  0.00  0.00    +0.000 C 
ENDBRANCH  85  86
ENDBRANCH  69  84
BRANCH  13  88
ATOM     88  C   UNL     1     140.376 117.565  91.674  0.00  0.00    +0.000 C 
BRANCH  88  89
ATOM     89  O   UNL     1     139.648 118.633  91.968  0.00  0.00    +0.000 OA
ATOM     90  H   UNL     1     139.799 119.332  91.307  0.00  0.00    +0.000 HD
ENDBRANCH  88  89
ENDBRANCH  13  88
TORSDOF 4
ENDMDL
MODEL 7
REMARK VINA RESULT:      -8.2      6.222     13.366
REMARK  Name = Cyclosporin_A.pdbqt.pdb
REMARK  4 active torsions:
REMARK  status: ('A' for Active; 'I' for Inactive)
REMARK    1  A    between atoms: N_13  and  C_36
REMARK    2  A    between atoms: C_36  and  O_70
REMARK    3  A    between atoms: C_72  and  C_73
REMARK    4  A    between atoms: C_75  and  C_76
REMARK                            x       y       z     vdW  Elec       q    Type
REMARK                         _______ _______ _______ _____ _____    ______ ____
ROOT
ATOM      1  O   UNL     1     138.508 141.592 138.854  0.00  0.00    +0.000 OA
ATOM      2  O   UNL     1     135.538 137.666 137.412  0.00  0.00    +0.000 OA
ATOM      3  O   UNL     1     137.077 134.197 140.329  0.00  0.00    +0.000 OA
ATOM      4  O   UNL     1     143.082 140.671 140.350  0.00  0.00    +0.000 OA
ATOM      5  O   UNL     1     133.325 137.548 140.973  0.00  0.00    +0.000 OA
ATOM      6  O   UNL     1     137.060 138.745 151.542  0.00  0.00    +0.000 OA
ATOM      7  O   UNL     1     140.081 144.435 143.164  0.00  0.00    +0.000 OA
ATOM      8  O   UNL     1     141.441 139.452 149.403  0.00  0.00    +0.000 OA
ATOM      9  O   UNL     1     133.557 136.541 149.021  0.00  0.00    +0.000 OA
ATOM     10  O   UNL     1     141.804 142.629 146.827  0.00  0.00    +0.000 OA
ATOM     11  O   UNL     1     132.868 138.419 145.199  0.00  0.00    +0.000 OA
ATOM     12  N   UNL     1     137.004 138.521 138.345  0.00  0.00    +0.000 NA
ATOM     13  N   UNL     1     139.542 139.616 139.755  0.00  0.00    +0.000 NA
ATOM     14  N   UNL     1     136.188 135.486 139.110  0.00  0.00    +0.000 NA
ATOM     15  N   UNL     1     134.628 135.503 141.881  0.00  0.00    +0.000 NA
ATOM     16  N   UNL     1     141.236 141.046 141.899  0.00  0.00    +0.000 NA
ATOM     17  N   UNL     1     137.241 136.982 149.992  0.00  0.00    +0.000 N 
ATOM     18  N   UNL     1     139.252 138.977 148.724  0.00  0.00    +0.000 N 
ATOM     19  N   UNL     1     140.586 141.181 147.381  0.00  0.00    +0.000 NA
ATOM     20  N   UNL     1     139.498 142.404 144.007  0.00  0.00    +0.000 NA
ATOM     21  N   UNL     1     134.885 137.412 144.159  0.00  0.00    +0.000 NA
ATOM     22  N   UNL     1     135.273 137.559 147.659  0.00  0.00    +0.000 NA
ATOM     23  C   UNL     1     137.196 139.821 138.712  0.00  0.00    +0.000 C 
ATOM     24  C   UNL     1     136.930 136.595 139.189  0.00  0.00    +0.000 C 
ATOM     25  C   UNL     1     140.850 140.045 139.636  0.00  0.00    +0.000 C 
ATOM     26  C   UNL     1     136.532 140.883 138.125  0.00  0.00    +0.000 C 
ATOM     27  C   UNL     1     138.241 135.953 138.941  0.00  0.00    +0.000 C 
ATOM     28  C   UNL     1     138.436 140.229 139.158  0.00  0.00    +0.000 C 
ATOM     29  C   UNL     1     136.128 137.467 138.534  0.00  0.00    +0.000 C 
ATOM     30  C   UNL     1     134.817 135.138 140.644  0.00  0.00    +0.000 C 
ATOM     31  C   UNL     1     136.157 135.111 140.392  0.00  0.00    +0.000 C 
ATOM     32  C   UNL     1     141.752 140.343 140.789  0.00  0.00    +0.000 C 
ATOM     33  C   UNL     1     135.833 140.199 137.084  0.00  0.00    +0.000 C 
ATOM     34  C   UNL     1     137.423 141.903 138.058  0.00  0.00    +0.000 C 
ATOM     35  C   UNL     1     136.069 138.867 137.388  0.00  0.00    +0.000 C 
ATOM     36  C   UNL     1     137.254 134.555 138.974  0.00  0.00    +0.000 C 
ATOM     37  C   UNL     1     141.213 142.457 142.035  0.00  0.00    +0.000 C 
ATOM     38  C   UNL     1     138.560 139.131 149.898  0.00  0.00    +0.000 A 
ATOM     39  C   UNL     1     134.324 136.769 141.615  0.00  0.00    +0.000 C 
ATOM     40  C   UNL     1     135.864 136.701 149.798  0.00  0.00    +0.000 C 
ATOM     41  C   UNL     1     141.192 139.973 147.482  0.00  0.00    +0.000 C 
ATOM     42  C   UNL     1     133.510 134.529 141.972  0.00  0.00    +0.000 C 
ATOM     43  C   UNL     1     138.578 140.216 150.827  0.00  0.00    +0.000 A 
ATOM     44  C   UNL     1     135.588 135.645 151.245  0.00  0.00    +0.000 C 
ATOM     45  C   UNL     1     134.447 137.446 142.938  0.00  0.00    +0.000 C 
ATOM     46  C   UNL     1     142.274 140.186 148.505  0.00  0.00    +0.000 C 
ATOM     47  C   UNL     1     142.039 143.134 141.089  0.00  0.00    +0.000 C 
ATOM     48  C   UNL     1     137.622 138.233 150.397  0.00  0.00    +0.000 A 
ATOM     49  C   UNL     1     140.390 143.045 142.939  0.00  0.00    +0.000 C 
ATOM     50  C   UNL     1     140.478 139.404 148.524  0.00  0.00    +0.000 C 
ATOM     51  C   UNL     1     134.902 136.976 148.856  0.00  0.00    +0.000 C 
ATOM     52  C   UNL     1     140.317 141.890 145.108  0.00  0.00    +0.000 C 
ATOM     53  C   UNL     1     139.346 141.510 150.761  0.00  0.00    +0.000 C 
ATOM     54  C   UNL     1     137.652 139.943 151.800  0.00  0.00    +0.000 A 
ATOM     55  C   UNL     1     141.164 141.569 146.201  0.00  0.00    +0.000 C 
ATOM     56  C   UNL     1     134.470 137.862 146.691  0.00  0.00    +0.000 C 
ATOM     57  C   UNL     1     133.539 138.038 142.102  0.00  0.00    +0.000 C 
ATOM     58  C   UNL     1     136.834 136.155 150.981  0.00  0.00    +0.000 C 
ATOM     59  C   UNL     1     142.752 142.964 140.140  0.00  0.00    +0.000 C 
ATOM     60  C   UNL     1     134.203 137.869 145.199  0.00  0.00    +0.000 C 
ATOM     61  C   UNL     1     141.629 142.053 148.159  0.00  0.00    +0.000 C 
ATOM     62  C   UNL     1     139.438 143.721 143.944  0.00  0.00    +0.000 C 
ATOM     63  C   UNL     1     133.234 138.324 146.383  0.00  0.00    +0.000 C 
ATOM     64  H   UNL     1     140.332 140.672 142.187  0.00  0.00    +0.000 HD
ATOM     65  H   UNL     1     138.701 138.717 147.910  0.00  0.00    +0.000 HD
ATOM     66  H   UNL     1     135.663 136.788 144.355  0.00  0.00    +0.000 HD
ATOM     67  H   UNL     1     136.254 137.389 147.458  0.00  0.00    +0.000 HD
ATOM     68  C   UNL     1     141.313 140.597 138.548  0.00  0.00    +0.000 C 
ATOM     69  C   UNL     1     142.390 141.462 138.207  0.00  0.00    +0.000 C 
ATOM     70  C   UNL     1     143.148 141.782 139.434  0.00  0.00    +0.000 C 
ATOM     71  C   UNL     1     139.171 135.433 137.651  0.00  0.00    +0.000 C 
ATOM     72  C   UNL     1     140.498 135.496 137.551  0.00  0.00    +0.000 C 
ATOM     73  C   UNL     1     138.262 134.469 138.096  0.00  0.00    +0.000 C 
ATOM     74  C   UNL     1     133.813 134.065 140.654  0.00  0.00    +0.000 C 
ATOM     75  C   UNL     1     132.472 134.029 141.012  0.00  0.00    +0.000 C 
ATOM     76  C   UNL     1     131.719 132.691 141.175  0.00  0.00    +0.000 C 
ATOM     77  C   UNL     1     132.179 134.892 142.051  0.00  0.00    +0.000 C 
ATOM     78  C   UNL     1     143.769 140.723 148.705  0.00  0.00    +0.000 C 
ATOM     79  C   UNL     1     144.764 140.438 149.540  0.00  0.00    +0.000 C 
ATOM     80  C   UNL     1     142.933 141.822 148.501  0.00  0.00    +0.000 C 
ATOM     81  C   UNL     1     134.295 135.312 151.228  0.00  0.00    +0.000 C 
ATOM     82  C   UNL     1     133.686 134.432 152.268  0.00  0.00    +0.000 C 
ATOM     83  C   UNL     1     133.541 135.822 150.143  0.00  0.00    +0.000 C 
ENDROOT
BRANCH  69  84
ATOM     84  C   UNL     1     142.500 142.228 137.023  0.00  0.00    +0.000 C 
ATOM     85  C   UNL     1     142.595 142.871 136.013  0.00  0.00    +0.000 C 
BRANCH  85  86
ATOM     86  C   UNL     1     142.718 143.689 134.723  0.00  0.00    +0.000 C 
ATOM     87  C   UNL     1     142.820 144.400 133.601  0.00  0.00    +0.000 C 
ENDBRANCH  85  86
ENDBRANCH  69  84
BRANCH  13  88
ATOM     88  C   UNL     1     139.264 138.631 140.788  0.00  0.00    +0.000 C 
BRANCH  88  89
ATOM     89  O   UNL     1     138.987 137.742 141.732  0.00  0.00    +0.000 OA
ATOM     90  H   UNL     1     139.458 137.971 142.553  0.00  0.00    +0.000 HD
ENDBRANCH  88  89
ENDBRANCH  13  88
TORSDOF 4
ENDMDL
MODEL 8
REMARK VINA RESULT:      -8.2     16.894     23.821
REMARK  Name = Cyclosporin_A.pdbqt.pdb
REMARK  4 active torsions:
REMARK  status: ('A' for Active; 'I' for Inactive)
REMARK    1  A    between atoms: N_13  and  C_36
REMARK    2  A    between atoms: C_36  and  O_70
REMARK    3  A    between atoms: C_72  and  C_73
REMARK    4  A    between atoms: C_75  and  C_76
REMARK                            x       y       z     vdW  Elec       q    Type
REMARK                         _______ _______ _______ _____ _____    ______ ____
ROOT
ATOM      1  O   UNL     1     156.202 137.230 124.387  0.00  0.00    +0.000 OA
ATOM      2  O   UNL     1     151.771 139.658 125.270  0.00  0.00    +0.000 OA
ATOM      3  O   UNL     1     148.942 136.019 126.561  0.00  0.00    +0.000 OA
ATOM      4  O   UNL     1     156.083 132.673 122.590  0.00  0.00    +0.000 OA
ATOM      5  O   UNL     1     151.835 139.050 129.420  0.00  0.00    +0.000 OA
ATOM      6  O   UNL     1     154.877 129.772 135.056  0.00  0.00    +0.000 OA
ATOM      7  O   UNL     1     159.764 133.841 126.613  0.00  0.00    +0.000 OA
ATOM      8  O   UNL     1     155.858 127.958 130.582  0.00  0.00    +0.000 OA
ATOM      9  O   UNL     1     151.929 133.599 135.429  0.00  0.00    +0.000 OA
ATOM     10  O   UNL     1     158.691 129.896 128.327  0.00  0.00    +0.000 OA
ATOM     11  O   UNL     1     153.186 136.879 132.926  0.00  0.00    +0.000 OA
ATOM     12  N   UNL     1     152.923 138.121 125.021  0.00  0.00    +0.000 NA
ATOM     13  N   UNL     1     154.511 135.520 124.440  0.00  0.00    +0.000 NA
ATOM     14  N   UNL     1     149.935 137.695 126.183  0.00  0.00    +0.000 NA
ATOM     15  N   UNL     1     150.113 137.120 129.306  0.00  0.00    +0.000 NA
ATOM     16  N   UNL     1     156.417 133.151 124.959  0.00  0.00    +0.000 NA
ATOM     17  N   UNL     1     152.965 130.294 133.785  0.00  0.00    +0.000 N 
ATOM     18  N   UNL     1     155.020 129.948 131.485  0.00  0.00    +0.000 N 
ATOM     19  N   UNL     1     157.182 130.197 129.561  0.00  0.00    +0.000 NA
ATOM     20  N   UNL     1     157.803 133.374 127.668  0.00  0.00    +0.000 NA
ATOM     21  N   UNL     1     152.320 135.835 130.846  0.00  0.00    +0.000 NA
ATOM     22  N   UNL     1     152.973 133.356 133.265  0.00  0.00    +0.000 NA
ATOM     23  C   UNL     1     154.273 137.983 125.155  0.00  0.00    +0.000 C 
ATOM     24  C   UNL     1     151.130 137.290 125.746  0.00  0.00    +0.000 C 
ATOM     25  C   UNL     1     155.086 134.690 123.497  0.00  0.00    +0.000 C 
ATOM     26  C   UNL     1     155.155 139.048 125.118  0.00  0.00    +0.000 C 
ATOM     27  C   UNL     1     150.637 136.344 124.720  0.00  0.00    +0.000 C 
ATOM     28  C   UNL     1     154.893 136.842 124.689  0.00  0.00    +0.000 C 
ATOM     29  C   UNL     1     151.799 138.468 125.749  0.00  0.00    +0.000 C 
ATOM     30  C   UNL     1     149.616 137.693 128.245  0.00  0.00    +0.000 C 
ATOM     31  C   UNL     1     149.730 136.839 127.189  0.00  0.00    +0.000 C 
ATOM     32  C   UNL     1     155.647 133.336 123.791  0.00  0.00    +0.000 C 
ATOM     33  C   UNL     1     154.256 140.108 124.787  0.00  0.00    +0.000 C 
ATOM     34  C   UNL     1     156.263 138.607 124.475  0.00  0.00    +0.000 C 
ATOM     35  C   UNL     1     153.017 139.494 124.889  0.00  0.00    +0.000 C 
ATOM     36  C   UNL     1     149.139 136.810 125.407  0.00  0.00    +0.000 C 
ATOM     37  C   UNL     1     157.818 133.340 125.054  0.00  0.00    +0.000 C 
ATOM     38  C   UNL     1     155.236 129.754 132.825  0.00  0.00    +0.000 A 
ATOM     39  C   UNL     1     151.283 137.750 129.277  0.00  0.00    +0.000 C 
ATOM     40  C   UNL     1     152.486 131.400 134.531  0.00  0.00    +0.000 C 
ATOM     41  C   UNL     1     156.087 129.456 129.266  0.00  0.00    +0.000 C 
ATOM     42  C   UNL     1     149.022 137.725 130.113  0.00  0.00    +0.000 C 
ATOM     43  C   UNL     1     156.426 129.351 133.504  0.00  0.00    +0.000 A 
ATOM     44  C   UNL     1     151.602 130.500 135.831  0.00  0.00    +0.000 C 
ATOM     45  C   UNL     1     152.137 136.944 130.197  0.00  0.00    +0.000 C 
ATOM     46  C   UNL     1     156.570 128.033 129.346  0.00  0.00    +0.000 C 
ATOM     47  C   UNL     1     158.466 133.441 123.786  0.00  0.00    +0.000 C 
ATOM     48  C   UNL     1     154.297 129.980 133.827  0.00  0.00    +0.000 A 
ATOM     49  C   UNL     1     158.408 133.495 126.266  0.00  0.00    +0.000 C 
ATOM     50  C   UNL     1     155.571 129.230 130.533  0.00  0.00    +0.000 C 
ATOM     51  C   UNL     1     152.509 132.772 134.428  0.00  0.00    +0.000 C 
ATOM     52  C   UNL     1     157.547 131.967 127.988  0.00  0.00    +0.000 C 
ATOM     53  C   UNL     1     157.788 129.052 132.936  0.00  0.00    +0.000 C 
ATOM     54  C   UNL     1     156.165 129.382 134.850  0.00  0.00    +0.000 A 
ATOM     55  C   UNL     1     157.484 130.579 128.280  0.00  0.00    +0.000 C 
ATOM     56  C   UNL     1     153.040 134.628 133.039  0.00  0.00    +0.000 C 
ATOM     57  C   UNL     1     152.493 138.264 130.135  0.00  0.00    +0.000 C 
ATOM     58  C   UNL     1     152.229 129.823 134.817  0.00  0.00    +0.000 C 
ATOM     59  C   UNL     1     158.267 133.473 122.605  0.00  0.00    +0.000 C 
ATOM     60  C   UNL     1     152.818 135.774 132.073  0.00  0.00    +0.000 C 
ATOM     61  C   UNL     1     158.276 129.079 129.466  0.00  0.00    +0.000 C 
ATOM     62  C   UNL     1     159.081 133.700 127.636  0.00  0.00    +0.000 C 
ATOM     63  C   UNL     1     153.294 135.838 133.594  0.00  0.00    +0.000 C 
ATOM     64  H   UNL     1     155.970 133.580 125.769  0.00  0.00    +0.000 HD
ATOM     65  H   UNL     1     154.587 130.830 131.223  0.00  0.00    +0.000 HD
ATOM     66  H   UNL     1     151.833 135.011 130.504  0.00  0.00    +0.000 HD
ATOM     67  H   UNL     1     152.906 132.713 132.481  0.00  0.00    +0.000 HD
ATOM     68  C   UNL     1     155.546 135.130 122.358  0.00  0.00    +0.000 C 
ATOM     69  C   UNL     1     156.491 134.694 121.388  0.00  0.00    +0.000 C 
ATOM     70  C   UNL     1     157.063 133.406 121.830  0.00  0.00    +0.000 C 
ATOM     71  C   UNL     1     150.076 136.365 123.144  0.00  0.00    +0.000 C 
ATOM     72  C   UNL     1     150.296 135.441 122.210  0.00  0.00    +0.000 C 
ATOM     73  C   UNL     1     149.070 136.591 124.087  0.00  0.00    +0.000 C 
ATOM     74  C   UNL     1     148.433 138.246 128.920  0.00  0.00    +0.000 C 
ATOM     75  C   UNL     1     148.271 139.022 130.059  0.00  0.00    +0.000 C 
ATOM     76  C   UNL     1     146.880 139.241 130.692  0.00  0.00    +0.000 C 
ATOM     77  C   UNL     1     149.218 138.744 131.027  0.00  0.00    +0.000 C 
ATOM     78  C   UNL     1     157.317 126.880 128.524  0.00  0.00    +0.000 C 
ATOM     79  C   UNL     1     157.274 125.550 128.523  0.00  0.00    +0.000 C 
ATOM     80  C   UNL     1     158.263 127.839 128.890  0.00  0.00    +0.000 C 
ATOM     81  C   UNL     1     151.105 131.423 136.658  0.00  0.00    +0.000 C 
ATOM     82  C   UNL     1     150.298 131.062 137.861  0.00  0.00    +0.000 C 
ATOM     83  C   UNL     1     151.367 132.770 136.308  0.00  0.00    +0.000 C 
ENDROOT
BRANCH  69  84
ATOM     84  C   UNL     1     157.103 135.500 120.400  0.00  0.00    +0.000 C 
ATOM     85  C   UNL     1     157.616 136.188 119.559  0.00  0.00    +0.000 C 
BRANCH  85  86
ATOM     86  C   UNL     1     158.265 137.066 118.484  0.00  0.00    +0.000 C 
ATOM     87  C   UNL     1     158.825 137.828 117.547  0.00  0.00    +0.000 C 
ENDBRANCH  85  86
ENDBRANCH  69  84
BRANCH  13  88
ATOM     88  C   UNL     1     153.643 134.895 125.425  0.00  0.00    +0.000 C 
BRANCH  88  89
ATOM     89  O   UNL     1     152.871 134.315 126.333  0.00  0.00    +0.000 OA
ATOM     90  H   UNL     1     153.302 134.347 127.206  0.00  0.00    +0.000 HD
ENDBRANCH  88  89
ENDBRANCH  13  88
TORSDOF 4
ENDMDL
MODEL 9
REMARK VINA RESULT:      -8.0     20.909     26.716
REMARK  Name = Cyclosporin_A.pdbqt.pdb
REMARK  4 active torsions:
REMARK  status: ('A' for Active; 'I' for Inactive)
REMARK    1  A    between atoms: N_13  and  C_36
REMARK    2  A    between atoms: C_36  and  O_70
REMARK    3  A    between atoms: C_72  and  C_73
REMARK    4  A    between atoms: C_75  and  C_76
REMARK                            x       y       z     vdW  Elec       q    Type
REMARK                         _______ _______ _______ _____ _____    ______ ____
ROOT
ATOM      1  O   UNL     1     159.680 128.730 124.005  0.00  0.00    +0.000 OA
ATOM      2  O   UNL     1     161.182 130.122 119.302  0.00  0.00    +0.000 OA
ATOM      3  O   UNL     1     156.973 130.907 117.160  0.00  0.00    +0.000 OA
ATOM      4  O   UNL     1     155.491 126.238 124.507  0.00  0.00    +0.000 OA
ATOM      5  O   UNL     1     159.972 134.119 119.694  0.00  0.00    +0.000 OA
ATOM      6  O   UNL     1     150.578 138.118 124.476  0.00  0.00    +0.000 OA
ATOM      7  O   UNL     1     156.627 130.280 128.176  0.00  0.00    +0.000 OA
ATOM      8  O   UNL     1     149.649 133.385 125.479  0.00  0.00    +0.000 OA
ATOM      9  O   UNL     1     153.766 139.183 120.986  0.00  0.00    +0.000 OA
ATOM     10  O   UNL     1     152.346 131.379 127.839  0.00  0.00    +0.000 OA
ATOM     11  O   UNL     1     157.548 137.194 121.565  0.00  0.00    +0.000 OA
ATOM     12  N   UNL     1     159.912 129.598 120.666  0.00  0.00    +0.000 NA
ATOM     13  N   UNL     1     157.726 128.563 122.611  0.00  0.00    +0.000 NA
ATOM     14  N   UNL     1     158.828 130.769 117.853  0.00  0.00    +0.000 NA
ATOM     15  N   UNL     1     157.824 133.754 118.295  0.00  0.00    +0.000 NA
ATOM     16  N   UNL     1     155.653 128.641 124.893  0.00  0.00    +0.000 NA
ATOM     17  N   UNL     1     150.964 137.005 122.437  0.00  0.00    +0.000 N 
ATOM     18  N   UNL     1     151.313 134.617 124.389  0.00  0.00    +0.000 N 
ATOM     19  N   UNL     1     152.204 132.691 126.373  0.00  0.00    +0.000 NA
ATOM     20  N   UNL     1     155.689 131.307 126.376  0.00  0.00    +0.000 NA
ATOM     21  N   UNL     1     156.703 135.003 120.760  0.00  0.00    +0.000 NA
ATOM     22  N   UNL     1     154.028 136.977 121.932  0.00  0.00    +0.000 NA
ATOM     23  C   UNL     1     159.979 129.667 122.027  0.00  0.00    +0.000 C 
ATOM     24  C   UNL     1     158.697 130.236 119.071  0.00  0.00    +0.000 C 
ATOM     25  C   UNL     1     157.155 127.484 123.256  0.00  0.00    +0.000 C 
ATOM     26  C   UNL     1     161.168 129.772 122.726  0.00  0.00    +0.000 C 
ATOM     27  C   UNL     1     157.848 129.089 118.677  0.00  0.00    +0.000 C 
ATOM     28  C   UNL     1     159.040 129.006 122.792  0.00  0.00    +0.000 C 
ATOM     29  C   UNL     1     159.954 130.405 119.544  0.00  0.00    +0.000 C 
ATOM     30  C   UNL     1     158.461 132.813 117.654  0.00  0.00    +0.000 C 
ATOM     31  C   UNL     1     157.808 131.632 117.843  0.00  0.00    +0.000 C 
ATOM     32  C   UNL     1     155.883 127.541 124.039  0.00  0.00    +0.000 C 
ATOM     33  C   UNL     1     162.103 129.640 121.653  0.00  0.00    +0.000 C 
ATOM     34  C   UNL     1     161.019 129.033 123.852  0.00  0.00    +0.000 C 
ATOM     35  C   UNL     1     161.285 129.681 120.534  0.00  0.00    +0.000 C 
ATOM     36  C   UNL     1     157.951 129.887 117.165  0.00  0.00    +0.000 C 
ATOM     37  C   UNL     1     156.054 128.722 126.250  0.00  0.00    +0.000 C 
ATOM     38  C   UNL     1     150.958 135.902 124.707  0.00  0.00    +0.000 A 
ATOM     39  C   UNL     1     158.635 133.790 119.347  0.00  0.00    +0.000 C 
ATOM     40  C   UNL     1     151.850 137.931 121.832  0.00  0.00    +0.000 C 
ATOM     41  C   UNL     1     151.346 132.317 125.394  0.00  0.00    +0.000 C 
ATOM     42  C   UNL     1     158.112 134.680 117.169  0.00  0.00    +0.000 C 
ATOM     43  C   UNL     1     150.658 136.472 125.983  0.00  0.00    +0.000 A 
ATOM     44  C   UNL     1     150.630 139.099 121.176  0.00  0.00    +0.000 C 
ATOM     45  C   UNL     1     157.851 134.543 120.368  0.00  0.00    +0.000 C 
ATOM     46  C   UNL     1     150.026 132.155 126.100  0.00  0.00    +0.000 C 
ATOM     47  C   UNL     1     156.452 127.467 126.802  0.00  0.00    +0.000 C 
ATOM     48  C   UNL     1     150.871 136.956 123.803  0.00  0.00    +0.000 A 
ATOM     49  C   UNL     1     156.120 129.924 126.875  0.00  0.00    +0.000 C 
ATOM     50  C   UNL     1     150.848 133.546 124.992  0.00  0.00    +0.000 C 
ATOM     51  C   UNL     1     153.206 138.046 121.632  0.00  0.00    +0.000 C 
ATOM     52  C   UNL     1     154.227 131.408 126.365  0.00  0.00    +0.000 C 
ATOM     53  C   UNL     1     150.677 135.822 127.341  0.00  0.00    +0.000 C 
ATOM     54  C   UNL     1     150.442 137.813 125.796  0.00  0.00    +0.000 A 
ATOM     55  C   UNL     1     152.820 131.479 126.539  0.00  0.00    +0.000 C 
ATOM     56  C   UNL     1     155.313 136.953 121.784  0.00  0.00    +0.000 C 
ATOM     57  C   UNL     1     159.206 134.680 120.507  0.00  0.00    +0.000 C 
ATOM     58  C   UNL     1     150.227 137.971 121.844  0.00  0.00    +0.000 C 
ATOM     59  C   UNL     1     156.629 126.312 126.534  0.00  0.00    +0.000 C 
ATOM     60  C   UNL     1     156.540 136.188 121.329  0.00  0.00    +0.000 C 
ATOM     61  C   UNL     1     151.309 132.387 127.623  0.00  0.00    +0.000 C 
ATOM     62  C   UNL     1     156.223 131.288 127.583  0.00  0.00    +0.000 C 
ATOM     63  C   UNL     1     156.450 137.685 121.875  0.00  0.00    +0.000 C 
ATOM     64  H   UNL     1     155.876 129.523 124.430  0.00  0.00    +0.000 HD
ATOM     65  H   UNL     1     152.141 134.512 123.807  0.00  0.00    +0.000 HD
ATOM     66  H   UNL     1     155.871 134.549 120.391  0.00  0.00    +0.000 HD
ATOM     67  H   UNL     1     153.509 136.103 121.923  0.00  0.00    +0.000 HD
ATOM     68  C   UNL     1     157.832 126.415 123.576  0.00  0.00    +0.000 C 
ATOM     69  C   UNL     1     157.709 125.360 124.522  0.00  0.00    +0.000 C 
ATOM     70  C   UNL     1     156.482 125.574 125.315  0.00  0.00    +0.000 C 
ATOM     71  C   UNL     1     158.014 127.555 118.033  0.00  0.00    +0.000 C 
ATOM     72  C   UNL     1     157.291 126.480 118.343  0.00  0.00    +0.000 C 
ATOM     73  C   UNL     1     157.926 128.552 117.058  0.00  0.00    +0.000 C 
ATOM     74  C   UNL     1     158.703 133.603 116.439  0.00  0.00    +0.000 C 
ATOM     75  C   UNL     1     159.260 134.856 116.221  0.00  0.00    +0.000 C 
ATOM     76  C   UNL     1     159.148 135.557 114.850  0.00  0.00    +0.000 C 
ATOM     77  C   UNL     1     158.999 135.737 117.252  0.00  0.00    +0.000 C 
ATOM     78  C   UNL     1     149.151 131.138 126.972  0.00  0.00    +0.000 C 
ATOM     79  C   UNL     1     147.848 130.928 127.140  0.00  0.00    +0.000 C 
ATOM     80  C   UNL     1     150.186 131.622 127.773  0.00  0.00    +0.000 C 
ATOM     81  C   UNL     1     151.322 140.077 120.586  0.00  0.00    +0.000 C 
ATOM     82  C   UNL     1     150.656 141.231 119.915  0.00  0.00    +0.000 C 
ATOM     83  C   UNL     1     152.731 139.937 120.612  0.00  0.00    +0.000 C 
ENDROOT
BRANCH  69  84
ATOM     84  C   UNL     1     158.746 124.493 124.943  0.00  0.00    +0.000 C 
ATOM     85  C   UNL     1     159.623 123.758 125.307  0.00  0.00    +0.000 C 
BRANCH  85  86
ATOM     86  C   UNL     1     160.741 122.821 125.777  0.00  0.00    +0.000 C 
ATOM     87  C   UNL     1     161.713 122.010 126.190  0.00  0.00    +0.000 C 
ENDBRANCH  85  86
ENDBRANCH  69  84
BRANCH  13  88
ATOM     88  C   UNL     1     156.825 129.463 121.909  0.00  0.00    +0.000 C 
BRANCH  88  89
ATOM     89  O   UNL     1     155.985 130.275 121.282  0.00  0.00    +0.000 OA
ATOM     90  H   UNL     1     155.811 131.061 121.830  0.00  0.00    +0.000 HD
ENDBRANCH  88  89
ENDBRANCH  13  88
TORSDOF 4
ENDMDL
