MODEL 1
REMARK VINA RESULT:      -7.3      0.000      0.000
REMARK  Name = Danazol.pdbqt.pdb
REMARK  2 active torsions:
REMARK  status: ('A' for Active; 'I' for Inactive)
REMARK    1  A    between atoms: C_9  and  O_23
REMARK    2  A    between atoms: C_9  and  C_25
REMARK                            x       y       z     vdW  Elec       q    Type
REMARK                         _______ _______ _______ _____ _____    ______ ____
ROOT
ATOM      1  O   UNL     1     140.424 126.471 101.868  0.00  0.00    +0.000 OA
ATOM      2  N   UNL     1     141.005 127.116 102.980  0.00  0.00    +0.000 NA
ATOM      3  C   UNL     1     145.633 125.939  96.343  0.00  0.00    +0.000 C 
ATOM      4  C   UNL     1     147.162 126.299  96.727  0.00  0.00    +0.000 C 
ATOM      5  C   UNL     1     144.653 125.452  97.333  0.00  0.00    +0.000 C 
ATOM      6  C   UNL     1     144.861 125.364  98.820  0.00  0.00    +0.000 C 
ATOM      7  C   UNL     1     143.851 124.719  99.799  0.00  0.00    +0.000 C 
ATOM      8  C   UNL     1     147.195 126.293  98.197  0.00  0.00    +0.000 C 
ATOM      9  C   UNL     1     147.412 127.744  96.010  0.00  0.00    +0.000 C 
ATOM     10  C   UNL     1     146.147 125.848  99.186  0.00  0.00    +0.000 C 
ATOM     11  C   UNL     1     145.233 126.729  95.227  0.00  0.00    +0.000 C 
ATOM     12  C   UNL     1     143.331 125.125  96.956  0.00  0.00    +0.000 C 
ATOM     13  C   UNL     1     146.302 127.763  95.033  0.00  0.00    +0.000 C 
ATOM     14  C   UNL     1     142.295 124.618  99.230  0.00  0.00    +0.000 C 
ATOM     15  C   UNL     1     148.037 125.129  96.145  0.00  0.00    +0.000 C 
ATOM     16  C   UNL     1     142.174 124.726  97.823  0.00  0.00    +0.000 C 
ATOM     17  C   UNL     1     143.726 125.562 101.040  0.00  0.00    +0.000 C 
ATOM     18  C   UNL     1     144.310 123.271 100.134  0.00  0.00    +0.000 C 
ATOM     19  C   UNL     1     141.359 125.163  99.977  0.00  0.00    +0.000 C 
ATOM     20  C   UNL     1     142.639 126.141 101.758  0.00  0.00    +0.000 A 
ATOM     21  C   UNL     1     141.423 125.906 101.179  0.00  0.00    +0.000 A 
ATOM     22  C   UNL     1     142.334 126.894 102.889  0.00  0.00    +0.000 A 
ENDROOT
BRANCH   9  23
ATOM     23  O   UNL     1     148.658 127.862  95.307  0.00  0.00    +0.000 OA
ATOM     24  H   UNL     1     148.598 128.644  94.731  0.00  0.00    +0.000 HD
ENDBRANCH   9  23
BRANCH   9  25
ATOM     25  C   UNL     1     147.288 128.856  96.984  0.00  0.00    +0.000 C 
ATOM     26  C   UNL     1     147.173 129.766  97.751  0.00  0.00    +0.000 C 
ENDBRANCH   9  25
TORSDOF 2
ENDMDL
MODEL 2
REMARK VINA RESULT:      -6.9      2.599      4.407
REMARK  Name = Danazol.pdbqt.pdb
REMARK  2 active torsions:
REMARK  status: ('A' for Active; 'I' for Inactive)
REMARK    1  A    between atoms: C_9  and  O_23
REMARK    2  A    between atoms: C_9  and  C_25
REMARK                            x       y       z     vdW  Elec       q    Type
REMARK                         _______ _______ _______ _____ _____    ______ ____
ROOT
ATOM      1  O   UNL     1     142.177 127.015 103.244  0.00  0.00    +0.000 OA
ATOM      2  N   UNL     1     140.845 126.561 103.344  0.00  0.00    +0.000 NA
ATOM      3  C   UNL     1     144.756 125.527  96.238  0.00  0.00    +0.000 C 
ATOM      4  C   UNL     1     143.674 125.046  95.135  0.00  0.00    +0.000 C 
ATOM      5  C   UNL     1     144.396 126.361  97.401  0.00  0.00    +0.000 C 
ATOM      6  C   UNL     1     143.004 126.752  97.817  0.00  0.00    +0.000 C 
ATOM      7  C   UNL     1     142.689 127.741  98.965  0.00  0.00    +0.000 C 
ATOM      8  C   UNL     1     142.366 125.379  95.718  0.00  0.00    +0.000 C 
ATOM      9  C   UNL     1     143.992 123.456  94.949  0.00  0.00    +0.000 C 
ATOM     10  C   UNL     1     142.032 126.183  96.950  0.00  0.00    +0.000 C 
ATOM     11  C   UNL     1     145.809 124.572  96.306  0.00  0.00    +0.000 C 
ATOM     12  C   UNL     1     145.373 126.782  98.332  0.00  0.00    +0.000 C 
ATOM     13  C   UNL     1     145.352 123.377  95.522  0.00  0.00    +0.000 C 
ATOM     14  C   UNL     1     143.909 127.933 100.074  0.00  0.00    +0.000 C 
ATOM     15  C   UNL     1     143.952 125.916  93.855  0.00  0.00    +0.000 C 
ATOM     16  C   UNL     1     145.188 127.529  99.619  0.00  0.00    +0.000 C 
ATOM     17  C   UNL     1     141.536 127.227  99.786  0.00  0.00    +0.000 C 
ATOM     18  C   UNL     1     142.387 129.145  98.369  0.00  0.00    +0.000 C 
ATOM     19  C   UNL     1     143.600 127.712 101.333  0.00  0.00    +0.000 C 
ATOM     20  C   UNL     1     141.316 126.988 101.174  0.00  0.00    +0.000 A 
ATOM     21  C   UNL     1     142.410 127.259 101.949  0.00  0.00    +0.000 A 
ATOM     22  C   UNL     1     140.355 126.562 102.086  0.00  0.00    +0.000 A 
ENDROOT
BRANCH   9  23
ATOM     23  O   UNL     1     144.029 123.003  93.587  0.00  0.00    +0.000 OA
ATOM     24  H   UNL     1     144.964 122.929  93.326  0.00  0.00    +0.000 HD
ENDBRANCH   9  23
BRANCH   9  25
ATOM     25  C   UNL     1     143.036 122.623  95.719  0.00  0.00    +0.000 C 
ATOM     26  C   UNL     1     142.287 121.938  96.350  0.00  0.00    +0.000 C 
ENDBRANCH   9  25
TORSDOF 2
ENDMDL
MODEL 3
REMARK VINA RESULT:      -6.8      3.162      6.654
REMARK  Name = Danazol.pdbqt.pdb
REMARK  2 active torsions:
REMARK  status: ('A' for Active; 'I' for Inactive)
REMARK    1  A    between atoms: C_9  and  O_23
REMARK    2  A    between atoms: C_9  and  C_25
REMARK                            x       y       z     vdW  Elec       q    Type
REMARK                         _______ _______ _______ _____ _____    ______ ____
ROOT
ATOM      1  O   UNL     1     144.066 122.833  94.157  0.00  0.00    +0.000 OA
ATOM      2  N   UNL     1     143.376 121.617  94.349  0.00  0.00    +0.000 NA
ATOM      3  C   UNL     1     143.499 127.008 100.497  0.00  0.00    +0.000 C 
ATOM      4  C   UNL     1     142.903 126.282 101.813  0.00  0.00    +0.000 C 
ATOM      5  C   UNL     1     144.182 126.270  99.416  0.00  0.00    +0.000 C 
ATOM      6  C   UNL     1     144.292 124.774  99.293  0.00  0.00    +0.000 C 
ATOM      7  C   UNL     1     145.135 124.054  98.214  0.00  0.00    +0.000 C 
ATOM      8  C   UNL     1     142.960 124.843 101.511  0.00  0.00    +0.000 C 
ATOM      9  C   UNL     1     141.409 126.923 101.965  0.00  0.00    +0.000 C 
ATOM     10  C   UNL     1     143.613 124.122 100.358  0.00  0.00    +0.000 C 
ATOM     11  C   UNL     1     142.745 128.186 100.230  0.00  0.00    +0.000 C 
ATOM     12  C   UNL     1     144.712 126.941  98.291  0.00  0.00    +0.000 C 
ATOM     13  C   UNL     1     141.539 128.129 101.121  0.00  0.00    +0.000 C 
ATOM     14  C   UNL     1     145.473 124.966  96.869  0.00  0.00    +0.000 C 
ATOM     15  C   UNL     1     143.885 126.645 102.985  0.00  0.00    +0.000 C 
ATOM     16  C   UNL     1     145.333 126.363  97.055  0.00  0.00    +0.000 C 
ATOM     17  C   UNL     1     144.374 122.876  97.666  0.00  0.00    +0.000 C 
ATOM     18  C   UNL     1     146.497 123.621  98.827  0.00  0.00    +0.000 C 
ATOM     19  C   UNL     1     145.124 124.456  95.708  0.00  0.00    +0.000 C 
ATOM     20  C   UNL     1     144.014 122.428  96.362  0.00  0.00    +0.000 A 
ATOM     21  C   UNL     1     144.428 123.273  95.368  0.00  0.00    +0.000 A 
ATOM     22  C   UNL     1     143.368 121.400  95.682  0.00  0.00    +0.000 A 
ENDROOT
BRANCH   9  23
ATOM     23  O   UNL     1     141.056 127.320 103.300  0.00  0.00    +0.000 OA
ATOM     24  H   UNL     1     141.829 127.161 103.868  0.00  0.00    +0.000 HD
ENDBRANCH   9  23
BRANCH   9  25
ATOM     25  C   UNL     1     140.373 126.005 101.433  0.00  0.00    +0.000 C 
ATOM     26  C   UNL     1     139.528 125.262 101.030  0.00  0.00    +0.000 C 
ENDBRANCH   9  25
TORSDOF 2
ENDMDL
MODEL 4
REMARK VINA RESULT:      -6.7      1.754      2.118
REMARK  Name = Danazol.pdbqt.pdb
REMARK  2 active torsions:
REMARK  status: ('A' for Active; 'I' for Inactive)
REMARK    1  A    between atoms: C_9  and  O_23
REMARK    2  A    between atoms: C_9  and  C_25
REMARK                            x       y       z     vdW  Elec       q    Type
REMARK                         _______ _______ _______ _____ _____    ______ ____
ROOT
ATOM      1  O   UNL     1     143.624 126.795 103.688  0.00  0.00    +0.000 OA
ATOM      2  N   UNL     1     144.904 127.010 104.243  0.00  0.00    +0.000 NA
ATOM      3  C   UNL     1     144.316 126.010  96.148  0.00  0.00    +0.000 C 
ATOM      4  C   UNL     1     145.811 125.846  95.553  0.00  0.00    +0.000 C 
ATOM      5  C   UNL     1     143.956 125.617  97.524  0.00  0.00    +0.000 C 
ATOM      6  C   UNL     1     144.908 125.168  98.599  0.00  0.00    +0.000 C 
ATOM      7  C   UNL     1     144.465 124.637  99.983  0.00  0.00    +0.000 C 
ATOM      8  C   UNL     1     146.650 125.527  96.718  0.00  0.00    +0.000 C 
ATOM      9  C   UNL     1     146.100 127.283  94.834  0.00  0.00    +0.000 C 
ATOM     10  C   UNL     1     146.251 125.192  98.134  0.00  0.00    +0.000 C 
ATOM     11  C   UNL     1     143.667 127.093  95.491  0.00  0.00    +0.000 C 
ATOM     12  C   UNL     1     142.632 125.753  98.003  0.00  0.00    +0.000 C 
ATOM     13  C   UNL     1     144.725 127.809  94.705  0.00  0.00    +0.000 C 
ATOM     14  C   UNL     1     142.937 125.090 100.447  0.00  0.00    +0.000 C 
ATOM     15  C   UNL     1     145.746 124.628  94.561  0.00  0.00    +0.000 C 
ATOM     16  C   UNL     1     142.101 125.516  99.386  0.00  0.00    +0.000 C 
ATOM     17  C   UNL     1     145.350 125.205 101.061  0.00  0.00    +0.000 C 
ATOM     18  C   UNL     1     144.498 123.082  99.974  0.00  0.00    +0.000 C 
ATOM     19  C   UNL     1     142.831 125.703 101.605  0.00  0.00    +0.000 C 
ATOM     20  C   UNL     1     145.126 125.899 102.286  0.00  0.00    +0.000 A 
ATOM     21  C   UNL     1     143.802 126.134 102.539  0.00  0.00    +0.000 A 
ATOM     22  C   UNL     1     145.782 126.454 103.380  0.00  0.00    +0.000 A 
ENDROOT
BRANCH   9  23
ATOM     23  O   UNL     1     146.694 127.197  93.530  0.00  0.00    +0.000 OA
ATOM     24  H   UNL     1     147.125 126.327  93.460  0.00  0.00    +0.000 HD
ENDBRANCH   9  23
BRANCH   9  25
ATOM     25  C   UNL     1     146.931 128.158  95.697  0.00  0.00    +0.000 C 
ATOM     26  C   UNL     1     147.621 128.859  96.376  0.00  0.00    +0.000 C 
ENDBRANCH   9  25
TORSDOF 2
ENDMDL
MODEL 5
REMARK VINA RESULT:      -6.6      2.840      4.054
REMARK  Name = Danazol.pdbqt.pdb
REMARK  2 active torsions:
REMARK  status: ('A' for Active; 'I' for Inactive)
REMARK    1  A    between atoms: C_9  and  O_23
REMARK    2  A    between atoms: C_9  and  C_25
REMARK                            x       y       z     vdW  Elec       q    Type
REMARK                         _______ _______ _______ _____ _____    ______ ____
ROOT
ATOM      1  O   UNL     1     146.186 127.498 104.095  0.00  0.00    +0.000 OA
ATOM      2  N   UNL     1     147.535 127.153 103.865  0.00  0.00    +0.000 NA
ATOM      3  C   UNL     1     142.310 126.726  97.590  0.00  0.00    +0.000 C 
ATOM      4  C   UNL     1     143.058 125.983  96.363  0.00  0.00    +0.000 C 
ATOM      5  C   UNL     1     142.649 126.474  99.004  0.00  0.00    +0.000 C 
ATOM      6  C   UNL     1     143.796 125.642  99.508  0.00  0.00    +0.000 C 
ATOM      7  C   UNL     1     144.026 125.298 100.999  0.00  0.00    +0.000 C 
ATOM      8  C   UNL     1     144.216 125.313  96.976  0.00  0.00    +0.000 C 
ATOM      9  C   UNL     1     143.399 127.197  95.326  0.00  0.00    +0.000 C 
ATOM     10  C   UNL     1     144.568 125.128  98.430  0.00  0.00    +0.000 C 
ATOM     11  C   UNL     1     141.847 127.999  97.152  0.00  0.00    +0.000 C 
ATOM     12  C   UNL     1     141.957 127.124 100.051  0.00  0.00    +0.000 C 
ATOM     13  C   UNL     1     142.476 128.243  95.812  0.00  0.00    +0.000 C 
ATOM     14  C   UNL     1     143.285 126.322 102.074  0.00  0.00    +0.000 C 
ATOM     15  C   UNL     1     142.032 124.929  95.810  0.00  0.00    +0.000 C 
ATOM     16  C   UNL     1     142.225 127.084 101.526  0.00  0.00    +0.000 C 
ATOM     17  C   UNL     1     145.489 125.421 101.337  0.00  0.00    +0.000 C 
ATOM     18  C   UNL     1     143.491 123.866 101.287  0.00  0.00    +0.000 C 
ATOM     19  C   UNL     1     144.057 126.890 102.975  0.00  0.00    +0.000 C 
ATOM     20  C   UNL     1     146.237 126.108 102.337  0.00  0.00    +0.000 A 
ATOM     21  C   UNL     1     145.456 126.856 103.175  0.00  0.00    +0.000 A 
ATOM     22  C   UNL     1     147.530 126.314 102.808  0.00  0.00    +0.000 A 
ENDROOT
BRANCH   9  23
ATOM     23  O   UNL     1     143.106 126.914  93.949  0.00  0.00    +0.000 OA
ATOM     24  H   UNL     1     142.454 126.192  93.929  0.00  0.00    +0.000 HD
ENDBRANCH   9  23
BRANCH   9  25
ATOM     25  C   UNL     1     144.813 127.629  95.449  0.00  0.00    +0.000 C 
ATOM     26  C   UNL     1     145.946 127.989  95.573  0.00  0.00    +0.000 C 
ENDBRANCH   9  25
TORSDOF 2
ENDMDL
MODEL 6
REMARK VINA RESULT:      -6.5     35.764     39.621
REMARK  Name = Danazol.pdbqt.pdb
REMARK  2 active torsions:
REMARK  status: ('A' for Active; 'I' for Inactive)
REMARK    1  A    between atoms: C_9  and  O_23
REMARK    2  A    between atoms: C_9  and  C_25
REMARK                            x       y       z     vdW  Elec       q    Type
REMARK                         _______ _______ _______ _____ _____    ______ ____
ROOT
ATOM      1  O   UNL     1     136.408 136.481 141.333  0.00  0.00    +0.000 OA
ATOM      2  N   UNL     1     135.731 137.698 141.107  0.00  0.00    +0.000 NA
ATOM      3  C   UNL     1     138.548 133.579 134.630  0.00  0.00    +0.000 C 
ATOM      4  C   UNL     1     138.408 134.531 133.330  0.00  0.00    +0.000 C 
ATOM      5  C   UNL     1     138.725 134.110 135.995  0.00  0.00    +0.000 C 
ATOM      6  C   UNL     1     138.650 135.557 136.403  0.00  0.00    +0.000 C 
ATOM      7  C   UNL     1     138.979 136.074 137.823  0.00  0.00    +0.000 C 
ATOM      8  C   UNL     1     138.225 135.886 133.871  0.00  0.00    +0.000 C 
ATOM      9  C   UNL     1     137.134 133.902 132.525  0.00  0.00    +0.000 C 
ATOM     10  C   UNL     1     138.350 136.387 135.288  0.00  0.00    +0.000 C 
ATOM     11  C   UNL     1     137.855 132.358 134.391  0.00  0.00    +0.000 C 
ATOM     12  C   UNL     1     138.867 133.247 137.105  0.00  0.00    +0.000 C 
ATOM     13  C   UNL     1     137.054 132.561 133.139  0.00  0.00    +0.000 C 
ATOM     14  C   UNL     1     138.885 134.929 139.022  0.00  0.00    +0.000 C 
ATOM     15  C   UNL     1     139.777 134.416 132.565  0.00  0.00    +0.000 C 
ATOM     16  C   UNL     1     138.945 133.590 138.563  0.00  0.00    +0.000 C 
ATOM     17  C   UNL     1     137.970 137.112 138.239  0.00  0.00    +0.000 C 
ATOM     18  C   UNL     1     140.426 136.641 137.845  0.00  0.00    +0.000 C 
ATOM     19  C   UNL     1     138.094 135.203 140.037  0.00  0.00    +0.000 C 
ATOM     20  C   UNL     1     137.124 137.297 139.371  0.00  0.00    +0.000 A 
ATOM     21  C   UNL     1     137.221 136.287 140.289  0.00  0.00    +0.000 A 
ATOM     22  C   UNL     1     136.188 138.165 139.925  0.00  0.00    +0.000 A 
ENDROOT
BRANCH   9  23
ATOM     23  O   UNL     1     137.325 133.761 131.109  0.00  0.00    +0.000 OA
ATOM     24  H   UNL     1     136.475 133.957 130.677  0.00  0.00    +0.000 HD
ENDBRANCH   9  23
BRANCH   9  25
ATOM     25  C   UNL     1     135.899 134.684 132.780  0.00  0.00    +0.000 C 
ATOM     26  C   UNL     1     134.895 135.306 132.960  0.00  0.00    +0.000 C 
ENDBRANCH   9  25
TORSDOF 2
ENDMDL
MODEL 7
REMARK VINA RESULT:      -6.1     17.877     20.029
REMARK  Name = Danazol.pdbqt.pdb
REMARK  2 active torsions:
REMARK  status: ('A' for Active; 'I' for Inactive)
REMARK    1  A    between atoms: C_9  and  O_23
REMARK    2  A    between atoms: C_9  and  C_25
REMARK                            x       y       z     vdW  Elec       q    Type
REMARK                         _______ _______ _______ _____ _____    ______ ____
ROOT
ATOM      1  O   UNL     1     152.923 128.090 111.763  0.00  0.00    +0.000 OA
ATOM      2  N   UNL     1     153.282 127.734 110.446  0.00  0.00    +0.000 NA
ATOM      3  C   UNL     1     155.058 122.512 116.482  0.00  0.00    +0.000 C 
ATOM      4  C   UNL     1     156.019 121.358 115.881  0.00  0.00    +0.000 C 
ATOM      5  C   UNL     1     155.014 123.881 115.935  0.00  0.00    +0.000 C 
ATOM      6  C   UNL     1     155.707 124.364 114.689  0.00  0.00    +0.000 C 
ATOM      7  C   UNL     1     155.740 125.842 114.234  0.00  0.00    +0.000 C 
ATOM      8  C   UNL     1     156.531 121.912 114.618  0.00  0.00    +0.000 C 
ATOM      9  C   UNL     1     155.034 120.064 115.749  0.00  0.00    +0.000 C 
ATOM     10  C   UNL     1     156.413 123.306 114.055  0.00  0.00    +0.000 C 
ATOM     11  C   UNL     1     153.908 121.906 117.062  0.00  0.00    +0.000 C 
ATOM     12  C   UNL     1     154.179 124.871 116.501  0.00  0.00    +0.000 C 
ATOM     13  C   UNL     1     153.927 120.466 116.642  0.00  0.00    +0.000 C 
ATOM     14  C   UNL     1     154.533 126.793 114.863  0.00  0.00    +0.000 C 
ATOM     15  C   UNL     1     157.182 121.182 116.925  0.00  0.00    +0.000 C 
ATOM     16  C   UNL     1     153.916 126.268 116.025  0.00  0.00    +0.000 C 
ATOM     17  C   UNL     1     155.525 125.928 112.746  0.00  0.00    +0.000 C 
ATOM     18  C   UNL     1     157.093 126.482 114.655  0.00  0.00    +0.000 C 
ATOM     19  C   UNL     1     153.782 127.439 113.999  0.00  0.00    +0.000 C 
ATOM     20  C   UNL     1     154.637 126.651 111.897  0.00  0.00    +0.000 A 
ATOM     21  C   UNL     1     153.749 127.433 112.585  0.00  0.00    +0.000 A 
ATOM     22  C   UNL     1     154.318 126.875 110.561  0.00  0.00    +0.000 A 
ENDROOT
BRANCH   9  23
ATOM     23  O   UNL     1     155.593 118.828 116.221  0.00  0.00    +0.000 OA
ATOM     24  H   UNL     1     155.903 118.330 115.444  0.00  0.00    +0.000 HD
ENDBRANCH   9  23
BRANCH   9  25
ATOM     25  C   UNL     1     154.560 119.888 114.354  0.00  0.00    +0.000 C 
ATOM     26  C   UNL     1     154.201 119.760 113.221  0.00  0.00    +0.000 C 
ENDBRANCH   9  25
TORSDOF 2
ENDMDL
MODEL 8
REMARK VINA RESULT:      -6.1     21.529     24.529
REMARK  Name = Danazol.pdbqt.pdb
REMARK  2 active torsions:
REMARK  status: ('A' for Active; 'I' for Inactive)
REMARK    1  A    between atoms: C_9  and  O_23
REMARK    2  A    between atoms: C_9  and  C_25
REMARK                            x       y       z     vdW  Elec       q    Type
REMARK                         _______ _______ _______ _____ _____    ______ ____
ROOT
ATOM      1  O   UNL     1     146.607 113.701 113.473  0.00  0.00    +0.000 OA
ATOM      2  N   UNL     1     145.820 112.531 113.533  0.00  0.00    +0.000 NA
ATOM      3  C   UNL     1     150.848 114.135 119.779  0.00  0.00    +0.000 C 
ATOM      4  C   UNL     1     150.893 112.831 120.735  0.00  0.00    +0.000 C 
ATOM      5  C   UNL     1     150.578 114.056 118.331  0.00  0.00    +0.000 C 
ATOM      6  C   UNL     1     150.164 112.826 117.569  0.00  0.00    +0.000 C 
ATOM      7  C   UNL     1     150.026 112.767 116.030  0.00  0.00    +0.000 C 
ATOM      8  C   UNL     1     150.357 111.738 119.910  0.00  0.00    +0.000 C 
ATOM      9  C   UNL     1     149.991 113.265 122.024  0.00  0.00    +0.000 C 
ATOM     10  C   UNL     1     150.029 111.709 118.438  0.00  0.00    +0.000 C 
ATOM     11  C   UNL     1     150.451 115.265 120.549  0.00  0.00    +0.000 C 
ATOM     12  C   UNL     1     150.570 115.215 117.522  0.00  0.00    +0.000 C 
ATOM     13  C   UNL     1     149.977 114.735 121.870  0.00  0.00    +0.000 C 
ATOM     14  C   UNL     1     149.816 114.238 115.290  0.00  0.00    +0.000 C 
ATOM     15  C   UNL     1     152.412 112.590 121.060  0.00  0.00    +0.000 C 
ATOM     16  C   UNL     1     150.212 115.351 116.072  0.00  0.00    +0.000 C 
ATOM     17  C   UNL     1     148.787 111.996 115.653  0.00  0.00    +0.000 C 
ATOM     18  C   UNL     1     151.305 112.126 115.420  0.00  0.00    +0.000 C 
ATOM     19  C   UNL     1     148.757 114.364 114.521  0.00  0.00    +0.000 C 
ATOM     20  C   UNL     1     147.659 112.249 114.819  0.00  0.00    +0.000 A 
ATOM     21  C   UNL     1     147.682 113.489 114.240  0.00  0.00    +0.000 A 
ATOM     22  C   UNL     1     146.483 111.678 114.343  0.00  0.00    +0.000 A 
ENDROOT
BRANCH   9  23
ATOM     23  O   UNL     1     150.560 112.932 123.300  0.00  0.00    +0.000 OA
ATOM     24  H   UNL     1     151.412 112.490 123.135  0.00  0.00    +0.000 HD
ENDBRANCH   9  23
BRANCH   9  25
ATOM     25  C   UNL     1     148.620 112.704 121.935  0.00  0.00    +0.000 C 
ATOM     26  C   UNL     1     147.520 112.241 121.888  0.00  0.00    +0.000 C 
ENDBRANCH   9  25
TORSDOF 2
ENDMDL
MODEL 9
REMARK VINA RESULT:      -6.1     14.986     17.158
REMARK  Name = Danazol.pdbqt.pdb
REMARK  2 active torsions:
REMARK  status: ('A' for Active; 'I' for Inactive)
REMARK    1  A    between atoms: C_9  and  O_23
REMARK    2  A    between atoms: C_9  and  C_25
REMARK                            x       y       z     vdW  Elec       q    Type
REMARK                         _______ _______ _______ _____ _____    ______ ____
ROOT
ATOM      1  O   UNL     1     138.192 114.287 105.046  0.00  0.00    +0.000 OA
ATOM      2  N   UNL     1     137.353 115.420 105.011  0.00  0.00    +0.000 NA
ATOM      3  C   UNL     1     142.332 114.494 111.431  0.00  0.00    +0.000 C 
ATOM      4  C   UNL     1     141.919 115.589 112.548  0.00  0.00    +0.000 C 
ATOM      5  C   UNL     1     141.370 113.944 110.457  0.00  0.00    +0.000 C 
ATOM      6  C   UNL     1     139.952 114.403 110.251  0.00  0.00    +0.000 C 
ATOM      7  C   UNL     1     138.943 113.702 109.311  0.00  0.00    +0.000 C 
ATOM      8  C   UNL     1     140.572 116.035 112.161  0.00  0.00    +0.000 C 
ATOM      9  C   UNL     1     143.102 116.709 112.448  0.00  0.00    +0.000 C 
ATOM     10  C   UNL     1     139.637 115.489 111.112  0.00  0.00    +0.000 C 
ATOM     11  C   UNL     1     143.709 114.655 111.106  0.00  0.00    +0.000 C 
ATOM     12  C   UNL     1     141.761 112.971 109.509  0.00  0.00    +0.000 C 
ATOM     13  C   UNL     1     144.147 115.945 111.734  0.00  0.00    +0.000 C 
ATOM     14  C   UNL     1     139.628 112.761 108.128  0.00  0.00    +0.000 C 
ATOM     15  C   UNL     1     141.878 114.812 113.914  0.00  0.00    +0.000 C 
ATOM     16  C   UNL     1     140.968 112.380 108.382  0.00  0.00    +0.000 C 
ATOM     17  C   UNL     1     138.156 114.730 108.541  0.00  0.00    +0.000 C 
ATOM     18  C   UNL     1     138.013 112.779 110.149  0.00  0.00    +0.000 C 
ATOM     19  C   UNL     1     139.283 113.030 106.888  0.00  0.00    +0.000 C 
ATOM     20  C   UNL     1     137.871 114.954 107.163  0.00  0.00    +0.000 A 
ATOM     21  C   UNL     1     138.469 114.045 106.333  0.00  0.00    +0.000 A 
ATOM     22  C   UNL     1     137.174 115.792 106.297  0.00  0.00    +0.000 A 
ENDROOT
BRANCH   9  23
ATOM     23  O   UNL     1     143.624 117.151 113.711  0.00  0.00    +0.000 OA
ATOM     24  H   UNL     1     144.592 117.201 113.629  0.00  0.00    +0.000 HD
ENDBRANCH   9  23
BRANCH   9  25
ATOM     25  C   UNL     1     142.664 117.885 111.658  0.00  0.00    +0.000 C 
ATOM     26  C   UNL     1     142.325 118.824 111.000  0.00  0.00    +0.000 C 
ENDBRANCH   9  25
TORSDOF 2
ENDMDL
