MODEL 1
REMARK VINA RESULT:      -5.8      0.000      0.000
REMARK  Name = Decitabine.pdbqt.pdb
REMARK  4 active torsions:
REMARK  status: ('A' for Active; 'I' for Inactive)
REMARK    1  A    between atoms: N_2  and  C1*_8
REMARK    2  A    between atoms: C4*_10  and  C5*_13
REMARK    3  A    between atoms: C3*_11  and  O3*_16
REMARK    4  A    between atoms: C5*_13  and  O5*_14
REMARK                            x       y       z     vdW  Elec       q    Type
REMARK                         _______ _______ _______ _____ _____    ______ ____
ROOT
ATOM      1  O   UNL     1     136.633 124.057 132.652  0.00  0.00    +0.000 OA
ATOM      2  N   UNL     1     138.542 123.367 133.765  0.00  0.00    +0.000 N 
ATOM      3  N   UNL     1     138.674 124.638 131.800  0.00  0.00    +0.000 NA
ATOM      4  N   UNL     1     140.649 123.920 132.918  0.00  0.00    +0.000 NA
ATOM      5  C   UNL     1     137.856 124.018 132.744  0.00  0.00    +0.000 A 
ATOM      6  C   UNL     1     139.863 123.454 133.643  0.00  0.00    +0.000 A 
ATOM      7  C   UNL     1     139.976 124.589 131.910  0.00  0.00    +0.000 A 
ATOM      8  N   UNL     1     140.728 125.214 130.968  0.00  0.00    +0.000 N 
ATOM      9  H   UNL     1     141.654 124.825 130.847  0.00  0.00    +0.000 HD
ATOM     10  H   UNL     1     140.225 125.391 130.107  0.00  0.00    +0.000 HD
ENDROOT
BRANCH   2  11
ATOM     11  C1* UNL     1     137.987 122.690 134.805  0.00  0.00    +0.000 A 
ATOM     12  O4* UNL     1     137.183 121.561 134.612  0.00  0.00    +0.000 OA
ATOM     13  C4* UNL     1     136.792 121.119 135.882  0.00  0.00    +0.000 A 
ATOM     14  C3* UNL     1     137.357 121.990 136.881  0.00  0.00    +0.000 A 
ATOM     15  C2* UNL     1     138.108 122.952 136.184  0.00  0.00    +0.000 A 
BRANCH  14  16
ATOM     16  O3* UNL     1     137.672 121.524 138.125  0.00  0.00    +0.000 OA
ATOM     17  H3* UNL     1     137.004 120.890 138.440  0.00  0.00    +0.000 HD
ENDBRANCH  14  16
BRANCH  13  18
ATOM     18  C5* UNL     1     136.114 119.901 136.085  0.00  0.00    +0.000 C 
BRANCH  18  19
ATOM     19  O5* UNL     1     135.473 118.751 136.273  0.00  0.00    +0.000 OA
ATOM     20  H5* UNL     1     135.904 118.040 135.768  0.00  0.00    +0.000 HD
ENDBRANCH  18  19
ENDBRANCH  13  18
ENDBRANCH   2  11
TORSDOF 4
ENDMDL
MODEL 2
REMARK VINA RESULT:      -5.7      2.889      6.344
REMARK  Name = Decitabine.pdbqt.pdb
REMARK  4 active torsions:
REMARK  status: ('A' for Active; 'I' for Inactive)
REMARK    1  A    between atoms: N_2  and  C1*_8
REMARK    2  A    between atoms: C4*_10  and  C5*_13
REMARK    3  A    between atoms: C3*_11  and  O3*_16
REMARK    4  A    between atoms: C5*_13  and  O5*_14
REMARK                            x       y       z     vdW  Elec       q    Type
REMARK                         _______ _______ _______ _____ _____    ______ ____
ROOT
ATOM      1  O   UNL     1     136.684 123.916 132.690  0.00  0.00    +0.000 OA
ATOM      2  N   UNL     1     138.807 124.355 133.502  0.00  0.00    +0.000 N 
ATOM      3  N   UNL     1     137.406 122.790 134.545  0.00  0.00    +0.000 NA
ATOM      4  N   UNL     1     139.578 123.243 135.408  0.00  0.00    +0.000 NA
ATOM      5  C   UNL     1     137.574 123.711 133.509  0.00  0.00    +0.000 A 
ATOM      6  C   UNL     1     139.601 123.973 134.498  0.00  0.00    +0.000 A 
ATOM      7  C   UNL     1     138.363 122.580 135.412  0.00  0.00    +0.000 A 
ATOM      8  N   UNL     1     138.152 121.670 136.397  0.00  0.00    +0.000 N 
ATOM      9  H   UNL     1     138.694 121.830 137.236  0.00  0.00    +0.000 HD
ATOM     10  H   UNL     1     137.172 121.469 136.554  0.00  0.00    +0.000 HD
ENDROOT
BRANCH   2  11
ATOM     11  C1* UNL     1     139.223 125.289 132.607  0.00  0.00    +0.000 A 
ATOM     12  O4* UNL     1     139.914 124.944 131.440  0.00  0.00    +0.000 OA
ATOM     13  C4* UNL     1     140.177 126.138 130.756  0.00  0.00    +0.000 A 
ATOM     14  C3* UNL     1     139.647 127.243 131.513  0.00  0.00    +0.000 A 
ATOM     15  C2* UNL     1     139.045 126.686 132.655  0.00  0.00    +0.000 A 
BRANCH  14  16
ATOM     16  O3* UNL     1     139.209 128.377 130.890  0.00  0.00    +0.000 OA
ATOM     17  H3* UNL     1     139.658 129.165 131.242  0.00  0.00    +0.000 HD
ENDBRANCH  14  16
BRANCH  13  18
ATOM     18  C5* UNL     1     140.710 126.163 129.453  0.00  0.00    +0.000 C 
BRANCH  18  19
ATOM     19  O5* UNL     1     141.216 126.184 128.223  0.00  0.00    +0.000 OA
ATOM     20  H5* UNL     1     142.177 126.331 128.258  0.00  0.00    +0.000 HD
ENDBRANCH  18  19
ENDBRANCH  13  18
ENDBRANCH   2  11
TORSDOF 4
ENDMDL
MODEL 3
REMARK VINA RESULT:      -5.5     32.589     34.240
REMARK  Name = Decitabine.pdbqt.pdb
REMARK  4 active torsions:
REMARK  status: ('A' for Active; 'I' for Inactive)
REMARK    1  A    between atoms: N_2  and  C1*_8
REMARK    2  A    between atoms: C4*_10  and  C5*_13
REMARK    3  A    between atoms: C3*_11  and  O3*_16
REMARK    4  A    between atoms: C5*_13  and  O5*_14
REMARK                            x       y       z     vdW  Elec       q    Type
REMARK                         _______ _______ _______ _____ _____    ______ ____
ROOT
ATOM      1  O   UNL     1     145.390 124.663 101.552  0.00  0.00    +0.000 OA
ATOM      2  N   UNL     1     143.463 125.942 101.457  0.00  0.00    +0.000 N 
ATOM      3  N   UNL     1     145.287 126.590 102.779  0.00  0.00    +0.000 NA
ATOM      4  N   UNL     1     143.306 127.908 102.711  0.00  0.00    +0.000 NA
ATOM      5  C   UNL     1     144.752 125.653 101.894  0.00  0.00    +0.000 A 
ATOM      6  C   UNL     1     142.975 127.065 101.975  0.00  0.00    +0.000 A 
ATOM      7  C   UNL     1     144.597 127.642 103.135  0.00  0.00    +0.000 A 
ATOM      8  N   UNL     1     145.165 128.526 103.994  0.00  0.00    +0.000 N 
ATOM      9  H   UNL     1     144.504 129.058 104.545  0.00  0.00    +0.000 HD
ATOM     10  H   UNL     1     145.939 128.136 104.518  0.00  0.00    +0.000 HD
ENDROOT
BRANCH   2  11
ATOM     11  C1* UNL     1     142.718 125.198 100.596  0.00  0.00    +0.000 A 
ATOM     12  O4* UNL     1     143.303 124.362  99.639  0.00  0.00    +0.000 OA
ATOM     13  C4* UNL     1     142.255 123.750  98.940  0.00  0.00    +0.000 A 
ATOM     14  C3* UNL     1     140.998 124.218  99.466  0.00  0.00    +0.000 A 
ATOM     15  C2* UNL     1     141.315 125.109 100.507  0.00  0.00    +0.000 A 
BRANCH  14  16
ATOM     16  O3* UNL     1     139.887 123.423  99.447  0.00  0.00    +0.000 OA
ATOM     17  H3* UNL     1     139.316 123.603 100.214  0.00  0.00    +0.000 HD
ENDBRANCH  14  16
BRANCH  13  18
ATOM     18  C5* UNL     1     142.468 122.711  98.012  0.00  0.00    +0.000 C 
BRANCH  18  19
ATOM     19  O5* UNL     1     142.673 121.731  97.137  0.00  0.00    +0.000 OA
ATOM     20  H5* UNL     1     141.826 121.331  96.876  0.00  0.00    +0.000 HD
ENDBRANCH  18  19
ENDBRANCH  13  18
ENDBRANCH   2  11
TORSDOF 4
ENDMDL
MODEL 4
REMARK VINA RESULT:      -5.4     30.156     32.723
REMARK  Name = Decitabine.pdbqt.pdb
REMARK  4 active torsions:
REMARK  status: ('A' for Active; 'I' for Inactive)
REMARK    1  A    between atoms: N_2  and  C1*_8
REMARK    2  A    between atoms: C4*_10  and  C5*_13
REMARK    3  A    between atoms: C3*_11  and  O3*_16
REMARK    4  A    between atoms: C5*_13  and  O5*_14
REMARK                            x       y       z     vdW  Elec       q    Type
REMARK                         _______ _______ _______ _____ _____    ______ ____
ROOT
ATOM      1  O   UNL     1     144.470 123.453 101.299  0.00  0.00    +0.000 OA
ATOM      2  N   UNL     1     143.173 125.331 101.690  0.00  0.00    +0.000 N 
ATOM      3  N   UNL     1     142.567 123.752 100.066  0.00  0.00    +0.000 NA
ATOM      4  N   UNL     1     141.231 125.687 100.438  0.00  0.00    +0.000 NA
ATOM      5  C   UNL     1     143.481 124.135 101.049  0.00  0.00    +0.000 A 
ATOM      6  C   UNL     1     142.056 125.893 101.237  0.00  0.00    +0.000 A 
ATOM      7  C   UNL     1     141.517 124.487  99.809  0.00  0.00    +0.000 A 
ATOM      8  N   UNL     1     140.655 124.068  98.848  0.00  0.00    +0.000 N 
ATOM      9  H   UNL     1     140.129 124.810  98.404  0.00  0.00    +0.000 HD
ATOM     10  H   UNL     1     141.062 123.395  98.210  0.00  0.00    +0.000 HD
ENDROOT
BRANCH   2  11
ATOM     11  C1* UNL     1     143.893 125.924 102.679  0.00  0.00    +0.000 A 
ATOM     12  O4* UNL     1     143.911 125.425 103.986  0.00  0.00    +0.000 OA
ATOM     13  C4* UNL     1     144.749 126.265 104.730  0.00  0.00    +0.000 A 
ATOM     14  C3* UNL     1     145.256 127.307 103.873  0.00  0.00    +0.000 A 
ATOM     15  C2* UNL     1     144.718 127.063 102.597  0.00  0.00    +0.000 A 
BRANCH  14  16
ATOM     16  O3* UNL     1     146.481 127.868 104.096  0.00  0.00    +0.000 OA
ATOM     17  H3* UNL     1     146.749 128.429 103.348  0.00  0.00    +0.000 HD
ENDBRANCH  14  16
BRANCH  13  18
ATOM     18  C5* UNL     1     145.140 125.970 106.050  0.00  0.00    +0.000 C 
BRANCH  18  19
ATOM     19  O5* UNL     1     145.506 125.694 107.299  0.00  0.00    +0.000 OA
ATOM     20  H5* UNL     1     146.079 124.909 107.316  0.00  0.00    +0.000 HD
ENDBRANCH  18  19
ENDBRANCH  13  18
ENDBRANCH   2  11
TORSDOF 4
ENDMDL
MODEL 5
REMARK VINA RESULT:      -5.4     29.578     32.307
REMARK  Name = Decitabine.pdbqt.pdb
REMARK  4 active torsions:
REMARK  status: ('A' for Active; 'I' for Inactive)
REMARK    1  A    between atoms: N_2  and  C1*_8
REMARK    2  A    between atoms: C4*_10  and  C5*_13
REMARK    3  A    between atoms: C3*_11  and  O3*_16
REMARK    4  A    between atoms: C5*_13  and  O5*_14
REMARK                            x       y       z     vdW  Elec       q    Type
REMARK                         _______ _______ _______ _____ _____    ______ ____
ROOT
ATOM      1  O   UNL     1     145.908 127.159 103.536  0.00  0.00    +0.000 OA
ATOM      2  N   UNL     1     144.133 125.721 103.911  0.00  0.00    +0.000 N 
ATOM      3  N   UNL     1     145.457 126.504 105.680  0.00  0.00    +0.000 NA
ATOM      4  N   UNL     1     143.650 125.009 106.085  0.00  0.00    +0.000 NA
ATOM      5  C   UNL     1     145.210 126.507 104.307  0.00  0.00    +0.000 A 
ATOM      6  C   UNL     1     143.539 125.101 104.927  0.00  0.00    +0.000 A 
ATOM      7  C   UNL     1     144.706 125.806 106.492  0.00  0.00    +0.000 A 
ATOM      8  N   UNL     1     144.984 125.841 107.820  0.00  0.00    +0.000 N 
ATOM      9  H   UNL     1     144.686 125.021 108.331  0.00  0.00    +0.000 HD
ATOM     10  H   UNL     1     145.927 126.150 108.024  0.00  0.00    +0.000 HD
ENDROOT
BRANCH   2  11
ATOM     11  C1* UNL     1     143.682 125.552 102.640  0.00  0.00    +0.000 A 
ATOM     12  O4* UNL     1     143.977 124.406 101.894  0.00  0.00    +0.000 OA
ATOM     13  C4* UNL     1     143.355 124.561 100.649  0.00  0.00    +0.000 A 
ATOM     14  C3* UNL     1     142.666 125.826 100.618  0.00  0.00    +0.000 A 
ATOM     15  C2* UNL     1     142.875 126.417 101.876  0.00  0.00    +0.000 A 
BRANCH  14  16
ATOM     16  O3* UNL     1     141.539 125.996  99.867  0.00  0.00    +0.000 OA
ATOM     17  H3* UNL     1     141.225 126.916  99.911  0.00  0.00    +0.000 HD
ENDBRANCH  14  16
BRANCH  13  18
ATOM     18  C5* UNL     1     143.294 123.524  99.697  0.00  0.00    +0.000 C 
BRANCH  18  19
ATOM     19  O5* UNL     1     143.232 122.546  98.798  0.00  0.00    +0.000 OA
ATOM     20  H5* UNL     1     142.542 122.739  98.139  0.00  0.00    +0.000 HD
ENDBRANCH  18  19
ENDBRANCH  13  18
ENDBRANCH   2  11
TORSDOF 4
ENDMDL
MODEL 6
REMARK VINA RESULT:      -5.4     32.412     34.462
REMARK  Name = Decitabine.pdbqt.pdb
REMARK  4 active torsions:
REMARK  status: ('A' for Active; 'I' for Inactive)
REMARK    1  A    between atoms: N_2  and  C1*_8
REMARK    2  A    between atoms: C4*_10  and  C5*_13
REMARK    3  A    between atoms: C3*_11  and  O3*_16
REMARK    4  A    between atoms: C5*_13  and  O5*_14
REMARK                            x       y       z     vdW  Elec       q    Type
REMARK                         _______ _______ _______ _____ _____    ______ ____
ROOT
ATOM      1  O   UNL     1     145.835 122.995  99.915  0.00  0.00    +0.000 OA
ATOM      2  N   UNL     1     143.912 124.234 100.269  0.00  0.00    +0.000 N 
ATOM      3  N   UNL     1     144.008 122.590  98.600  0.00  0.00    +0.000 NA
ATOM      4  N   UNL     1     142.028 123.868  98.935  0.00  0.00    +0.000 NA
ATOM      5  C   UNL     1     144.672 123.261  99.628  0.00  0.00    +0.000 A 
ATOM      6  C   UNL     1     142.683 124.347  99.773  0.00  0.00    +0.000 A 
ATOM      7  C   UNL     1     142.768 122.883  98.304  0.00  0.00    +0.000 A 
ATOM      8  N   UNL     1     142.165 122.197  97.300  0.00  0.00    +0.000 N 
ATOM      9  H   UNL     1     141.415 122.699  96.843  0.00  0.00    +0.000 HD
ATOM     10  H   UNL     1     142.820 121.746  96.673  0.00  0.00    +0.000 HD
ENDROOT
BRANCH   2  11
ATOM     11  C1* UNL     1     144.317 125.026 101.297  0.00  0.00    +0.000 A 
ATOM     12  O4* UNL     1     145.288 126.019 101.131  0.00  0.00    +0.000 OA
ATOM     13  C4* UNL     1     145.454 126.637 102.377  0.00  0.00    +0.000 A 
ATOM     14  C3* UNL     1     144.576 126.015 103.334  0.00  0.00    +0.000 A 
ATOM     15  C2* UNL     1     143.869 125.023 102.632  0.00  0.00    +0.000 A 
BRANCH  14  16
ATOM     16  O3* UNL     1     144.067 126.721 104.387  0.00  0.00    +0.000 OA
ATOM     17  H3* UNL     1     144.701 127.391 104.697  0.00  0.00    +0.000 HD
ENDBRANCH  14  16
BRANCH  13  18
ATOM     18  C5* UNL     1     146.231 127.800 102.549  0.00  0.00    +0.000 C 
BRANCH  18  19
ATOM     19  O5* UNL     1     146.967 128.895 102.714  0.00  0.00    +0.000 OA
ATOM     20  H5* UNL     1     147.603 128.985 101.984  0.00  0.00    +0.000 HD
ENDBRANCH  18  19
ENDBRANCH  13  18
ENDBRANCH   2  11
TORSDOF 4
ENDMDL
MODEL 7
REMARK VINA RESULT:      -5.3      1.794      2.181
REMARK  Name = Decitabine.pdbqt.pdb
REMARK  4 active torsions:
REMARK  status: ('A' for Active; 'I' for Inactive)
REMARK    1  A    between atoms: N_2  and  C1*_8
REMARK    2  A    between atoms: C4*_10  and  C5*_13
REMARK    3  A    between atoms: C3*_11  and  O3*_16
REMARK    4  A    between atoms: C5*_13  and  O5*_14
REMARK                            x       y       z     vdW  Elec       q    Type
REMARK                         _______ _______ _______ _____ _____    ______ ____
ROOT
ATOM      1  O   UNL     1     135.560 122.849 132.393  0.00  0.00    +0.000 OA
ATOM      2  N   UNL     1     137.006 122.651 134.190  0.00  0.00    +0.000 N 
ATOM      3  N   UNL     1     137.309 124.312 132.564  0.00  0.00    +0.000 NA
ATOM      4  N   UNL     1     138.820 124.111 134.393  0.00  0.00    +0.000 NA
ATOM      5  C   UNL     1     136.547 123.233 133.013  0.00  0.00    +0.000 A 
ATOM      6  C   UNL     1     138.101 123.235 134.669  0.00  0.00    +0.000 A 
ATOM      7  C   UNL     1     138.360 124.711 133.234  0.00  0.00    +0.000 A 
ATOM      8  N   UNL     1     139.064 125.770 132.758  0.00  0.00    +0.000 N 
ATOM      9  H   UNL     1     140.037 125.783 133.035  0.00  0.00    +0.000 HD
ATOM     10  H   UNL     1     138.898 125.953 131.776  0.00  0.00    +0.000 HD
ENDROOT
BRANCH   2  11
ATOM     11  C1* UNL     1     136.449 121.593 134.837  0.00  0.00    +0.000 A 
ATOM     12  O4* UNL     1     136.689 120.272 134.444  0.00  0.00    +0.000 OA
ATOM     13  C4* UNL     1     135.972 119.450 135.323  0.00  0.00    +0.000 A 
ATOM     14  C3* UNL     1     135.270 120.273 136.274  0.00  0.00    +0.000 A 
ATOM     15  C2* UNL     1     135.595 121.604 135.958  0.00  0.00    +0.000 A 
BRANCH  14  16
ATOM     16  O3* UNL     1     135.013 119.825 137.538  0.00  0.00    +0.000 OA
ATOM     17  H3* UNL     1     134.774 118.882 137.533  0.00  0.00    +0.000 HD
ENDBRANCH  14  16
BRANCH  13  18
ATOM     18  C5* UNL     1     136.113 118.049 135.335  0.00  0.00    +0.000 C 
BRANCH  18  19
ATOM     19  O5* UNL     1     136.241 116.725 135.347  0.00  0.00    +0.000 OA
ATOM     20  H5* UNL     1     135.554 116.326 135.909  0.00  0.00    +0.000 HD
ENDBRANCH  18  19
ENDBRANCH  13  18
ENDBRANCH   2  11
TORSDOF 4
ENDMDL
MODEL 8
REMARK VINA RESULT:      -5.2      1.627      2.193
REMARK  Name = Decitabine.pdbqt.pdb
REMARK  4 active torsions:
REMARK  status: ('A' for Active; 'I' for Inactive)
REMARK    1  A    between atoms: N_2  and  C1*_8
REMARK    2  A    between atoms: C4*_10  and  C5*_13
REMARK    3  A    between atoms: C3*_11  and  O3*_16
REMARK    4  A    between atoms: C5*_13  and  O5*_14
REMARK                            x       y       z     vdW  Elec       q    Type
REMARK                         _______ _______ _______ _____ _____    ______ ____
ROOT
ATOM      1  O   UNL     1     136.396 123.889 132.590  0.00  0.00    +0.000 OA
ATOM      2  N   UNL     1     137.863 123.224 134.254  0.00  0.00    +0.000 N 
ATOM      3  N   UNL     1     138.257 125.158 132.987  0.00  0.00    +0.000 NA
ATOM      4  N   UNL     1     139.788 124.479 134.679  0.00  0.00    +0.000 NA
ATOM      5  C   UNL     1     137.424 124.066 133.236  0.00  0.00    +0.000 A 
ATOM      6  C   UNL     1     139.010 123.619 134.798  0.00  0.00    +0.000 A 
ATOM      7  C   UNL     1     139.350 125.336 133.684  0.00  0.00    +0.000 A 
ATOM      8  N   UNL     1     140.123 126.416 133.406  0.00  0.00    +0.000 N 
ATOM      9  H   UNL     1     141.100 126.303 133.643  0.00  0.00    +0.000 HD
ATOM     10  H   UNL     1     139.950 126.808 132.488  0.00  0.00    +0.000 HD
ENDROOT
BRANCH   2  11
ATOM     11  C1* UNL     1     137.240 122.099 134.693  0.00  0.00    +0.000 A 
ATOM     12  O4* UNL     1     136.632 122.029 135.951  0.00  0.00    +0.000 OA
ATOM     13  C4* UNL     1     136.090 120.743 136.069  0.00  0.00    +0.000 A 
ATOM     14  C3* UNL     1     136.369 119.999 134.868  0.00  0.00    +0.000 A 
ATOM     15  C2* UNL     1     137.075 120.872 134.020  0.00  0.00    +0.000 A 
BRANCH  14  16
ATOM     16  O3* UNL     1     135.520 119.024 134.430  0.00  0.00    +0.000 OA
ATOM     17  H3* UNL     1     134.603 119.214 134.694  0.00  0.00    +0.000 HD
ENDBRANCH  14  16
BRANCH  13  18
ATOM     18  C5* UNL     1     135.254 120.369 137.139  0.00  0.00    +0.000 C 
BRANCH  18  19
ATOM     19  O5* UNL     1     134.465 120.019 138.152  0.00  0.00    +0.000 OA
ATOM     20  H5* UNL     1     133.531 120.126 137.903  0.00  0.00    +0.000 HD
ENDBRANCH  18  19
ENDBRANCH  13  18
ENDBRANCH   2  11
TORSDOF 4
ENDMDL
MODEL 9
REMARK VINA RESULT:      -5.1     34.321     35.829
REMARK  Name = Decitabine.pdbqt.pdb
REMARK  4 active torsions:
REMARK  status: ('A' for Active; 'I' for Inactive)
REMARK    1  A    between atoms: N_2  and  C1*_8
REMARK    2  A    between atoms: C4*_10  and  C5*_13
REMARK    3  A    between atoms: C3*_11  and  O3*_16
REMARK    4  A    between atoms: C5*_13  and  O5*_14
REMARK                            x       y       z     vdW  Elec       q    Type
REMARK                         _______ _______ _______ _____ _____    ______ ____
ROOT
ATOM      1  O   UNL     1     146.852 125.544  97.441  0.00  0.00    +0.000 OA
ATOM      2  N   UNL     1     146.356 126.780  99.334  0.00  0.00    +0.000 N 
ATOM      3  N   UNL     1     147.942 127.525  97.776  0.00  0.00    +0.000 NA
ATOM      4  N   UNL     1     147.462 128.802  99.728  0.00  0.00    +0.000 NA
ATOM      5  C   UNL     1     147.026 126.537  98.139  0.00  0.00    +0.000 A 
ATOM      6  C   UNL     1     146.723 127.918  99.916  0.00  0.00    +0.000 A 
ATOM      7  C   UNL     1     148.118 128.581  98.529  0.00  0.00    +0.000 A 
ATOM      8  N   UNL     1     149.016 129.516  98.129  0.00  0.00    +0.000 N 
ATOM      9  H   UNL     1     149.415 130.061  98.882  0.00  0.00    +0.000 HD
ATOM     10  H   UNL     1     149.687 129.166  97.455  0.00  0.00    +0.000 HD
ENDROOT
BRANCH   2  11
ATOM     11  C1* UNL     1     145.418 125.982  99.908  0.00  0.00    +0.000 A 
ATOM     12  O4* UNL     1     144.067 126.045  99.548  0.00  0.00    +0.000 OA
ATOM     13  C4* UNL     1     143.395 125.091 100.323  0.00  0.00    +0.000 A 
ATOM     14  C3* UNL     1     144.342 124.429 101.184  0.00  0.00    +0.000 A 
ATOM     15  C2* UNL     1     145.597 124.993 100.896  0.00  0.00    +0.000 A 
BRANCH  14  16
ATOM     16  O3* UNL     1     144.154 123.133 101.573  0.00  0.00    +0.000 OA
ATOM     17  H3* UNL     1     144.836 122.857 102.210  0.00  0.00    +0.000 HD
ENDBRANCH  14  16
BRANCH  13  18
ATOM     18  C5* UNL     1     142.045 124.754 100.108  0.00  0.00    +0.000 C 
BRANCH  18  19
ATOM     19  O5* UNL     1     140.771 124.432  99.901  0.00  0.00    +0.000 OA
ATOM     20  H5* UNL     1     140.423 123.934 100.660  0.00  0.00    +0.000 HD
ENDBRANCH  18  19
ENDBRANCH  13  18
ENDBRANCH   2  11
TORSDOF 4
ENDMDL
