MODEL 1
REMARK VINA RESULT:      -4.7      0.000      0.000
REMARK  Name = Deferoxamine.pdbqt.pdb
REMARK  19 active torsions:
REMARK  status: ('A' for Active; 'I' for Inactive)
REMARK    1  A    between atoms: C_1  and  C_2
REMARK    2  A    between atoms: C_3  and  C_4
REMARK    3  A    between atoms: C_4  and  N_5
REMARK    4  A    between atoms: C_6  and  C_9
REMARK    5  A    between atoms: C_10  and  C_11
REMARK    6  A    between atoms: N_13  and  O_14
REMARK    7  A    between atoms: N_13  and  C_16
REMARK    8  A    between atoms: C_17  and  C_18
REMARK    9  A    between atoms: C_19  and  C_20
REMARK   10  A    between atoms: C_20  and  N_21
REMARK   11  A    between atoms: C_24  and  N_25
REMARK   12  A    between atoms: N_25  and  O_28
REMARK   13  A    between atoms: C_26  and  C_30
REMARK   14  A    between atoms: C_31  and  C_32
REMARK   15  A    between atoms: N_34  and  C_36
REMARK   16  A    between atoms: C_37  and  C_38
REMARK   17  A    between atoms: C_38  and  C_39
REMARK   18  A    between atoms: C_40  and  N_41
REMARK   19  A    between atoms: N_41  and  O_45
REMARK                            x       y       z     vdW  Elec       q    Type
REMARK                         _______ _______ _______ _____ _____    ______ ____
ROOT
ATOM      1  C   UNL     1     135.262 123.206 139.086  0.00  0.00    +0.000 C 
ATOM      2  C   UNL     1     135.069 122.679 138.024  0.00  0.00    +0.000 C 
ENDROOT
BRANCH   2   3
ATOM      3  N   UNL     1     134.850 122.087 136.831  0.00  0.00    +0.000 N 
ATOM      4  C   UNL     1     133.669 121.807 136.166  0.00  0.00    +0.000 C 
ATOM      5  O   UNL     1     132.549 121.909 136.654  0.00  0.00    +0.000 OA
BRANCH   4   6
ATOM      6  C   UNL     1     133.769 121.326 134.803  0.00  0.00    +0.000 C 
ATOM      7  C   UNL     1     133.852 120.914 133.678  0.00  0.00    +0.000 C 
BRANCH   7   8
ATOM      8  C   UNL     1     133.964 120.401 132.335  0.00  0.00    +0.000 C 
ATOM      9  O   UNL     1     134.605 121.034 131.509  0.00  0.00    +0.000 OA
ATOM     10  N   UNL     1     133.316 119.207 132.108  0.00  0.00    +0.000 N 
ATOM     11  H   UNL     1     132.831 118.804 132.899  0.00  0.00    +0.000 HD
BRANCH  10  12
ATOM     12  C   UNL     1     133.238 118.485 130.969  0.00  0.00    +0.000 C 
ATOM     13  C   UNL     1     133.162 117.843 129.958  0.00  0.00    +0.000 C 
BRANCH  13  14
ATOM     14  C   UNL     1     133.056 117.026 128.667  0.00  0.00    +0.000 C 
BRANCH  14  15
ATOM     15  C   UNL     1     132.947 116.216 127.372  0.00  0.00    +0.000 C 
ATOM     16  C   UNL     1     132.859 115.581 126.356  0.00  0.00    +0.000 C 
BRANCH  16  17
ATOM     17  N   UNL     1     132.754 114.873 125.215  0.00  0.00    +0.000 N 
ATOM     18  C   UNL     1     133.120 115.176 123.924  0.00  0.00    +0.000 C 
ATOM     19  O   UNL     1     133.645 116.178 123.472  0.00  0.00    +0.000 OA
ATOM     20  C   UNL     1     132.869 114.165 122.832  0.00  0.00    +0.000 C 
BRANCH  17  21
ATOM     21  O   UNL     1     132.150 113.621 125.494  0.00  0.00    +0.000 OA
ATOM     22  H   UNL     1     132.742 112.983 125.045  0.00  0.00    +0.000 HD
ENDBRANCH  17  21
ENDBRANCH  16  17
ENDBRANCH  14  15
ENDBRANCH  13  14
ENDBRANCH  10  12
ENDBRANCH   7   8
ENDBRANCH   4   6
BRANCH   3  23
ATOM     23  O   UNL     1     136.037 122.124 136.065  0.00  0.00    +0.000 OA
ATOM     24  H   UNL     1     135.848 122.857 135.450  0.00  0.00    +0.000 HD
ENDBRANCH   3  23
ENDBRANCH   2   3
BRANCH   1  25
ATOM     25  C   UNL     1     135.503 123.864 140.447  0.00  0.00    +0.000 C 
ATOM     26  C   UNL     1     135.703 124.371 141.516  0.00  0.00    +0.000 C 
BRANCH  26  27
ATOM     27  C   UNL     1     135.970 125.010 142.883  0.00  0.00    +0.000 C 
BRANCH  27  28
ATOM     28  N   UNL     1     136.221 125.579 144.082  0.00  0.00    +0.000 N 
ATOM     29  C   UNL     1     136.248 126.911 144.420  0.00  0.00    +0.000 C 
ATOM     30  O   UNL     1     136.042 127.846 143.659  0.00  0.00    +0.000 OA
ATOM     31  H   UNL     1     136.406 124.918 144.826  0.00  0.00    +0.000 HD
BRANCH  29  32
ATOM     32  C   UNL     1     136.548 127.190 145.803  0.00  0.00    +0.000 C 
ATOM     33  C   UNL     1     136.790 127.444 146.952  0.00  0.00    +0.000 C 
BRANCH  33  34
ATOM     34  C   UNL     1     137.063 127.765 148.338  0.00  0.00    +0.000 C 
ATOM     35  O   UNL     1     136.251 127.394 149.179  0.00  0.00    +0.000 OA
ATOM     36  N   UNL     1     138.205 128.501 148.609  0.00  0.00    +0.000 N 
BRANCH  36  37
ATOM     37  C   UNL     1     138.787 128.821 149.783  0.00  0.00    +0.000 C 
ATOM     38  C   UNL     1     139.304 129.110 150.827  0.00  0.00    +0.000 C 
BRANCH  38  39
ATOM     39  C   UNL     1     139.969 129.483 152.156  0.00  0.00    +0.000 C 
ATOM     40  C   UNL     1     140.494 129.775 153.194  0.00  0.00    +0.000 C 
BRANCH  40  41
ATOM     41  C   UNL     1     141.168 130.149 154.517  0.00  0.00    +0.000 C 
BRANCH  41  42
ATOM     42  N   UNL     1     141.808 130.504 155.773  0.00  0.00    +0.000 NA
ATOM     43  H   UNL     1     142.322 131.378 155.675  0.00  0.00    +0.000 HD
ATOM     44  H   UNL     1     141.108 130.669 156.495  0.00  0.00    +0.000 HD
ENDBRANCH  41  42
ENDBRANCH  40  41
ENDBRANCH  38  39
ENDBRANCH  36  37
BRANCH  36  45
ATOM     45  O   UNL     1     139.138 128.667 147.561  0.00  0.00    +0.000 OA
ATOM     46  H   UNL     1     138.548 128.795 146.795  0.00  0.00    +0.000 HD
ENDBRANCH  36  45
ENDBRANCH  33  34
ENDBRANCH  29  32
ENDBRANCH  27  28
ENDBRANCH  26  27
ENDBRANCH   1  25
TORSDOF 19
ENDMDL
MODEL 2
REMARK VINA RESULT:      -4.7     29.322     38.487
REMARK  Name = Deferoxamine.pdbqt.pdb
REMARK  19 active torsions:
REMARK  status: ('A' for Active; 'I' for Inactive)
REMARK    1  A    between atoms: C_1  and  C_2
REMARK    2  A    between atoms: C_3  and  C_4
REMARK    3  A    between atoms: C_4  and  N_5
REMARK    4  A    between atoms: C_6  and  C_9
REMARK    5  A    between atoms: C_10  and  C_11
REMARK    6  A    between atoms: N_13  and  O_14
REMARK    7  A    between atoms: N_13  and  C_16
REMARK    8  A    between atoms: C_17  and  C_18
REMARK    9  A    between atoms: C_19  and  C_20
REMARK   10  A    between atoms: C_20  and  N_21
REMARK   11  A    between atoms: C_24  and  N_25
REMARK   12  A    between atoms: N_25  and  O_28
REMARK   13  A    between atoms: C_26  and  C_30
REMARK   14  A    between atoms: C_31  and  C_32
REMARK   15  A    between atoms: N_34  and  C_36
REMARK   16  A    between atoms: C_37  and  C_38
REMARK   17  A    between atoms: C_38  and  C_39
REMARK   18  A    between atoms: C_40  and  N_41
REMARK   19  A    between atoms: N_41  and  O_45
REMARK                            x       y       z     vdW  Elec       q    Type
REMARK                         _______ _______ _______ _____ _____    ______ ____
ROOT
ATOM      1  C   UNL     1     139.927 114.687 106.329  0.00  0.00    +0.000 C 
ATOM      2  C   UNL     1     140.962 114.560 106.926  0.00  0.00    +0.000 C 
ENDROOT
BRANCH   2   3
ATOM      3  N   UNL     1     142.124 114.418 107.595  0.00  0.00    +0.000 N 
ATOM      4  C   UNL     1     143.204 115.275 107.722  0.00  0.00    +0.000 C 
ATOM      5  O   UNL     1     143.362 116.303 107.072  0.00  0.00    +0.000 OA
BRANCH   4   6
ATOM      6  C   UNL     1     144.238 114.910 108.668  0.00  0.00    +0.000 C 
ATOM      7  C   UNL     1     145.103 114.619 109.449  0.00  0.00    +0.000 C 
BRANCH   7   8
ATOM      8  C   UNL     1     146.157 114.278 110.372  0.00  0.00    +0.000 C 
ATOM      9  O   UNL     1     146.873 113.318 110.128  0.00  0.00    +0.000 OA
ATOM     10  N   UNL     1     146.257 115.096 111.475  0.00  0.00    +0.000 N 
ATOM     11  H   UNL     1     145.590 115.855 111.531  0.00  0.00    +0.000 HD
BRANCH  10  12
ATOM     12  C   UNL     1     147.130 115.035 112.504  0.00  0.00    +0.000 C 
ATOM     13  C   UNL     1     147.902 114.977 113.421  0.00  0.00    +0.000 C 
BRANCH  13  14
ATOM     14  C   UNL     1     148.882 114.897 114.595  0.00  0.00    +0.000 C 
BRANCH  14  15
ATOM     15  C   UNL     1     149.858 114.809 115.773  0.00  0.00    +0.000 C 
ATOM     16  C   UNL     1     150.620 114.741 116.697  0.00  0.00    +0.000 C 
BRANCH  16  17
ATOM     17  N   UNL     1     151.471 114.660 117.739  0.00  0.00    +0.000 N 
ATOM     18  C   UNL     1     152.511 115.472 118.125  0.00  0.00    +0.000 C 
ATOM     19  O   UNL     1     152.936 116.495 117.618  0.00  0.00    +0.000 OA
ATOM     20  C   UNL     1     153.303 115.118 119.359  0.00  0.00    +0.000 C 
BRANCH  17  21
ATOM     21  O   UNL     1     151.164 113.506 118.506  0.00  0.00    +0.000 OA
ATOM     22  H   UNL     1     151.056 112.809 117.826  0.00  0.00    +0.000 HD
ENDBRANCH  17  21
ENDBRANCH  16  17
ENDBRANCH  14  15
ENDBRANCH  13  14
ENDBRANCH  10  12
ENDBRANCH   7   8
ENDBRANCH   4   6
BRANCH   3  23
ATOM     23  O   UNL     1     141.987 113.395 108.561  0.00  0.00    +0.000 OA
ATOM     24  H   UNL     1     142.751 113.571 109.139  0.00  0.00    +0.000 HD
ENDBRANCH   3  23
ENDBRANCH   2   3
BRANCH   1  25
ATOM     25  C   UNL     1     138.607 114.832 105.566  0.00  0.00    +0.000 C 
ATOM     26  C   UNL     1     137.568 114.953 104.978  0.00  0.00    +0.000 C 
BRANCH  26  27
ATOM     27  C   UNL     1     136.236 115.114 104.240  0.00  0.00    +0.000 C 
BRANCH  27  28
ATOM     28  N   UNL     1     135.070 115.264 103.574  0.00  0.00    +0.000 N 
ATOM     29  C   UNL     1     134.748 116.158 102.580  0.00  0.00    +0.000 C 
ATOM     30  O   UNL     1     135.495 117.005 102.111  0.00  0.00    +0.000 OA
ATOM     31  H   UNL     1     134.344 114.616 103.853  0.00  0.00    +0.000 HD
BRANCH  29  32
ATOM     32  C   UNL     1     133.403 116.055 102.071  0.00  0.00    +0.000 C 
ATOM     33  C   UNL     1     132.284 115.945 101.648  0.00  0.00    +0.000 C 
BRANCH  33  34
ATOM     34  C   UNL     1     130.931 115.794 101.152  0.00  0.00    +0.000 C 
ATOM     35  O   UNL     1     130.270 114.853 101.579  0.00  0.00    +0.000 OA
ATOM     36  N   UNL     1     130.496 116.702 100.201  0.00  0.00    +0.000 N 
BRANCH  36  37
ATOM     37  C   UNL     1     129.271 116.900  99.670  0.00  0.00    +0.000 C 
ATOM     38  C   UNL     1     128.181 117.078  99.201  0.00  0.00    +0.000 C 
BRANCH  38  39
ATOM     39  C   UNL     1     126.786 117.302  98.608  0.00  0.00    +0.000 C 
ATOM     40  C   UNL     1     125.693 117.482  98.148  0.00  0.00    +0.000 C 
BRANCH  40  41
ATOM     41  C   UNL     1     124.297 117.713  97.563  0.00  0.00    +0.000 C 
BRANCH  41  42
ATOM     42  N   UNL     1     122.971 117.932  97.008  0.00  0.00    +0.000 NA
ATOM     43  H   UNL     1     122.968 118.757  96.411  0.00  0.00    +0.000 HD
ATOM     44  H   UNL     1     122.703 117.151  96.411  0.00  0.00    +0.000 HD
ENDBRANCH  41  42
ENDBRANCH  40  41
ENDBRANCH  38  39
ENDBRANCH  36  37
BRANCH  36  45
ATOM     45  O   UNL     1     131.298 117.842  99.973  0.00  0.00    +0.000 OA
ATOM     46  H   UNL     1     132.087 117.445  99.561  0.00  0.00    +0.000 HD
ENDBRANCH  36  45
ENDBRANCH  33  34
ENDBRANCH  29  32
ENDBRANCH  27  28
ENDBRANCH  26  27
ENDBRANCH   1  25
TORSDOF 19
ENDMDL
MODEL 3
REMARK VINA RESULT:      -4.5     24.222     32.482
REMARK  Name = Deferoxamine.pdbqt.pdb
REMARK  19 active torsions:
REMARK  status: ('A' for Active; 'I' for Inactive)
REMARK    1  A    between atoms: C_1  and  C_2
REMARK    2  A    between atoms: C_3  and  C_4
REMARK    3  A    between atoms: C_4  and  N_5
REMARK    4  A    between atoms: C_6  and  C_9
REMARK    5  A    between atoms: C_10  and  C_11
REMARK    6  A    between atoms: N_13  and  O_14
REMARK    7  A    between atoms: N_13  and  C_16
REMARK    8  A    between atoms: C_17  and  C_18
REMARK    9  A    between atoms: C_19  and  C_20
REMARK   10  A    between atoms: C_20  and  N_21
REMARK   11  A    between atoms: C_24  and  N_25
REMARK   12  A    between atoms: N_25  and  O_28
REMARK   13  A    between atoms: C_26  and  C_30
REMARK   14  A    between atoms: C_31  and  C_32
REMARK   15  A    between atoms: N_34  and  C_36
REMARK   16  A    between atoms: C_37  and  C_38
REMARK   17  A    between atoms: C_38  and  C_39
REMARK   18  A    between atoms: C_40  and  N_41
REMARK   19  A    between atoms: N_41  and  O_45
REMARK                            x       y       z     vdW  Elec       q    Type
REMARK                         _______ _______ _______ _____ _____    ______ ____
ROOT
ATOM      1  C   UNL     1     141.719 116.234 110.784  0.00  0.00    +0.000 C 
ATOM      2  C   UNL     1     142.703 116.035 110.126  0.00  0.00    +0.000 C 
ENDROOT
BRANCH   2   3
ATOM      3  N   UNL     1     143.810 115.813 109.387  0.00  0.00    +0.000 N 
ATOM      4  C   UNL     1     144.840 114.904 109.555  0.00  0.00    +0.000 C 
ATOM      5  O   UNL     1     145.012 114.217 110.556  0.00  0.00    +0.000 OA
BRANCH   4   6
ATOM      6  C   UNL     1     145.804 114.782 108.481  0.00  0.00    +0.000 C 
ATOM      7  C   UNL     1     146.613 114.687 107.598  0.00  0.00    +0.000 C 
BRANCH   7   8
ATOM      8  C   UNL     1     147.594 114.593 106.545  0.00  0.00    +0.000 C 
ATOM      9  O   UNL     1     148.781 114.608 106.837  0.00  0.00    +0.000 OA
ATOM     10  N   UNL     1     147.080 114.493 105.272  0.00  0.00    +0.000 N 
ATOM     11  H   UNL     1     146.071 114.490 105.197  0.00  0.00    +0.000 HD
BRANCH  10  12
ATOM     12  C   UNL     1     147.735 114.392 104.095  0.00  0.00    +0.000 C 
ATOM     13  C   UNL     1     148.314 114.297 103.048  0.00  0.00    +0.000 C 
BRANCH  13  14
ATOM     14  C   UNL     1     149.047 114.170 101.709  0.00  0.00    +0.000 C 
BRANCH  14  15
ATOM     15  C   UNL     1     149.775 114.051 100.367  0.00  0.00    +0.000 C 
ATOM     16  C   UNL     1     150.344 113.957  99.314  0.00  0.00    +0.000 C 
BRANCH  16  17
ATOM     17  N   UNL     1     150.976 113.853  98.129  0.00  0.00    +0.000 N 
ATOM     18  C   UNL     1     150.489 113.762  96.847  0.00  0.00    +0.000 C 
ATOM     19  O   UNL     1     149.339 113.755  96.444  0.00  0.00    +0.000 OA
ATOM     20  C   UNL     1     151.458 113.649  95.697  0.00  0.00    +0.000 C 
BRANCH  17  21
ATOM     21  O   UNL     1     152.378 113.839  98.346  0.00  0.00    +0.000 OA
ATOM     22  H   UNL     1     152.520 114.610  98.933  0.00  0.00    +0.000 HD
ENDBRANCH  17  21
ENDBRANCH  16  17
ENDBRANCH  14  15
ENDBRANCH  13  14
ENDBRANCH  10  12
ENDBRANCH   7   8
ENDBRANCH   4   6
BRANCH   3  23
ATOM     23  O   UNL     1     143.632 116.365 108.098  0.00  0.00    +0.000 OA
ATOM     24  H   UNL     1     144.477 116.835 107.970  0.00  0.00    +0.000 HD
ENDBRANCH   3  23
ENDBRANCH   2   3
BRANCH   1  25
ATOM     25  C   UNL     1     140.465 116.503 111.622  0.00  0.00    +0.000 C 
ATOM     26  C   UNL     1     139.477 116.719 112.267  0.00  0.00    +0.000 C 
BRANCH  26  27
ATOM     27  C   UNL     1     138.209 117.002 113.079  0.00  0.00    +0.000 C 
BRANCH  27  28
ATOM     28  N   UNL     1     137.081 117.249 113.780  0.00  0.00    +0.000 N 
ATOM     29  C   UNL     1     136.036 116.403 114.066  0.00  0.00    +0.000 C 
ATOM     30  O   UNL     1     135.947 115.234 113.717  0.00  0.00    +0.000 OA
ATOM     31  H   UNL     1     137.015 118.191 114.145  0.00  0.00    +0.000 HD
BRANCH  29  32
ATOM     32  C   UNL     1     134.972 116.981 114.848  0.00  0.00    +0.000 C 
ATOM     33  C   UNL     1     134.070 117.446 115.493  0.00  0.00    +0.000 C 
BRANCH  33  34
ATOM     34  C   UNL     1     132.975 117.984 116.273  0.00  0.00    +0.000 C 
ATOM     35  O   UNL     1     132.633 117.367 117.277  0.00  0.00    +0.000 OA
ATOM     36  N   UNL     1     132.369 119.139 115.809  0.00  0.00    +0.000 N 
BRANCH  36  37
ATOM     37  C   UNL     1     131.443 119.938 116.379  0.00  0.00    +0.000 C 
ATOM     38  C   UNL     1     130.620 120.646 116.890  0.00  0.00    +0.000 C 
BRANCH  38  39
ATOM     39  C   UNL     1     129.568 121.546 117.547  0.00  0.00    +0.000 C 
ATOM     40  C   UNL     1     128.748 122.253 118.063  0.00  0.00    +0.000 C 
BRANCH  40  41
ATOM     41  C   UNL     1     127.704 123.158 118.723  0.00  0.00    +0.000 C 
BRANCH  41  42
ATOM     42  N   UNL     1     126.713 124.017 119.350  0.00  0.00    +0.000 NA
ATOM     43  H   UNL     1     126.976 124.996 119.250  0.00  0.00    +0.000 HD
ATOM     44  H   UNL     1     125.812 123.919 118.884  0.00  0.00    +0.000 HD
ENDBRANCH  41  42
ENDBRANCH  40  41
ENDBRANCH  38  39
ENDBRANCH  36  37
BRANCH  36  45
ATOM     45  O   UNL     1     133.012 119.839 114.763  0.00  0.00    +0.000 OA
ATOM     46  H   UNL     1     132.291 120.409 114.439  0.00  0.00    +0.000 HD
ENDBRANCH  36  45
ENDBRANCH  33  34
ENDBRANCH  29  32
ENDBRANCH  27  28
ENDBRANCH  26  27
ENDBRANCH   1  25
TORSDOF 19
ENDMDL
MODEL 4
REMARK VINA RESULT:      -4.4      3.040     22.753
REMARK  Name = Deferoxamine.pdbqt.pdb
REMARK  19 active torsions:
REMARK  status: ('A' for Active; 'I' for Inactive)
REMARK    1  A    between atoms: C_1  and  C_2
REMARK    2  A    between atoms: C_3  and  C_4
REMARK    3  A    between atoms: C_4  and  N_5
REMARK    4  A    between atoms: C_6  and  C_9
REMARK    5  A    between atoms: C_10  and  C_11
REMARK    6  A    between atoms: N_13  and  O_14
REMARK    7  A    between atoms: N_13  and  C_16
REMARK    8  A    between atoms: C_17  and  C_18
REMARK    9  A    between atoms: C_19  and  C_20
REMARK   10  A    between atoms: C_20  and  N_21
REMARK   11  A    between atoms: C_24  and  N_25
REMARK   12  A    between atoms: N_25  and  O_28
REMARK   13  A    between atoms: C_26  and  C_30
REMARK   14  A    between atoms: C_31  and  C_32
REMARK   15  A    between atoms: N_34  and  C_36
REMARK   16  A    between atoms: C_37  and  C_38
REMARK   17  A    between atoms: C_38  and  C_39
REMARK   18  A    between atoms: C_40  and  N_41
REMARK   19  A    between atoms: N_41  and  O_45
REMARK                            x       y       z     vdW  Elec       q    Type
REMARK                         _______ _______ _______ _____ _____    ______ ____
ROOT
ATOM      1  C   UNL     1     135.957 124.924 142.037  0.00  0.00    +0.000 C 
ATOM      2  C   UNL     1     136.310 125.564 142.990  0.00  0.00    +0.000 C 
ENDROOT
BRANCH   2   3
ATOM      3  N   UNL     1     136.706 126.284 144.060  0.00  0.00    +0.000 N 
ATOM      4  C   UNL     1     136.225 127.476 144.574  0.00  0.00    +0.000 C 
ATOM      5  O   UNL     1     135.416 128.206 144.011  0.00  0.00    +0.000 OA
BRANCH   4   6
ATOM      6  C   UNL     1     136.744 127.908 145.855  0.00  0.00    +0.000 C 
ATOM      7  C   UNL     1     137.182 128.254 146.919  0.00  0.00    +0.000 C 
BRANCH   7   8
ATOM      8  C   UNL     1     137.707 128.647 148.204  0.00  0.00    +0.000 C 
ATOM      9  O   UNL     1     138.546 127.940 148.743  0.00  0.00    +0.000 OA
ATOM     10  N   UNL     1     137.194 129.819 148.713  0.00  0.00    +0.000 N 
ATOM     11  H   UNL     1     136.507 130.292 148.139  0.00  0.00    +0.000 HD
BRANCH  10  12
ATOM     12  C   UNL     1     137.483 130.439 149.877  0.00  0.00    +0.000 C 
ATOM     13  C   UNL     1     137.745 130.990 150.910  0.00  0.00    +0.000 C 
BRANCH  13  14
ATOM     14  C   UNL     1     138.088 131.697 152.226  0.00  0.00    +0.000 C 
BRANCH  14  15
ATOM     15  C   UNL     1     138.425 132.398 153.545  0.00  0.00    +0.000 C 
ATOM     16  C   UNL     1     138.693 132.945 154.579  0.00  0.00    +0.000 C 
BRANCH  16  17
ATOM     17  N   UNL     1     138.999 133.558 155.739  0.00  0.00    +0.000 N 
ATOM     18  C   UNL     1     140.153 133.560 156.486  0.00  0.00    +0.000 C 
ATOM     19  O   UNL     1     141.217 133.002 156.285  0.00  0.00    +0.000 OA
ATOM     20  C   UNL     1     140.199 134.352 157.768  0.00  0.00    +0.000 C 
BRANCH  17  21
ATOM     21  O   UNL     1     137.875 134.298 156.189  0.00  0.00    +0.000 OA
ATOM     22  H   UNL     1     138.064 135.204 155.869  0.00  0.00    +0.000 HD
ENDBRANCH  17  21
ENDBRANCH  16  17
ENDBRANCH  14  15
ENDBRANCH  13  14
ENDBRANCH  10  12
ENDBRANCH   7   8
ENDBRANCH   4   6
BRANCH   3  23
ATOM     23  O   UNL     1     137.466 125.462 144.923  0.00  0.00    +0.000 OA
ATOM     24  H   UNL     1     136.788 124.837 145.242  0.00  0.00    +0.000 HD
ENDBRANCH   3  23
ENDBRANCH   2   3
BRANCH   1  25
ATOM     25  C   UNL     1     135.519 124.116 140.812  0.00  0.00    +0.000 C 
ATOM     26  C   UNL     1     135.167 123.493 139.849  0.00  0.00    +0.000 C 
BRANCH  26  27
ATOM     27  C   UNL     1     134.711 122.709 138.614  0.00  0.00    +0.000 C 
BRANCH  27  28
ATOM     28  N   UNL     1     134.302 122.004 137.537  0.00  0.00    +0.000 N 
ATOM     29  C   UNL     1     134.203 122.406 136.226  0.00  0.00    +0.000 C 
ATOM     30  O   UNL     1     134.479 123.516 135.795  0.00  0.00    +0.000 OA
ATOM     31  H   UNL     1     134.043 121.047 137.739  0.00  0.00    +0.000 HD
BRANCH  29  32
ATOM     32  C   UNL     1     133.731 121.399 135.307  0.00  0.00    +0.000 C 
ATOM     33  C   UNL     1     133.316 120.572 134.541  0.00  0.00    +0.000 C 
BRANCH  33  34
ATOM     34  C   UNL     1     132.803 119.591 133.606  0.00  0.00    +0.000 C 
ATOM     35  O   UNL     1     131.875 118.880 133.979  0.00  0.00    +0.000 OA
ATOM     36  N   UNL     1     133.424 119.501 132.372  0.00  0.00    +0.000 N 
BRANCH  36  37
ATOM     37  C   UNL     1     133.088 118.802 131.267  0.00  0.00    +0.000 C 
ATOM     38  C   UNL     1     132.789 118.178 130.287  0.00  0.00    +0.000 C 
BRANCH  38  39
ATOM     39  C   UNL     1     132.411 117.375 129.038  0.00  0.00    +0.000 C 
ATOM     40  C   UNL     1     132.111 116.744 128.063  0.00  0.00    +0.000 C 
BRANCH  40  41
ATOM     41  C   UNL     1     131.725 115.938 126.820  0.00  0.00    +0.000 C 
BRANCH  41  42
ATOM     42  N   UNL     1     131.357 115.173 125.640  0.00  0.00    +0.000 NA
ATOM     43  H   UNL     1     131.908 115.472 124.837  0.00  0.00    +0.000 HD
ATOM     44  H   UNL     1     131.571 114.186 125.775  0.00  0.00    +0.000 HD
ENDBRANCH  41  42
ENDBRANCH  40  41
ENDBRANCH  38  39
ENDBRANCH  36  37
BRANCH  36  45
ATOM     45  O   UNL     1     134.332 120.526 132.022  0.00  0.00    +0.000 OA
ATOM     46  H   UNL     1     134.490 120.948 132.887  0.00  0.00    +0.000 HD
ENDBRANCH  36  45
ENDBRANCH  33  34
ENDBRANCH  29  32
ENDBRANCH  27  28
ENDBRANCH  26  27
ENDBRANCH   1  25
TORSDOF 19
ENDMDL
MODEL 5
REMARK VINA RESULT:      -4.4      3.048      3.582
REMARK  Name = Deferoxamine.pdbqt.pdb
REMARK  19 active torsions:
REMARK  status: ('A' for Active; 'I' for Inactive)
REMARK    1  A    between atoms: C_1  and  C_2
REMARK    2  A    between atoms: C_3  and  C_4
REMARK    3  A    between atoms: C_4  and  N_5
REMARK    4  A    between atoms: C_6  and  C_9
REMARK    5  A    between atoms: C_10  and  C_11
REMARK    6  A    between atoms: N_13  and  O_14
REMARK    7  A    between atoms: N_13  and  C_16
REMARK    8  A    between atoms: C_17  and  C_18
REMARK    9  A    between atoms: C_19  and  C_20
REMARK   10  A    between atoms: C_20  and  N_21
REMARK   11  A    between atoms: C_24  and  N_25
REMARK   12  A    between atoms: N_25  and  O_28
REMARK   13  A    between atoms: C_26  and  C_30
REMARK   14  A    between atoms: C_31  and  C_32
REMARK   15  A    between atoms: N_34  and  C_36
REMARK   16  A    between atoms: C_37  and  C_38
REMARK   17  A    between atoms: C_38  and  C_39
REMARK   18  A    between atoms: C_40  and  N_41
REMARK   19  A    between atoms: N_41  and  O_45
REMARK                            x       y       z     vdW  Elec       q    Type
REMARK                         _______ _______ _______ _____ _____    ______ ____
ROOT
ATOM      1  C   UNL     1     135.740 124.219 141.169  0.00  0.00    +0.000 C 
ATOM      2  C   UNL     1     135.583 123.493 140.225  0.00  0.00    +0.000 C 
ENDROOT
BRANCH   2   3
ATOM      3  N   UNL     1     135.407 122.679 139.163  0.00  0.00    +0.000 N 
ATOM      4  C   UNL     1     134.283 122.005 138.719  0.00  0.00    +0.000 C 
ATOM      5  O   UNL     1     133.236 121.898 139.349  0.00  0.00    +0.000 OA
BRANCH   4   6
ATOM      6  C   UNL     1     134.364 121.349 137.430  0.00  0.00    +0.000 C 
ATOM      7  C   UNL     1     134.446 120.806 136.362  0.00  0.00    +0.000 C 
BRANCH   7   8
ATOM      8  C   UNL     1     134.563 120.165 135.075  0.00  0.00    +0.000 C 
ATOM      9  O   UNL     1     135.657 119.758 134.713  0.00  0.00    +0.000 OA
ATOM     10  N   UNL     1     133.392 120.072 134.358  0.00  0.00    +0.000 N 
ATOM     11  H   UNL     1     132.566 120.455 134.800  0.00  0.00    +0.000 HD
BRANCH  10  12
ATOM     12  C   UNL     1     133.182 119.533 133.137  0.00  0.00    +0.000 C 
ATOM     13  C   UNL     1     132.991 119.052 132.054  0.00  0.00    +0.000 C 
BRANCH  13  14
ATOM     14  C   UNL     1     132.739 118.435 130.675  0.00  0.00    +0.000 C 
BRANCH  14  15
ATOM     15  C   UNL     1     132.493 117.824 129.293  0.00  0.00    +0.000 C 
ATOM     16  C   UNL     1     132.299 117.342 128.211  0.00  0.00    +0.000 C 
BRANCH  16  17
ATOM     17  N   UNL     1     132.074 116.800 126.998  0.00  0.00    +0.000 N 
ATOM     18  C   UNL     1     131.690 117.369 125.808  0.00  0.00    +0.000 C 
ATOM     19  O   UNL     1     131.452 118.533 125.536  0.00  0.00    +0.000 OA
ATOM     20  C   UNL     1     131.511 116.491 124.595  0.00  0.00    +0.000 C 
BRANCH  17  21
ATOM     21  O   UNL     1     132.294 115.399 127.063  0.00  0.00    +0.000 OA
ATOM     22  H   UNL     1     132.850 115.225 126.276  0.00  0.00    +0.000 HD
ENDBRANCH  17  21
ENDBRANCH  16  17
ENDBRANCH  14  15
ENDBRANCH  13  14
ENDBRANCH  10  12
ENDBRANCH   7   8
ENDBRANCH   4   6
BRANCH   3  23
ATOM     23  O   UNL     1     136.451 122.889 138.234  0.00  0.00    +0.000 OA
ATOM     24  H   UNL     1     136.002 122.694 137.391  0.00  0.00    +0.000 HD
ENDBRANCH   3  23
ENDBRANCH   2   3
BRANCH   1  25
ATOM     25  C   UNL     1     135.933 125.156 142.364  0.00  0.00    +0.000 C 
ATOM     26  C   UNL     1     136.087 125.879 143.309  0.00  0.00    +0.000 C 
BRANCH  26  27
ATOM     27  C   UNL     1     136.287 126.792 144.524  0.00  0.00    +0.000 C 
BRANCH  27  28
ATOM     28  N   UNL     1     136.450 127.586 145.604  0.00  0.00    +0.000 N 
ATOM     29  C   UNL     1     137.492 127.626 146.500  0.00  0.00    +0.000 C 
ATOM     30  O   UNL     1     138.488 126.918 146.470  0.00  0.00    +0.000 OA
ATOM     31  H   UNL     1     135.695 128.242 145.757  0.00  0.00    +0.000 HD
BRANCH  29  32
ATOM     32  C   UNL     1     137.361 128.603 147.553  0.00  0.00    +0.000 C 
ATOM     33  C   UNL     1     137.243 129.433 148.414  0.00  0.00    +0.000 C 
BRANCH  33  34
ATOM     34  C   UNL     1     137.082 130.441 149.442  0.00  0.00    +0.000 C 
ATOM     35  O   UNL     1     137.354 131.601 149.149  0.00  0.00    +0.000 OA
ATOM     36  N   UNL     1     136.668 130.016 150.693  0.00  0.00    +0.000 N 
BRANCH  36  37
ATOM     37  C   UNL     1     136.299 130.720 151.783  0.00  0.00    +0.000 C 
ATOM     38  C   UNL     1     135.973 131.343 152.756  0.00  0.00    +0.000 C 
BRANCH  38  39
ATOM     39  C   UNL     1     135.555 132.133 154.000  0.00  0.00    +0.000 C 
ATOM     40  C   UNL     1     135.231 132.756 154.973  0.00  0.00    +0.000 C 
BRANCH  40  41
ATOM     41  C   UNL     1     134.820 133.554 156.213  0.00  0.00    +0.000 C 
BRANCH  41  42
ATOM     42  N   UNL     1     134.430 134.311 157.392  0.00  0.00    +0.000 NA
ATOM     43  H   UNL     1     134.400 133.705 158.210  0.00  0.00    +0.000 HD
ATOM     44  H   UNL     1     135.124 135.029 157.598  0.00  0.00    +0.000 HD
ENDBRANCH  41  42
ENDBRANCH  40  41
ENDBRANCH  38  39
ENDBRANCH  36  37
BRANCH  36  45
ATOM     45  O   UNL     1     136.196 128.689 150.808  0.00  0.00    +0.000 OA
ATOM     46  H   UNL     1     136.808 128.214 150.216  0.00  0.00    +0.000 HD
ENDBRANCH  36  45
ENDBRANCH  33  34
ENDBRANCH  29  32
ENDBRANCH  27  28
ENDBRANCH  26  27
ENDBRANCH   1  25
TORSDOF 19
ENDMDL
MODEL 6
REMARK VINA RESULT:      -4.3      4.203      5.024
REMARK  Name = Deferoxamine.pdbqt.pdb
REMARK  19 active torsions:
REMARK  status: ('A' for Active; 'I' for Inactive)
REMARK    1  A    between atoms: C_1  and  C_2
REMARK    2  A    between atoms: C_3  and  C_4
REMARK    3  A    between atoms: C_4  and  N_5
REMARK    4  A    between atoms: C_6  and  C_9
REMARK    5  A    between atoms: C_10  and  C_11
REMARK    6  A    between atoms: N_13  and  O_14
REMARK    7  A    between atoms: N_13  and  C_16
REMARK    8  A    between atoms: C_17  and  C_18
REMARK    9  A    between atoms: C_19  and  C_20
REMARK   10  A    between atoms: C_20  and  N_21
REMARK   11  A    between atoms: C_24  and  N_25
REMARK   12  A    between atoms: N_25  and  O_28
REMARK   13  A    between atoms: C_26  and  C_30
REMARK   14  A    between atoms: C_31  and  C_32
REMARK   15  A    between atoms: N_34  and  C_36
REMARK   16  A    between atoms: C_37  and  C_38
REMARK   17  A    between atoms: C_38  and  C_39
REMARK   18  A    between atoms: C_40  and  N_41
REMARK   19  A    between atoms: N_41  and  O_45
REMARK                            x       y       z     vdW  Elec       q    Type
REMARK                         _______ _______ _______ _____ _____    ______ ____
ROOT
ATOM      1  C   UNL     1     135.762 124.463 141.597  0.00  0.00    +0.000 C 
ATOM      2  C   UNL     1     135.609 123.744 140.647  0.00  0.00    +0.000 C 
ENDROOT
BRANCH   2   3
ATOM      3  N   UNL     1     135.439 122.937 139.579  0.00  0.00    +0.000 N 
ATOM      4  C   UNL     1     136.365 122.341 138.741  0.00  0.00    +0.000 C 
ATOM      5  O   UNL     1     137.565 122.596 138.728  0.00  0.00    +0.000 OA
BRANCH   4   6
ATOM      6  C   UNL     1     135.873 121.371 137.785  0.00  0.00    +0.000 C 
ATOM      7  C   UNL     1     135.451 120.571 136.994  0.00  0.00    +0.000 C 
BRANCH   7   8
ATOM      8  C   UNL     1     134.925 119.608 136.058  0.00  0.00    +0.000 C 
ATOM      9  O   UNL     1     133.914 119.882 135.429  0.00  0.00    +0.000 OA
ATOM     10  N   UNL     1     135.639 118.434 135.961  0.00  0.00    +0.000 N 
ATOM     11  H   UNL     1     136.461 118.362 136.548  0.00  0.00    +0.000 HD
BRANCH  10  12
ATOM     12  C   UNL     1     135.402 117.356 135.184  0.00  0.00    +0.000 C 
ATOM     13  C   UNL     1     135.197 116.396 134.493  0.00  0.00    +0.000 C 
BRANCH  13  14
ATOM     14  C   UNL     1     134.944 115.168 133.614  0.00  0.00    +0.000 C 
BRANCH  14  15
ATOM     15  C   UNL     1     134.690 113.935 132.741  0.00  0.00    +0.000 C 
ATOM     16  C   UNL     1     134.493 112.968 132.058  0.00  0.00    +0.000 C 
BRANCH  16  17
ATOM     17  N   UNL     1     134.278 111.879 131.294  0.00  0.00    +0.000 N 
ATOM     18  C   UNL     1     134.236 111.724 129.929  0.00  0.00    +0.000 C 
ATOM     19  O   UNL     1     134.389 112.544 129.041  0.00  0.00    +0.000 OA
ATOM     20  C   UNL     1     133.965 110.357 129.351  0.00  0.00    +0.000 C 
BRANCH  17  21
ATOM     21  O   UNL     1     134.065 110.754 132.132  0.00  0.00    +0.000 OA
ATOM     22  H   UNL     1     134.944 110.321 132.150  0.00  0.00    +0.000 HD
ENDBRANCH  17  21
ENDBRANCH  16  17
ENDBRANCH  14  15
ENDBRANCH  13  14
ENDBRANCH  10  12
ENDBRANCH   7   8
ENDBRANCH   4   6
BRANCH   3  23
ATOM     23  O   UNL     1     134.139 122.382 139.614  0.00  0.00    +0.000 OA
ATOM     24  H   UNL     1     133.680 123.001 140.212  0.00  0.00    +0.000 HD
ENDBRANCH   3  23
ENDBRANCH   2   3
BRANCH   1  25
ATOM     25  C   UNL     1     135.947 125.391 142.801  0.00  0.00    +0.000 C 
ATOM     26  C   UNL     1     136.089 126.128 143.736  0.00  0.00    +0.000 C 
BRANCH  26  27
ATOM     27  C   UNL     1     136.267 127.082 144.922  0.00  0.00    +0.000 C 
BRANCH  27  28
ATOM     28  N   UNL     1     136.431 127.908 145.978  0.00  0.00    +0.000 N 
ATOM     29  C   UNL     1     137.505 128.024 146.828  0.00  0.00    +0.000 C 
ATOM     30  O   UNL     1     138.536 127.371 146.771  0.00  0.00    +0.000 OA
ATOM     31  H   UNL     1     135.648 128.527 146.149  0.00  0.00    +0.000 HD
BRANCH  29  32
ATOM     32  C   UNL     1     137.364 129.017 147.865  0.00  0.00    +0.000 C 
ATOM     33  C   UNL     1     137.244 129.861 148.712  0.00  0.00    +0.000 C 
BRANCH  33  34
ATOM     34  C   UNL     1     137.084 130.890 149.720  0.00  0.00    +0.000 C 
ATOM     35  O   UNL     1     137.364 132.042 149.405  0.00  0.00    +0.000 OA
ATOM     36  N   UNL     1     136.663 130.491 150.977  0.00  0.00    +0.000 N 
BRANCH  36  37
ATOM     37  C   UNL     1     136.295 131.217 152.053  0.00  0.00    +0.000 C 
ATOM     38  C   UNL     1     135.966 131.866 153.007  0.00  0.00    +0.000 C 
BRANCH  38  39
ATOM     39  C   UNL     1     135.550 132.700 154.224  0.00  0.00    +0.000 C 
ATOM     40  C   UNL     1     135.230 133.355 155.176  0.00  0.00    +0.000 C 
BRANCH  40  41
ATOM     41  C   UNL     1     134.824 134.194 156.391  0.00  0.00    +0.000 C 
BRANCH  41  42
ATOM     42  N   UNL     1     134.439 134.990 157.545  0.00  0.00    +0.000 NA
ATOM     43  H   UNL     1     134.616 134.475 158.407  0.00  0.00    +0.000 HD
ATOM     44  H   UNL     1     135.007 135.834 157.600  0.00  0.00    +0.000 HD
ENDBRANCH  41  42
ENDBRANCH  40  41
ENDBRANCH  38  39
ENDBRANCH  36  37
BRANCH  36  45
ATOM     45  O   UNL     1     136.185 129.169 151.116  0.00  0.00    +0.000 OA
ATOM     46  H   UNL     1     136.584 128.736 150.339  0.00  0.00    +0.000 HD
ENDBRANCH  36  45
ENDBRANCH  33  34
ENDBRANCH  29  32
ENDBRANCH  27  28
ENDBRANCH  26  27
ENDBRANCH   1  25
TORSDOF 19
ENDMDL
MODEL 7
REMARK VINA RESULT:      -4.3     23.696     33.421
REMARK  Name = Deferoxamine.pdbqt.pdb
REMARK  19 active torsions:
REMARK  status: ('A' for Active; 'I' for Inactive)
REMARK    1  A    between atoms: C_1  and  C_2
REMARK    2  A    between atoms: C_3  and  C_4
REMARK    3  A    between atoms: C_4  and  N_5
REMARK    4  A    between atoms: C_6  and  C_9
REMARK    5  A    between atoms: C_10  and  C_11
REMARK    6  A    between atoms: N_13  and  O_14
REMARK    7  A    between atoms: N_13  and  C_16
REMARK    8  A    between atoms: C_17  and  C_18
REMARK    9  A    between atoms: C_19  and  C_20
REMARK   10  A    between atoms: C_20  and  N_21
REMARK   11  A    between atoms: C_24  and  N_25
REMARK   12  A    between atoms: N_25  and  O_28
REMARK   13  A    between atoms: C_26  and  C_30
REMARK   14  A    between atoms: C_31  and  C_32
REMARK   15  A    between atoms: N_34  and  C_36
REMARK   16  A    between atoms: C_37  and  C_38
REMARK   17  A    between atoms: C_38  and  C_39
REMARK   18  A    between atoms: C_40  and  N_41
REMARK   19  A    between atoms: N_41  and  O_45
REMARK                            x       y       z     vdW  Elec       q    Type
REMARK                         _______ _______ _______ _____ _____    ______ ____
ROOT
ATOM      1  C   UNL     1     139.271 116.369 112.212  0.00  0.00    +0.000 C 
ATOM      2  C   UNL     1     138.248 116.523 112.822  0.00  0.00    +0.000 C 
ENDROOT
BRANCH   2   3
ATOM      3  N   UNL     1     137.099 116.694 113.508  0.00  0.00    +0.000 N 
ATOM      4  C   UNL     1     136.488 115.896 114.460  0.00  0.00    +0.000 C 
ATOM      5  O   UNL     1     136.826 114.749 114.734  0.00  0.00    +0.000 OA
BRANCH   4   6
ATOM      6  C   UNL     1     135.343 116.445 115.156  0.00  0.00    +0.000 C 
ATOM      7  C   UNL     1     134.392 116.911 115.724  0.00  0.00    +0.000 C 
BRANCH   7   8
ATOM      8  C   UNL     1     133.258 117.491 116.399  0.00  0.00    +0.000 C 
ATOM      9  O   UNL     1     132.654 116.823 117.226  0.00  0.00    +0.000 OA
ATOM     10  N   UNL     1     132.956 118.784 116.033  0.00  0.00    +0.000 N 
ATOM     11  H   UNL     1     133.558 119.202 115.334  0.00  0.00    +0.000 HD
BRANCH  10  12
ATOM     12  C   UNL     1     131.966 119.586 116.480  0.00  0.00    +0.000 C 
ATOM     13  C   UNL     1     131.084 120.294 116.881  0.00  0.00    +0.000 C 
BRANCH  13  14
ATOM     14  C   UNL     1     129.957 121.193 117.401  0.00  0.00    +0.000 C 
BRANCH  14  15
ATOM     15  C   UNL     1     128.826 122.088 117.913  0.00  0.00    +0.000 C 
ATOM     16  C   UNL     1     127.939 122.789 118.318  0.00  0.00    +0.000 C 
BRANCH  16  17
ATOM     17  N   UNL     1     126.948 123.576 118.778  0.00  0.00    +0.000 N 
ATOM     18  C   UNL     1     126.976 124.817 119.370  0.00  0.00    +0.000 C 
ATOM     19  O   UNL     1     127.922 125.539 119.632  0.00  0.00    +0.000 OA
ATOM     20  C   UNL     1     125.679 125.461 119.792  0.00  0.00    +0.000 C 
BRANCH  17  21
ATOM     21  O   UNL     1     125.702 122.927 118.577  0.00  0.00    +0.000 OA
ATOM     22  H   UNL     1     125.894 122.298 117.852  0.00  0.00    +0.000 HD
ENDBRANCH  17  21
ENDBRANCH  16  17
ENDBRANCH  14  15
ENDBRANCH  13  14
ENDBRANCH  10  12
ENDBRANCH   7   8
ENDBRANCH   4   6
BRANCH   3  23
ATOM     23  O   UNL     1     136.726 118.057 113.464  0.00  0.00    +0.000 OA
ATOM     24  H   UNL     1     137.491 118.481 113.896  0.00  0.00    +0.000 HD
ENDBRANCH   3  23
ENDBRANCH   2   3
BRANCH   1  25
ATOM     25  C   UNL     1     140.575 116.158 111.438  0.00  0.00    +0.000 C 
ATOM     26  C   UNL     1     141.591 115.995 110.820  0.00  0.00    +0.000 C 
BRANCH  26  27
ATOM     27  C   UNL     1     142.880 115.790 110.019  0.00  0.00    +0.000 C 
BRANCH  27  28
ATOM     28  N   UNL     1     144.027 115.610 109.328  0.00  0.00    +0.000 N 
ATOM     29  C   UNL     1     144.316 115.948 108.027  0.00  0.00    +0.000 C 
ATOM     30  O   UNL     1     143.551 116.491 107.242  0.00  0.00    +0.000 OA
ATOM     31  H   UNL     1     144.769 115.171 109.858  0.00  0.00    +0.000 HD
BRANCH  29  32
ATOM     32  C   UNL     1     145.650 115.619 107.587  0.00  0.00    +0.000 C 
ATOM     33  C   UNL     1     146.757 115.357 107.201  0.00  0.00    +0.000 C 
BRANCH  33  34
ATOM     34  C   UNL     1     148.092 115.061 106.724  0.00  0.00    +0.000 C 
ATOM     35  O   UNL     1     148.987 114.969 107.558  0.00  0.00    +0.000 OA
ATOM     36  N   UNL     1     148.269 114.942 105.356  0.00  0.00    +0.000 N 
BRANCH  36  37
ATOM     37  C   UNL     1     149.339 114.540 104.639  0.00  0.00    +0.000 C 
ATOM     38  C   UNL     1     150.290 114.184 103.999  0.00  0.00    +0.000 C 
BRANCH  38  39
ATOM     39  C   UNL     1     151.501 113.733 103.176  0.00  0.00    +0.000 C 
ATOM     40  C   UNL     1     152.448 113.383 102.528  0.00  0.00    +0.000 C 
BRANCH  40  41
ATOM     41  C   UNL     1     153.656 112.939 101.698  0.00  0.00    +0.000 C 
BRANCH  41  42
ATOM     42  N   UNL     1     154.803 112.518 100.911  0.00  0.00    +0.000 NA
ATOM     43  H   UNL     1     154.936 113.140 100.115  0.00  0.00    +0.000 HD
ATOM     44  H   UNL     1     155.657 112.582 101.464  0.00  0.00    +0.000 HD
ENDBRANCH  41  42
ENDBRANCH  40  41
ENDBRANCH  38  39
ENDBRANCH  36  37
BRANCH  36  45
ATOM     45  O   UNL     1     147.109 114.868 104.552  0.00  0.00    +0.000 OA
ATOM     46  H   UNL     1     147.458 115.139 103.683  0.00  0.00    +0.000 HD
ENDBRANCH  36  45
ENDBRANCH  33  34
ENDBRANCH  29  32
ENDBRANCH  27  28
ENDBRANCH  26  27
ENDBRANCH   1  25
TORSDOF 19
ENDMDL
MODEL 8
REMARK VINA RESULT:      -4.3     21.106     21.983
REMARK  Name = Deferoxamine.pdbqt.pdb
REMARK  19 active torsions:
REMARK  status: ('A' for Active; 'I' for Inactive)
REMARK    1  A    between atoms: C_1  and  C_2
REMARK    2  A    between atoms: C_3  and  C_4
REMARK    3  A    between atoms: C_4  and  N_5
REMARK    4  A    between atoms: C_6  and  C_9
REMARK    5  A    between atoms: C_10  and  C_11
REMARK    6  A    between atoms: N_13  and  O_14
REMARK    7  A    between atoms: N_13  and  C_16
REMARK    8  A    between atoms: C_17  and  C_18
REMARK    9  A    between atoms: C_19  and  C_20
REMARK   10  A    between atoms: C_20  and  N_21
REMARK   11  A    between atoms: C_24  and  N_25
REMARK   12  A    between atoms: N_25  and  O_28
REMARK   13  A    between atoms: C_26  and  C_30
REMARK   14  A    between atoms: C_31  and  C_32
REMARK   15  A    between atoms: N_34  and  C_36
REMARK   16  A    between atoms: C_37  and  C_38
REMARK   17  A    between atoms: C_38  and  C_39
REMARK   18  A    between atoms: C_40  and  N_41
REMARK   19  A    between atoms: N_41  and  O_45
REMARK                            x       y       z     vdW  Elec       q    Type
REMARK                         _______ _______ _______ _____ _____    ______ ____
ROOT
ATOM      1  C   UNL     1     151.542 133.059 132.397  0.00  0.00    +0.000 C 
ATOM      2  C   UNL     1     151.444 133.378 131.243  0.00  0.00    +0.000 C 
ENDROOT
BRANCH   2   3
ATOM      3  N   UNL     1     151.335 133.739 129.948  0.00  0.00    +0.000 N 
ATOM      4  C   UNL     1     151.435 132.986 128.790  0.00  0.00    +0.000 C 
ATOM      5  O   UNL     1     151.828 131.826 128.740  0.00  0.00    +0.000 OA
BRANCH   4   6
ATOM      6  C   UNL     1     151.082 133.632 127.542  0.00  0.00    +0.000 C 
ATOM      7  C   UNL     1     150.788 134.155 126.501  0.00  0.00    +0.000 C 
BRANCH   7   8
ATOM      8  C   UNL     1     150.445 134.765 125.240  0.00  0.00    +0.000 C 
ATOM      9  O   UNL     1     149.308 134.636 124.809  0.00  0.00    +0.000 OA
ATOM     10  N   UNL     1     151.465 135.455 124.627  0.00  0.00    +0.000 N 
ATOM     11  H   UNL     1     152.350 135.474 125.117  0.00  0.00    +0.000 HD
BRANCH  10  12
ATOM     12  C   UNL     1     151.454 136.125 123.453  0.00  0.00    +0.000 C 
ATOM     13  C   UNL     1     151.450 136.718 122.410  0.00  0.00    +0.000 C 
BRANCH  13  14
ATOM     14  C   UNL     1     151.453 137.471 121.076  0.00  0.00    +0.000 C 
BRANCH  14  15
ATOM     15  C   UNL     1     151.458 138.217 119.739  0.00  0.00    +0.000 C 
ATOM     16  C   UNL     1     151.465 138.803 118.691  0.00  0.00    +0.000 C 
BRANCH  16  17
ATOM     17  N   UNL     1     151.480 139.461 117.516  0.00  0.00    +0.000 N 
ATOM     18  C   UNL     1     151.226 139.033 116.234  0.00  0.00    +0.000 C 
ATOM     19  O   UNL     1     150.914 137.930 115.823  0.00  0.00    +0.000 OA
ATOM     20  C   UNL     1     151.327 140.018 115.096  0.00  0.00    +0.000 C 
BRANCH  17  21
ATOM     21  O   UNL     1     151.831 140.817 117.743  0.00  0.00    +0.000 OA
ATOM     22  H   UNL     1     152.807 140.785 117.815  0.00  0.00    +0.000 HD
ENDBRANCH  17  21
ENDBRANCH  16  17
ENDBRANCH  14  15
ENDBRANCH  13  14
ENDBRANCH  10  12
ENDBRANCH   7   8
ENDBRANCH   4   6
BRANCH   3  23
ATOM     23  O   UNL     1     150.667 134.981 129.862  0.00  0.00    +0.000 OA
ATOM     24  H   UNL     1     150.389 134.988 128.927  0.00  0.00    +0.000 HD
ENDBRANCH   3  23
ENDBRANCH   2   3
BRANCH   1  25
ATOM     25  C   UNL     1     151.655 132.662 133.872  0.00  0.00    +0.000 C 
ATOM     26  C   UNL     1     151.734 132.360 135.030  0.00  0.00    +0.000 C 
BRANCH  26  27
ATOM     27  C   UNL     1     151.823 131.983 136.512  0.00  0.00    +0.000 C 
BRANCH  27  28
ATOM     28  N   UNL     1     151.890 131.664 137.823  0.00  0.00    +0.000 N 
ATOM     29  C   UNL     1     152.116 130.440 138.406  0.00  0.00    +0.000 C 
ATOM     30  O   UNL     1     152.301 129.388 137.812  0.00  0.00    +0.000 OA
ATOM     31  H   UNL     1     151.761 132.449 138.450  0.00  0.00    +0.000 HD
BRANCH  29  32
ATOM     32  C   UNL     1     152.130 130.439 139.849  0.00  0.00    +0.000 C 
ATOM     33  C   UNL     1     152.157 130.456 141.050  0.00  0.00    +0.000 C 
BRANCH  33  34
ATOM     34  C   UNL     1     152.192 130.500 142.497  0.00  0.00    +0.000 C 
ATOM     35  O   UNL     1     153.232 130.161 143.052  0.00  0.00    +0.000 OA
ATOM     36  N   UNL     1     151.035 130.887 143.152  0.00  0.00    +0.000 N 
BRANCH  36  37
ATOM     37  C   UNL     1     150.809 131.156 144.454  0.00  0.00    +0.000 C 
ATOM     38  C   UNL     1     150.607 131.392 145.614  0.00  0.00    +0.000 C 
BRANCH  38  39
ATOM     39  C   UNL     1     150.344 131.689 147.094  0.00  0.00    +0.000 C 
ATOM     40  C   UNL     1     150.144 131.922 148.254  0.00  0.00    +0.000 C 
BRANCH  40  41
ATOM     41  C   UNL     1     149.892 132.218 149.734  0.00  0.00    +0.000 C 
BRANCH  41  42
ATOM     42  N   UNL     1     149.653 132.499 151.141  0.00  0.00    +0.000 NA
ATOM     43  H   UNL     1     149.851 133.477 151.346  0.00  0.00    +0.000 HD
ATOM     44  H   UNL     1     148.671 132.357 151.369  0.00  0.00    +0.000 HD
ENDBRANCH  41  42
ENDBRANCH  40  41
ENDBRANCH  38  39
ENDBRANCH  36  37
BRANCH  36  45
ATOM     45  O   UNL     1     149.998 131.445 142.370  0.00  0.00    +0.000 OA
ATOM     46  H   UNL     1     149.803 130.713 141.756  0.00  0.00    +0.000 HD
ENDBRANCH  36  45
ENDBRANCH  33  34
ENDBRANCH  29  32
ENDBRANCH  27  28
ENDBRANCH  26  27
ENDBRANCH   1  25
TORSDOF 19
ENDMDL
MODEL 9
REMARK VINA RESULT:      -4.3     24.320     31.216
REMARK  Name = Deferoxamine.pdbqt.pdb
REMARK  19 active torsions:
REMARK  status: ('A' for Active; 'I' for Inactive)
REMARK    1  A    between atoms: C_1  and  C_2
REMARK    2  A    between atoms: C_3  and  C_4
REMARK    3  A    between atoms: C_4  and  N_5
REMARK    4  A    between atoms: C_6  and  C_9
REMARK    5  A    between atoms: C_10  and  C_11
REMARK    6  A    between atoms: N_13  and  O_14
REMARK    7  A    between atoms: N_13  and  C_16
REMARK    8  A    between atoms: C_17  and  C_18
REMARK    9  A    between atoms: C_19  and  C_20
REMARK   10  A    between atoms: C_20  and  N_21
REMARK   11  A    between atoms: C_24  and  N_25
REMARK   12  A    between atoms: N_25  and  O_28
REMARK   13  A    between atoms: C_26  and  C_30
REMARK   14  A    between atoms: C_31  and  C_32
REMARK   15  A    between atoms: N_34  and  C_36
REMARK   16  A    between atoms: C_37  and  C_38
REMARK   17  A    between atoms: C_38  and  C_39
REMARK   18  A    between atoms: C_40  and  N_41
REMARK   19  A    between atoms: N_41  and  O_45
REMARK                            x       y       z     vdW  Elec       q    Type
REMARK                         _______ _______ _______ _____ _____    ______ ____
ROOT
ATOM      1  C   UNL     1     140.004 116.314 111.964  0.00  0.00    +0.000 C 
ATOM      2  C   UNL     1     141.026 116.025 111.402  0.00  0.00    +0.000 C 
ENDROOT
BRANCH   2   3
ATOM      3  N   UNL     1     142.174 115.700 110.772  0.00  0.00    +0.000 N 
ATOM      4  C   UNL     1     142.412 114.829 109.723  0.00  0.00    +0.000 C 
ATOM      5  O   UNL     1     141.593 114.035 109.271  0.00  0.00    +0.000 OA
BRANCH   4   6
ATOM      6  C   UNL     1     143.738 114.834 109.140  0.00  0.00    +0.000 C 
ATOM      7  C   UNL     1     144.843 114.844 108.668  0.00  0.00    +0.000 C 
BRANCH   7   8
ATOM      8  C   UNL     1     146.173 114.877 108.113  0.00  0.00    +0.000 C 
ATOM      9  O   UNL     1     147.085 115.338 108.784  0.00  0.00    +0.000 OA
ATOM     10  N   UNL     1     146.289 114.368 106.839  0.00  0.00    +0.000 N 
ATOM     11  H   UNL     1     145.437 114.018 106.418  0.00  0.00    +0.000 HD
BRANCH  10  12
ATOM     12  C   UNL     1     147.389 114.263 106.061  0.00  0.00    +0.000 C 
ATOM     13  C   UNL     1     148.369 114.167 105.375  0.00  0.00    +0.000 C 
BRANCH  13  14
ATOM     14  C   UNL     1     149.624 114.040 104.506  0.00  0.00    +0.000 C 
BRANCH  14  15
ATOM     15  C   UNL     1     150.874 113.914 103.631  0.00  0.00    +0.000 C 
ATOM     16  C   UNL     1     151.854 113.819 102.945  0.00  0.00    +0.000 C 
BRANCH  16  17
ATOM     17  N   UNL     1     152.958 113.715 102.179  0.00  0.00    +0.000 N 
ATOM     18  C   UNL     1     153.153 113.148 100.942  0.00  0.00    +0.000 C 
ATOM     19  O   UNL     1     152.364 112.584 100.205  0.00  0.00    +0.000 OA
ATOM     20  C   UNL     1     154.529 113.183 100.325  0.00  0.00    +0.000 C 
BRANCH  17  21
ATOM     21  O   UNL     1     154.052 114.321 102.850  0.00  0.00    +0.000 OA
ATOM     22  H   UNL     1     154.146 115.181 102.389  0.00  0.00    +0.000 HD
ENDBRANCH  17  21
ENDBRANCH  16  17
ENDBRANCH  14  15
ENDBRANCH  13  14
ENDBRANCH  10  12
ENDBRANCH   7   8
ENDBRANCH   4   6
BRANCH   3  23
ATOM     23  O   UNL     1     143.147 116.692 111.030  0.00  0.00    +0.000 OA
ATOM     24  H   UNL     1     142.665 117.282 111.638  0.00  0.00    +0.000 HD
ENDBRANCH   3  23
ENDBRANCH   2   3
BRANCH   1  25
ATOM     25  C   UNL     1     138.711 116.688 112.692  0.00  0.00    +0.000 C 
ATOM     26  C   UNL     1     137.702 116.995 113.264  0.00  0.00    +0.000 C 
BRANCH  26  27
ATOM     27  C   UNL     1     136.418 117.400 113.997  0.00  0.00    +0.000 C 
BRANCH  27  28
ATOM     28  N   UNL     1     135.294 117.772 114.646  0.00  0.00    +0.000 N 
ATOM     29  C   UNL     1     134.465 117.020 115.444  0.00  0.00    +0.000 C 
ATOM     30  O   UNL     1     134.611 115.837 115.712  0.00  0.00    +0.000 OA
ATOM     31  H   UNL     1     135.044 118.746 114.523  0.00  0.00    +0.000 HD
BRANCH  29  32
ATOM     32  C   UNL     1     133.335 117.727 115.997  0.00  0.00    +0.000 C 
ATOM     33  C   UNL     1     132.380 118.298 116.450  0.00  0.00    +0.000 C 
BRANCH  33  34
ATOM     34  C   UNL     1     131.218 118.967 116.999  0.00  0.00    +0.000 C 
ATOM     35  O   UNL     1     130.488 118.320 117.743  0.00  0.00    +0.000 OA
ATOM     36  N   UNL     1     130.995 120.278 116.613  0.00  0.00    +0.000 N 
BRANCH  36  37
ATOM     37  C   UNL     1     130.101 121.186 117.057  0.00  0.00    +0.000 C 
ATOM     38  C   UNL     1     129.305 121.994 117.448  0.00  0.00    +0.000 C 
BRANCH  38  39
ATOM     39  C   UNL     1     128.290 123.030 117.942  0.00  0.00    +0.000 C 
ATOM     40  C   UNL     1     127.500 123.845 118.331  0.00  0.00    +0.000 C 
BRANCH  40  41
ATOM     41  C   UNL     1     126.494 124.888 118.826  0.00  0.00    +0.000 C 
BRANCH  41  42
ATOM     42  N   UNL     1     125.539 125.877 119.298  0.00  0.00    +0.000 NA
ATOM     43  H   UNL     1     125.171 126.417 118.516  0.00  0.00    +0.000 HD
ATOM     44  H   UNL     1     124.737 125.420 119.727  0.00  0.00    +0.000 HD
ENDBRANCH  41  42
ENDBRANCH  40  41
ENDBRANCH  38  39
ENDBRANCH  36  37
BRANCH  36  45
ATOM     45  O   UNL     1     132.036 120.941 115.923  0.00  0.00    +0.000 OA
ATOM     46  H   UNL     1     131.547 121.655 115.475  0.00  0.00    +0.000 HD
ENDBRANCH  36  45
ENDBRANCH  33  34
ENDBRANCH  29  32
ENDBRANCH  27  28
ENDBRANCH  26  27
ENDBRANCH   1  25
TORSDOF 19
ENDMDL
