REMARK  Name = Deferoxamine.pdbqt.pdb
REMARK  19 active torsions:
REMARK  status: ('A' for Active; 'I' for Inactive)
REMARK    1  A    between atoms: C_1  and  C_2
REMARK    2  A    between atoms: C_3  and  C_4
REMARK    3  A    between atoms: C_4  and  N_5
REMARK    4  A    between atoms: C_6  and  C_9
REMARK    5  A    between atoms: C_10  and  C_11
REMARK    6  A    between atoms: N_13  and  O_14
REMARK    7  A    between atoms: N_13  and  C_16
REMARK    8  A    between atoms: C_17  and  C_18
REMARK    9  A    between atoms: C_19  and  C_20
REMARK   10  A    between atoms: C_20  and  N_21
REMARK   11  A    between atoms: C_24  and  N_25
REMARK   12  A    between atoms: N_25  and  O_28
REMARK   13  A    between atoms: C_26  and  C_30
REMARK   14  A    between atoms: C_31  and  C_32
REMARK   15  A    between atoms: N_34  and  C_36
REMARK   16  A    between atoms: C_37  and  C_38
REMARK   17  A    between atoms: C_38  and  C_39
REMARK   18  A    between atoms: C_40  and  N_41
REMARK   19  A    between atoms: N_41  and  O_45
REMARK                            x       y       z     vdW  Elec       q    Type
REMARK                         _______ _______ _______ _____ _____    ______ ____
ROOT
ATOM      1  C   UNL     1      14.788   0.527  -0.225  0.00  0.00    +0.000 C 
ATOM      2  C   UNL     1      13.598   0.650  -0.115  0.00  0.00    +0.000 C 
ENDROOT
BRANCH   2   3
ATOM      3  N   UNL     1      12.262   0.789   0.010  0.00  0.00    +0.000 N 
ATOM      4  C   UNL     1      11.284   1.007  -0.945  0.00  0.00    +0.000 C 
ATOM      5  O   UNL     1      11.501   1.292  -2.118  0.00  0.00    +0.000 OA
BRANCH   4   6
ATOM      6  C   UNL     1       9.903   0.926  -0.516  0.00  0.00    +0.000 C 
ATOM      7  C   UNL     1       8.759   0.871  -0.153  0.00  0.00    +0.000 C 
BRANCH   7   8
ATOM      8  C   UNL     1       7.392   0.815   0.303  0.00  0.00    +0.000 C 
ATOM      9  O   UNL     1       7.127   1.202   1.432  0.00  0.00    +0.000 OA
ATOM     10  N   UNL     1       6.490   0.315  -0.609  0.00  0.00    +0.000 N 
ATOM     11  H   UNL     1       6.868   0.041  -1.507  0.00  0.00    +0.000 HD
BRANCH  10  12
ATOM     12  C   UNL     1       5.157   0.140  -0.479  0.00  0.00    +0.000 C 
ATOM     13  C   UNL     1       3.973  -0.014  -0.358  0.00  0.00    +0.000 C 
BRANCH  13  14
ATOM     14  C   UNL     1       2.462  -0.206  -0.195  0.00  0.00    +0.000 C 
BRANCH  14  15
ATOM     15  C   UNL     1       0.952  -0.394  -0.024  0.00  0.00    +0.000 C 
ATOM     16  C   UNL     1      -0.232  -0.539   0.112  0.00  0.00    +0.000 C 
BRANCH  16  17
ATOM     17  N   UNL     1      -1.561  -0.695   0.266  0.00  0.00    +0.000 N 
ATOM     18  C   UNL     1      -2.588   0.219   0.257  0.00  0.00    +0.000 C 
ATOM     19  O   UNL     1      -2.561   1.427   0.101  0.00  0.00    +0.000 OA
ATOM     20  C   UNL     1      -4.003  -0.261   0.464  0.00  0.00    +0.000 C 
BRANCH  17  21
ATOM     21  O   UNL     1      -1.851  -2.069   0.470  0.00  0.00    +0.000 OA
ATOM     22  H   UNL     1      -2.824  -2.076   0.583  0.00  0.00    +0.000 HD
ENDBRANCH  17  21
ENDBRANCH  16  17
ENDBRANCH  14  15
ENDBRANCH  13  14
ENDBRANCH  10  12
ENDBRANCH   7   8
ENDBRANCH   4   6
BRANCH   3  23
ATOM     23  O   UNL     1      11.851   0.264   1.256  0.00  0.00    +0.000 OA
ATOM     24  H   UNL     1      11.809   1.071   1.802  0.00  0.00    +0.000 HD
ENDBRANCH   3  23
ENDBRANCH   2   3
BRANCH   1  25
ATOM     25  C   UNL     1      16.305   0.363  -0.351  0.00  0.00    +0.000 C 
ATOM     26  C   UNL     1      17.494   0.229  -0.437  0.00  0.00    +0.000 C 
BRANCH  26  27
ATOM     27  C   UNL     1      19.013   0.052  -0.534  0.00  0.00    +0.000 C 
BRANCH  27  28
ATOM     28  N   UNL     1      20.352  -0.112  -0.603  0.00  0.00    +0.000 N 
ATOM     29  C   UNL     1      21.212  -0.621   0.341  0.00  0.00    +0.000 C 
ATOM     30  O   UNL     1      20.897  -1.028   1.450  0.00  0.00    +0.000 OA
ATOM     31  H   UNL     1      20.763   0.179  -1.481  0.00  0.00    +0.000 HD
BRANCH  29  32
ATOM     32  C   UNL     1      22.600  -0.664  -0.050  0.00  0.00    +0.000 C 
ATOM     33  C   UNL     1      23.761  -0.711  -0.355  0.00  0.00    +0.000 C 
BRANCH  33  34
ATOM     34  C   UNL     1      25.163  -0.787  -0.711  0.00  0.00    +0.000 C 
ATOM     35  O   UNL     1      25.441  -1.016  -1.884  0.00  0.00    +0.000 OA
ATOM     36  N   UNL     1      26.089  -0.633   0.307  0.00  0.00    +0.000 N 
BRANCH  36  37
ATOM     37  C   UNL     1      27.432  -0.513   0.264  0.00  0.00    +0.000 C 
ATOM     38  C   UNL     1      28.627  -0.409   0.228  0.00  0.00    +0.000 C 
BRANCH  38  39
ATOM     39  C   UNL     1      30.153  -0.277   0.189  0.00  0.00    +0.000 C 
ATOM     40  C   UNL     1      31.348  -0.173   0.164  0.00  0.00    +0.000 C 
BRANCH  40  41
ATOM     41  C   UNL     1      32.873  -0.040   0.136  0.00  0.00    +0.000 C 
BRANCH  41  42
ATOM     42  N   UNL     1      34.321   0.086   0.110  0.00  0.00    +0.000 NA
ATOM     43  H   UNL     1      34.753  -0.667   0.643  0.00  0.00    +0.000 HD
ATOM     44  H   UNL     1      34.669  -0.008  -0.843  0.00  0.00    +0.000 HD
ENDBRANCH  41  42
ENDBRANCH  40  41
ENDBRANCH  38  39
ENDBRANCH  36  37
BRANCH  36  45
ATOM     45  O   UNL     1      25.615  -0.169   1.555  0.00  0.00    +0.000 OA
ATOM     46  H   UNL     1      25.524  -1.004   2.050  0.00  0.00    +0.000 HD
ENDBRANCH  36  45
ENDBRANCH  33  34
ENDBRANCH  29  32
ENDBRANCH  27  28
ENDBRANCH  26  27
ENDBRANCH   1  25
TORSDOF 19
