MODEL 1
REMARK VINA RESULT:      -6.2      0.000      0.000
REMARK  Name = 
REMARK  25 active torsions:
REMARK  status: ('A' for Active; 'I' for Inactive)
REMARK    1  A    between atoms: O_2  and  C_17
REMARK    2  A    between atoms: O_2  and  C_36
REMARK    3  A    between atoms: O_3  and  C_20
REMARK    4  A    between atoms: O_3  and  C_37
REMARK    5  A    between atoms: O_4  and  C_21
REMARK    6  A    between atoms: O_5  and  C_22
REMARK    7  A    between atoms: O_7  and  C_30
REMARK    8  A    between atoms: O_8  and  C_31
REMARK    9  A    between atoms: O_8  and  C_39
REMARK   10  A    between atoms: O_12  and  C_41
REMARK   11  A    between atoms: O_13  and  C_51
REMARK   12  A    between atoms: O_13  and  C_55
REMARK   13  A    between atoms: N_15  and  C_44
REMARK   14  A    between atoms: C_18  and  C_29
REMARK   15  A    between atoms: C_24  and  C_33
REMARK   16  A    between atoms: C_24  and  C_34
REMARK   17  A    between atoms: C_32  and  C_35
REMARK   18  A    between atoms: C_36  and  C_38
REMARK   19  A    between atoms: C_37  and  C_40
REMARK   20  A    between atoms: C_39  and  C_41
REMARK   21  A    between atoms: C_41  and  C_44
REMARK   22  A    between atoms: C_44  and  C_48
REMARK   23  A    between atoms: C_55  and  C_56
REMARK   24  A    between atoms: C_55  and  C_57
REMARK   25  A    between atoms: C_55  and  C_58
REMARK                            x       y       z     vdW  Elec       q    Type
REMARK                         _______ _______ _______ _____ _____    ______ ____
ROOT
ATOM      1  O   UNL     1     150.800 112.598 106.970  0.00  0.00    +0.000 OA
ATOM      2  O   UNL     1     145.173 108.945 107.364  0.00  0.00    +0.000 OA
ATOM      3  C   UNL     1     147.375 112.753 107.295  0.00  0.00    +0.000 C 
ATOM      4  C   UNL     1     148.844 112.954 107.770  0.00  0.00    +0.000 C 
ATOM      5  C   UNL     1     146.874 110.987 107.775  0.00  0.00    +0.000 C 
ATOM      6  C   UNL     1     149.522 111.935 106.766  0.00  0.00    +0.000 C 
ATOM      7  C   UNL     1     146.303 114.228 107.682  0.00  0.00    +0.000 C 
ATOM      8  C   UNL     1     144.515 114.838 107.541  0.00  0.00    +0.000 C 
ATOM      9  C   UNL     1     147.893 110.075 106.973  0.00  0.00    +0.000 C 
ATOM     10  C   UNL     1     149.396 110.467 107.114  0.00  0.00    +0.000 C 
ATOM     11  C   UNL     1     143.055 113.906 107.151  0.00  0.00    +0.000 C 
ATOM     12  C   UNL     1     150.007 113.836 107.163  0.00  0.00    +0.000 C 
ATOM     13  C   UNL     1     145.186 110.173 107.602  0.00  0.00    +0.000 C 
ATOM     14  C   UNL     1     144.132 115.362 109.001  0.00  0.00    +0.000 C 
ATOM     15  C   UNL     1     142.894 112.634 108.108  0.00  0.00    +0.000 C 
ATOM     16  C   UNL     1     147.207 110.656 109.291  0.00  0.00    +0.000 C 
ATOM     17  C   UNL     1     143.449 110.975 107.748  0.00  0.00    +0.000 C 
ATOM     18  C   UNL     1     143.337 114.370 109.967  0.00  0.00    +0.000 C 
ATOM     19  C   UNL     1     142.781 113.004 109.427  0.00  0.00    +0.000 C 
ATOM     20  C   UNL     1     141.794 114.866 107.435  0.00  0.00    +0.000 C 
ATOM     21  C   UNL     1     142.692 113.646 105.654  0.00  0.00    +0.000 C 
ATOM     22  C   UNL     1     142.370 112.035 110.508  0.00  0.00    +0.000 C 
ENDROOT
BRANCH  17  23
ATOM     23  O   UNL     1     142.535 110.491 106.762  0.00  0.00    +0.000 OA
ATOM     24  H   UNL     1     141.710 110.987 106.920  0.00  0.00    +0.000 HD
ENDBRANCH  17  23
BRANCH   9  25
ATOM     25  O   UNL     1     147.576 110.151 105.583  0.00  0.00    +0.000 OA
ATOM     26  H   UNL     1     147.210 109.285 105.326  0.00  0.00    +0.000 HD
ENDBRANCH   9  25
BRANCH   8  27
ATOM     27  O   UNL     1     144.594 115.999 106.692  0.00  0.00    +0.000 OA
ATOM     28  H   UNL     1     145.143 115.790 105.915  0.00  0.00    +0.000 HD
ENDBRANCH   8  27
BRANCH  18  29
ATOM     29  O   UNL     1     144.213 114.053 111.088  0.00  0.00    +0.000 OA
BRANCH  29  31
ATOM     30  O   UNL     1     144.273 113.947 113.343  0.00  0.00    +0.000 OA
ATOM     31  C   UNL     1     143.833 114.466 112.323  0.00  0.00    +0.000 C 
BRANCH  31  32
ATOM     32  C   UNL     1     142.705 115.503 112.345  0.00  0.00    +0.000 C 
BRANCH  32  33
ATOM     33  O   UNL     1     142.999 116.719 113.043  0.00  0.00    +0.000 OA
ATOM     34  H   UNL     1     143.839 117.047 112.670  0.00  0.00    +0.000 HD
ENDBRANCH  32  33
BRANCH  32  35
ATOM     35  C   UNL     1     141.424 114.824 112.899  0.00  0.00    +0.000 C 
BRANCH  35  36
ATOM     36  C   UNL     1     140.161 115.267 112.170  0.00  0.00    +0.000 A 
ATOM     37  C   UNL     1     139.716 114.545 111.051  0.00  0.00    +0.000 A 
ATOM     38  C   UNL     1     139.397 116.363 112.606  0.00  0.00    +0.000 A 
ATOM     39  C   UNL     1     138.556 114.923 110.371  0.00  0.00    +0.000 A 
ATOM     40  C   UNL     1     138.238 116.739 111.924  0.00  0.00    +0.000 A 
ATOM     41  C   UNL     1     137.820 116.021 110.806  0.00  0.00    +0.000 A 
ENDBRANCH  35  36
BRANCH  35  43
ATOM     42  O   UNL     1     141.589 112.945 115.068  0.00  0.00    +0.000 OA
ATOM     43  N   UNL     1     141.258 115.081 114.323  0.00  0.00    +0.000 N 
ATOM     44  C   UNL     1     141.251 114.100 115.261  0.00  0.00    +0.000 C 
ATOM     45  H   UNL     1     140.841 115.961 114.594  0.00  0.00    +0.000 HD
BRANCH  44  46
ATOM     46  O   UNL     1     140.837 114.628 116.434  0.00  0.00    +0.000 OA
BRANCH  46  47
ATOM     47  C   UNL     1     139.423 114.751 116.733  0.00  0.00    +0.000 C 
ATOM     48  C   UNL     1     138.601 113.687 115.997  0.00  0.00    +0.000 C 
ATOM     49  C   UNL     1     139.321 114.491 118.243  0.00  0.00    +0.000 C 
ATOM     50  C   UNL     1     138.916 116.168 116.443  0.00  0.00    +0.000 C 
ENDBRANCH  46  47
ENDBRANCH  44  46
ENDBRANCH  35  43
ENDBRANCH  32  35
ENDBRANCH  31  32
ENDBRANCH  29  31
ENDBRANCH  18  29
BRANCH   7  51
ATOM     51  O   UNL     1     145.975 113.589 108.785  0.00  0.00    +0.000 OA
BRANCH  51  53
ATOM     52  O   UNL     1     147.110 115.241 108.676  0.00  0.00    +0.000 OA
ATOM     53  C   UNL     1     146.708 114.470 109.542  0.00  0.00    +0.000 C 
BRANCH  53  54
ATOM     54  C   UNL     1     147.142 114.198 111.388  0.00  0.00    +0.000 A 
ATOM     55  C   UNL     1     147.283 112.897 112.042  0.00  0.00    +0.000 A 
ATOM     56  C   UNL     1     147.518 115.188 112.347  0.00  0.00    +0.000 A 
ATOM     57  C   UNL     1     147.706 112.645 113.372  0.00  0.00    +0.000 A 
ATOM     58  C   UNL     1     147.945 114.955 113.687  0.00  0.00    +0.000 A 
ATOM     59  C   UNL     1     148.040 113.685 114.202  0.00  0.00    +0.000 A 
ENDBRANCH  53  54
ENDBRANCH  51  53
ENDBRANCH   7  51
BRANCH   4  60
ATOM     60  O   UNL     1     149.023 112.622 109.167  0.00  0.00    +0.000 OA
BRANCH  60  62
ATOM     61  O   UNL     1     150.898 111.798 110.066  0.00  0.00    +0.000 OA
ATOM     62  C   UNL     1     150.186 112.774 109.842  0.00  0.00    +0.000 C 
ATOM     63  C   UNL     1     150.526 114.116 110.408  0.00  0.00    +0.000 C 
ENDBRANCH  60  62
ENDBRANCH   4  60
TORSDOF 17
ENDMDL
MODEL 2
REMARK VINA RESULT:      -6.0      1.723      2.151
REMARK  Name = 
REMARK  25 active torsions:
REMARK  status: ('A' for Active; 'I' for Inactive)
REMARK    1  A    between atoms: O_2  and  C_17
REMARK    2  A    between atoms: O_2  and  C_36
REMARK    3  A    between atoms: O_3  and  C_20
REMARK    4  A    between atoms: O_3  and  C_37
REMARK    5  A    between atoms: O_4  and  C_21
REMARK    6  A    between atoms: O_5  and  C_22
REMARK    7  A    between atoms: O_7  and  C_30
REMARK    8  A    between atoms: O_8  and  C_31
REMARK    9  A    between atoms: O_8  and  C_39
REMARK   10  A    between atoms: O_12  and  C_41
REMARK   11  A    between atoms: O_13  and  C_51
REMARK   12  A    between atoms: O_13  and  C_55
REMARK   13  A    between atoms: N_15  and  C_44
REMARK   14  A    between atoms: C_18  and  C_29
REMARK   15  A    between atoms: C_24  and  C_33
REMARK   16  A    between atoms: C_24  and  C_34
REMARK   17  A    between atoms: C_32  and  C_35
REMARK   18  A    between atoms: C_36  and  C_38
REMARK   19  A    between atoms: C_37  and  C_40
REMARK   20  A    between atoms: C_39  and  C_41
REMARK   21  A    between atoms: C_41  and  C_44
REMARK   22  A    between atoms: C_44  and  C_48
REMARK   23  A    between atoms: C_55  and  C_56
REMARK   24  A    between atoms: C_55  and  C_57
REMARK   25  A    between atoms: C_55  and  C_58
REMARK                            x       y       z     vdW  Elec       q    Type
REMARK                         _______ _______ _______ _____ _____    ______ ____
ROOT
ATOM      1  O   UNL     1     149.810 114.012 106.572  0.00  0.00    +0.000 OA
ATOM      2  O   UNL     1     145.008 109.316 106.359  0.00  0.00    +0.000 OA
ATOM      3  C   UNL     1     146.412 113.470 106.710  0.00  0.00    +0.000 C 
ATOM      4  C   UNL     1     147.791 113.911 107.284  0.00  0.00    +0.000 C 
ATOM      5  C   UNL     1     146.252 111.605 107.023  0.00  0.00    +0.000 C 
ATOM      6  C   UNL     1     148.699 113.134 106.245  0.00  0.00    +0.000 C 
ATOM      7  C   UNL     1     145.054 114.670 107.148  0.00  0.00    +0.000 C 
ATOM      8  C   UNL     1     143.188 114.930 106.951  0.00  0.00    +0.000 C 
ATOM      9  C   UNL     1     147.464 110.982 106.213  0.00  0.00    +0.000 C 
ATOM     10  C   UNL     1     148.852 111.645 106.471  0.00  0.00    +0.000 C 
ATOM     11  C   UNL     1     141.959 113.771 106.406  0.00  0.00    +0.000 C 
ATOM     12  C   UNL     1     148.780 115.051 106.814  0.00  0.00    +0.000 C 
ATOM     13  C   UNL     1     144.767 110.498 106.691  0.00  0.00    +0.000 C 
ATOM     14  C   UNL     1     142.648 115.242 108.422  0.00  0.00    +0.000 C 
ATOM     15  C   UNL     1     142.014 112.413 107.252  0.00  0.00    +0.000 C 
ATOM     16  C   UNL     1     146.581 111.216 108.526  0.00  0.00    +0.000 C 
ATOM     17  C   UNL     1     142.901 110.931 106.797  0.00  0.00    +0.000 C 
ATOM     18  C   UNL     1     142.027 114.034 109.262  0.00  0.00    +0.000 C 
ATOM     19  C   UNL     1     141.775 112.638 108.587  0.00  0.00    +0.000 C 
ATOM     20  C   UNL     1     140.522 114.439 106.691  0.00  0.00    +0.000 C 
ATOM     21  C   UNL     1     141.717 113.576 104.876  0.00  0.00    +0.000 C 
ATOM     22  C   UNL     1     141.520 111.517 109.564  0.00  0.00    +0.000 C 
ENDROOT
BRANCH  17  23
ATOM     23  O   UNL     1     142.143 110.367 105.727  0.00  0.00    +0.000 OA
ATOM     24  H   UNL     1     141.387 110.972 105.608  0.00  0.00    +0.000 HD
ENDBRANCH  17  23
BRANCH   9  25
ATOM     25  O   UNL     1     147.196 111.116 104.817  0.00  0.00    +0.000 OA
ATOM     26  H   UNL     1     147.216 112.068 104.613  0.00  0.00    +0.000 HD
ENDBRANCH   9  25
BRANCH   8  27
ATOM     27  O   UNL     1     143.070 116.155 106.199  0.00  0.00    +0.000 OA
ATOM     28  H   UNL     1     143.950 116.561 106.111  0.00  0.00    +0.000 HD
ENDBRANCH   8  27
BRANCH  18  29
ATOM     29  O   UNL     1     142.901 113.797 110.403  0.00  0.00    +0.000 OA
BRANCH  29  31
ATOM     30  O   UNL     1     142.795 113.513 112.641  0.00  0.00    +0.000 OA
ATOM     31  C   UNL     1     142.430 114.113 111.636  0.00  0.00    +0.000 C 
BRANCH  31  32
ATOM     32  C   UNL     1     141.301 115.149 111.656  0.00  0.00    +0.000 C 
BRANCH  32  33
ATOM     33  O   UNL     1     141.604 116.377 112.328  0.00  0.00    +0.000 OA
ATOM     34  H   UNL     1     140.745 116.756 112.596  0.00  0.00    +0.000 HD
ENDBRANCH  32  33
BRANCH  32  35
ATOM     35  C   UNL     1     140.030 114.478 112.242  0.00  0.00    +0.000 C 
BRANCH  35  36
ATOM     36  C   UNL     1     139.061 114.009 111.161  0.00  0.00    +0.000 A 
ATOM     37  C   UNL     1     138.565 112.696 111.197  0.00  0.00    +0.000 A 
ATOM     38  C   UNL     1     138.616 114.866 110.140  0.00  0.00    +0.000 A 
ATOM     39  C   UNL     1     137.668 112.245 110.226  0.00  0.00    +0.000 A 
ATOM     40  C   UNL     1     137.720 114.412 109.170  0.00  0.00    +0.000 A 
ATOM     41  C   UNL     1     137.249 113.101 109.211  0.00  0.00    +0.000 A 
ENDBRANCH  35  36
BRANCH  35  43
ATOM     42  O   UNL     1     138.743 113.827 114.728  0.00  0.00    +0.000 OA
ATOM     43  N   UNL     1     139.323 115.374 113.147  0.00  0.00    +0.000 N 
ATOM     44  C   UNL     1     138.657 114.945 114.249  0.00  0.00    +0.000 C 
ATOM     45  H   UNL     1     139.065 116.286 112.795  0.00  0.00    +0.000 HD
BRANCH  44  46
ATOM     46  O   UNL     1     137.916 115.967 114.730  0.00  0.00    +0.000 OA
BRANCH  46  47
ATOM     47  C   UNL     1     136.479 115.997 114.531  0.00  0.00    +0.000 C 
ATOM     48  C   UNL     1     135.738 115.348 115.705  0.00  0.00    +0.000 C 
ATOM     49  C   UNL     1     136.123 117.491 114.492  0.00  0.00    +0.000 C 
ATOM     50  C   UNL     1     136.091 115.366 113.189  0.00  0.00    +0.000 C 
ENDBRANCH  46  47
ENDBRANCH  44  46
ENDBRANCH  35  43
ENDBRANCH  32  35
ENDBRANCH  31  32
ENDBRANCH  29  31
ENDBRANCH  18  29
BRANCH   7  51
ATOM     51  O   UNL     1     144.814 113.885 108.177  0.00  0.00    +0.000 OA
BRANCH  51  53
ATOM     52  O   UNL     1     145.556 115.748 108.272  0.00  0.00    +0.000 OA
ATOM     53  C   UNL     1     145.351 114.812 109.037  0.00  0.00    +0.000 C 
BRANCH  53  54
ATOM     54  C   UNL     1     145.871 114.428 110.841  0.00  0.00    +0.000 A 
ATOM     55  C   UNL     1     146.013 113.090 111.415  0.00  0.00    +0.000 A 
ATOM     56  C   UNL     1     146.319 115.354 111.832  0.00  0.00    +0.000 A 
ATOM     57  C   UNL     1     146.496 112.755 112.705  0.00  0.00    +0.000 A 
ATOM     58  C   UNL     1     146.808 115.038 113.133  0.00  0.00    +0.000 A 
ATOM     59  C   UNL     1     146.897 113.739 113.572  0.00  0.00    +0.000 A 
ENDBRANCH  53  54
ENDBRANCH  51  53
ENDBRANCH   7  51
BRANCH   4  60
ATOM     60  O   UNL     1     147.974 113.499 108.659  0.00  0.00    +0.000 OA
BRANCH  60  62
ATOM     61  O   UNL     1     148.970 115.223 109.680  0.00  0.00    +0.000 OA
ATOM     62  C   UNL     1     148.915 114.011 109.487  0.00  0.00    +0.000 C 
ATOM     63  C   UNL     1     149.949 113.096 110.063  0.00  0.00    +0.000 C 
ENDBRANCH  60  62
ENDBRANCH   4  60
TORSDOF 17
ENDMDL
MODEL 3
REMARK VINA RESULT:      -6.0      3.679     10.230
REMARK  Name = 
REMARK  25 active torsions:
REMARK  status: ('A' for Active; 'I' for Inactive)
REMARK    1  A    between atoms: O_2  and  C_17
REMARK    2  A    between atoms: O_2  and  C_36
REMARK    3  A    between atoms: O_3  and  C_20
REMARK    4  A    between atoms: O_3  and  C_37
REMARK    5  A    between atoms: O_4  and  C_21
REMARK    6  A    between atoms: O_5  and  C_22
REMARK    7  A    between atoms: O_7  and  C_30
REMARK    8  A    between atoms: O_8  and  C_31
REMARK    9  A    between atoms: O_8  and  C_39
REMARK   10  A    between atoms: O_12  and  C_41
REMARK   11  A    between atoms: O_13  and  C_51
REMARK   12  A    between atoms: O_13  and  C_55
REMARK   13  A    between atoms: N_15  and  C_44
REMARK   14  A    between atoms: C_18  and  C_29
REMARK   15  A    between atoms: C_24  and  C_33
REMARK   16  A    between atoms: C_24  and  C_34
REMARK   17  A    between atoms: C_32  and  C_35
REMARK   18  A    between atoms: C_36  and  C_38
REMARK   19  A    between atoms: C_37  and  C_40
REMARK   20  A    between atoms: C_39  and  C_41
REMARK   21  A    between atoms: C_41  and  C_44
REMARK   22  A    between atoms: C_44  and  C_48
REMARK   23  A    between atoms: C_55  and  C_56
REMARK   24  A    between atoms: C_55  and  C_57
REMARK   25  A    between atoms: C_55  and  C_58
REMARK                            x       y       z     vdW  Elec       q    Type
REMARK                         _______ _______ _______ _____ _____    ______ ____
ROOT
ATOM      1  O   UNL     1     137.551 115.979 115.769  0.00  0.00    +0.000 OA
ATOM      2  O   UNL     1     142.146 111.103 115.251  0.00  0.00    +0.000 OA
ATOM      3  C   UNL     1     140.363 114.947 114.070  0.00  0.00    +0.000 C 
ATOM      4  C   UNL     1     138.857 115.322 114.202  0.00  0.00    +0.000 C 
ATOM      5  C   UNL     1     140.515 113.105 114.501  0.00  0.00    +0.000 C 
ATOM      6  C   UNL     1     138.744 115.148 115.772  0.00  0.00    +0.000 C 
ATOM      7  C   UNL     1     141.135 115.674 112.538  0.00  0.00    +0.000 C 
ATOM      8  C   UNL     1     142.771 115.722 111.583  0.00  0.00    +0.000 C 
ATOM      9  C   UNL     1     140.008 113.026 116.001  0.00  0.00    +0.000 C 
ATOM     10  C   UNL     1     138.644 113.727 116.284  0.00  0.00    +0.000 C 
ATOM     11  C   UNL     1     144.209 114.703 111.798  0.00  0.00    +0.000 C 
ATOM     12  C   UNL     1     138.172 116.684 114.622  0.00  0.00    +0.000 C 
ATOM     13  C   UNL     1     142.046 112.014 114.401  0.00  0.00    +0.000 C 
ATOM     14  C   UNL     1     142.390 115.356 110.075  0.00  0.00    +0.000 C 
ATOM     15  C   UNL     1     143.841 113.146 111.745  0.00  0.00    +0.000 C 
ATOM     16  C   UNL     1     139.465 112.213 113.716  0.00  0.00    +0.000 C 
ATOM     17  C   UNL     1     143.499 112.101 113.152  0.00  0.00    +0.000 C 
ATOM     18  C   UNL     1     142.574 113.841 109.604  0.00  0.00    +0.000 C 
ATOM     19  C   UNL     1     143.293 112.798 110.533  0.00  0.00    +0.000 C 
ATOM     20  C   UNL     1     145.184 114.995 110.551  0.00  0.00    +0.000 C 
ATOM     21  C   UNL     1     145.262 115.087 112.886  0.00  0.00    +0.000 C 
ATOM     22  C   UNL     1     143.088 111.361 110.120  0.00  0.00    +0.000 C 
ENDROOT
BRANCH  17  23
ATOM     23  O   UNL     1     144.770 111.896 113.770  0.00  0.00    +0.000 OA
ATOM     24  H   UNL     1     145.179 111.166 113.269  0.00  0.00    +0.000 HD
ENDBRANCH  17  23
BRANCH   9  25
ATOM     25  O   UNL     1     140.977 113.653 116.843  0.00  0.00    +0.000 OA
ATOM     26  H   UNL     1     141.655 112.983 117.045  0.00  0.00    +0.000 HD
ENDBRANCH   9  25
BRANCH   8  27
ATOM     27  O   UNL     1     143.153 117.112 111.587  0.00  0.00    +0.000 OA
ATOM     28  H   UNL     1     143.384 117.381 110.681  0.00  0.00    +0.000 HD
ENDBRANCH   8  27
BRANCH  18  29
ATOM     29  O   UNL     1     141.250 113.306 109.317  0.00  0.00    +0.000 OA
BRANCH  29  31
ATOM     30  O   UNL     1     140.372 111.868 107.813  0.00  0.00    +0.000 OA
ATOM     31  C   UNL     1     140.996 112.897 108.049  0.00  0.00    +0.000 C 
BRANCH  31  32
ATOM     32  C   UNL     1     141.680 113.717 106.950  0.00  0.00    +0.000 C 
BRANCH  32  33
ATOM     33  O   UNL     1     140.969 114.883 106.519  0.00  0.00    +0.000 OA
ATOM     34  H   UNL     1     141.358 115.632 107.009  0.00  0.00    +0.000 HD
ENDBRANCH  32  33
BRANCH  32  35
ATOM     35  C   UNL     1     142.000 112.773 105.760  0.00  0.00    +0.000 C 
BRANCH  35  36
ATOM     36  C   UNL     1     143.280 113.163 105.028  0.00  0.00    +0.000 A 
ATOM     37  C   UNL     1     144.482 112.507 105.338  0.00  0.00    +0.000 A 
ATOM     38  C   UNL     1     143.291 114.139 104.018  0.00  0.00    +0.000 A 
ATOM     39  C   UNL     1     145.667 112.837 104.676  0.00  0.00    +0.000 A 
ATOM     40  C   UNL     1     144.477 114.467 103.358  0.00  0.00    +0.000 A 
ATOM     41  C   UNL     1     145.664 113.818 103.689  0.00  0.00    +0.000 A 
ENDBRANCH  35  36
BRANCH  35  43
ATOM     42  O   UNL     1     140.935 110.489 104.379  0.00  0.00    +0.000 OA
ATOM     43  N   UNL     1     140.905 112.735 104.800  0.00  0.00    +0.000 N 
ATOM     44  C   UNL     1     140.547 111.616 104.122  0.00  0.00    +0.000 C 
ATOM     45  H   UNL     1     140.600 113.615 104.404  0.00  0.00    +0.000 HD
BRANCH  44  46
ATOM     46  O   UNL     1     139.678 111.960 103.148  0.00  0.00    +0.000 OA
BRANCH  46  47
ATOM     47  C   UNL     1     140.019 111.772 101.750  0.00  0.00    +0.000 C 
ATOM     48  C   UNL     1     139.983 110.290 101.361  0.00  0.00    +0.000 C 
ATOM     49  C   UNL     1     138.915 112.509 100.977  0.00  0.00    +0.000 C 
ATOM     50  C   UNL     1     141.367 112.419 101.416  0.00  0.00    +0.000 C 
ENDBRANCH  46  47
ENDBRANCH  44  46
ENDBRANCH  35  43
ENDBRANCH  32  35
ENDBRANCH  31  32
ENDBRANCH  29  31
ENDBRANCH  18  29
BRANCH   7  51
ATOM     51  O   UNL     1     140.856 114.526 111.958  0.00  0.00    +0.000 OA
BRANCH  51  53
ATOM     52  O   UNL     1     139.987 116.289 111.552  0.00  0.00    +0.000 OA
ATOM     53  C   UNL     1     139.873 115.119 111.205  0.00  0.00    +0.000 C 
BRANCH  53  54
ATOM     54  C   UNL     1     138.560 114.151 110.199  0.00  0.00    +0.000 A 
ATOM     55  C   UNL     1     137.920 114.621 108.970  0.00  0.00    +0.000 A 
ATOM     56  C   UNL     1     138.119 112.809 110.410  0.00  0.00    +0.000 A 
ATOM     57  C   UNL     1     137.027 113.899 108.136  0.00  0.00    +0.000 A 
ATOM     58  C   UNL     1     137.224 112.068 109.584  0.00  0.00    +0.000 A 
ATOM     59  C   UNL     1     136.677 112.611 108.447  0.00  0.00    +0.000 A 
ENDBRANCH  53  54
ENDBRANCH  51  53
ENDBRANCH   7  51
BRANCH   4  60
ATOM     60  O   UNL     1     137.999 114.438 113.443  0.00  0.00    +0.000 OA
BRANCH  60  62
ATOM     61  O   UNL     1     136.467 115.635 112.337  0.00  0.00    +0.000 OA
ATOM     62  C   UNL     1     136.716 114.719 113.117  0.00  0.00    +0.000 C 
ATOM     63  C   UNL     1     135.614 113.979 113.806  0.00  0.00    +0.000 C 
ENDBRANCH  60  62
ENDBRANCH   4  60
TORSDOF 17
ENDMDL
MODEL 4
REMARK VINA RESULT:      -5.9      2.421      7.350
REMARK  Name = 
REMARK  25 active torsions:
REMARK  status: ('A' for Active; 'I' for Inactive)
REMARK    1  A    between atoms: O_2  and  C_17
REMARK    2  A    between atoms: O_2  and  C_36
REMARK    3  A    between atoms: O_3  and  C_20
REMARK    4  A    between atoms: O_3  and  C_37
REMARK    5  A    between atoms: O_4  and  C_21
REMARK    6  A    between atoms: O_5  and  C_22
REMARK    7  A    between atoms: O_7  and  C_30
REMARK    8  A    between atoms: O_8  and  C_31
REMARK    9  A    between atoms: O_8  and  C_39
REMARK   10  A    between atoms: O_12  and  C_41
REMARK   11  A    between atoms: O_13  and  C_51
REMARK   12  A    between atoms: O_13  and  C_55
REMARK   13  A    between atoms: N_15  and  C_44
REMARK   14  A    between atoms: C_18  and  C_29
REMARK   15  A    between atoms: C_24  and  C_33
REMARK   16  A    between atoms: C_24  and  C_34
REMARK   17  A    between atoms: C_32  and  C_35
REMARK   18  A    between atoms: C_36  and  C_38
REMARK   19  A    between atoms: C_37  and  C_40
REMARK   20  A    between atoms: C_39  and  C_41
REMARK   21  A    between atoms: C_41  and  C_44
REMARK   22  A    between atoms: C_44  and  C_48
REMARK   23  A    between atoms: C_55  and  C_56
REMARK   24  A    between atoms: C_55  and  C_57
REMARK   25  A    between atoms: C_55  and  C_58
REMARK                            x       y       z     vdW  Elec       q    Type
REMARK                         _______ _______ _______ _____ _____    ______ ____
ROOT
ATOM      1  O   UNL     1     141.128 111.941 105.242  0.00  0.00    +0.000 OA
ATOM      2  O   UNL     1     144.525 117.347 107.338  0.00  0.00    +0.000 OA
ATOM      3  C   UNL     1     144.260 113.178 105.958  0.00  0.00    +0.000 C 
ATOM      4  C   UNL     1     143.039 112.235 106.165  0.00  0.00    +0.000 C 
ATOM      5  C   UNL     1     143.919 114.755 106.958  0.00  0.00    +0.000 C 
ATOM      6  C   UNL     1     141.972 113.114 105.393  0.00  0.00    +0.000 C 
ATOM      7  C   UNL     1     145.881 112.264 106.070  0.00  0.00    +0.000 C 
ATOM      8  C   UNL     1     147.752 112.553 106.004  0.00  0.00    +0.000 C 
ATOM      9  C   UNL     1     142.596 115.336 106.305  0.00  0.00    +0.000 C 
ATOM     10  C   UNL     1     141.429 114.315 106.138  0.00  0.00    +0.000 C 
ATOM     11  C   UNL     1     148.639 114.089 106.074  0.00  0.00    +0.000 C 
ATOM     12  C   UNL     1     142.392 111.167 105.196  0.00  0.00    +0.000 C 
ATOM     13  C   UNL     1     145.063 116.223 107.233  0.00  0.00    +0.000 C 
ATOM     14  C   UNL     1     148.336 111.833 107.306  0.00  0.00    +0.000 C 
ATOM     15  C   UNL     1     148.216 114.956 107.351  0.00  0.00    +0.000 C 
ATOM     16  C   UNL     1     143.480 114.439 108.449  0.00  0.00    +0.000 C 
ATOM     17  C   UNL     1     146.976 116.241 107.382  0.00  0.00    +0.000 C 
ATOM     18  C   UNL     1     148.606 112.729 108.599  0.00  0.00    +0.000 C 
ATOM     19  C   UNL     1     148.490 114.294 108.525  0.00  0.00    +0.000 C 
ATOM     20  C   UNL     1     150.198 113.726 106.252  0.00  0.00    +0.000 C 
ATOM     21  C   UNL     1     148.841 114.915 104.764  0.00  0.00    +0.000 C 
ATOM     22  C   UNL     1     148.427 114.973 109.871  0.00  0.00    +0.000 C 
ENDROOT
BRANCH  17  23
ATOM     23  O   UNL     1     147.573 117.339 106.692  0.00  0.00    +0.000 OA
ATOM     24  H   UNL     1     148.308 116.948 106.184  0.00  0.00    +0.000 HD
ENDBRANCH  17  23
BRANCH   9  25
ATOM     25  O   UNL     1     142.908 115.824 105.000  0.00  0.00    +0.000 OA
ATOM     26  H   UNL     1     142.252 115.443 104.389  0.00  0.00    +0.000 HD
ENDBRANCH   9  25
BRANCH   8  27
ATOM     27  O   UNL     1     148.199 111.783 104.870  0.00  0.00    +0.000 OA
ATOM     28  H   UNL     1     148.192 112.349 104.078  0.00  0.00    +0.000 HD
ENDBRANCH   8  27
BRANCH  18  29
ATOM     29  O   UNL     1     147.686 112.289 109.639  0.00  0.00    +0.000 OA
BRANCH  29  31
ATOM     30  O   UNL     1     149.357 111.416 110.883  0.00  0.00    +0.000 OA
ATOM     31  C   UNL     1     148.216 111.861 110.812  0.00  0.00    +0.000 C 
BRANCH  31  32
ATOM     32  C   UNL     1     147.240 111.820 111.993  0.00  0.00    +0.000 C 
BRANCH  32  33
ATOM     33  O   UNL     1     145.920 111.356 111.685  0.00  0.00    +0.000 OA
ATOM     34  H   UNL     1     145.325 111.791 112.325  0.00  0.00    +0.000 HD
ENDBRANCH  32  33
BRANCH  32  35
ATOM     35  C   UNL     1     147.210 113.224 112.654  0.00  0.00    +0.000 C 
BRANCH  35  36
ATOM     36  C   UNL     1     148.158 113.333 113.843  0.00  0.00    +0.000 A 
ATOM     37  C   UNL     1     148.695 114.584 114.188  0.00  0.00    +0.000 A 
ATOM     38  C   UNL     1     148.486 112.221 114.637  0.00  0.00    +0.000 A 
ATOM     39  C   UNL     1     149.557 114.714 115.280  0.00  0.00    +0.000 A 
ATOM     40  C   UNL     1     149.348 112.354 115.727  0.00  0.00    +0.000 A 
ATOM     41  C   UNL     1     149.886 113.599 116.046  0.00  0.00    +0.000 A 
ENDBRANCH  35  36
BRANCH  35  43
ATOM     42  O   UNL     1     145.573 115.404 111.746  0.00  0.00    +0.000 OA
ATOM     43  N   UNL     1     145.866 113.579 113.091  0.00  0.00    +0.000 N 
ATOM     44  C   UNL     1     145.218 114.695 112.673  0.00  0.00    +0.000 C 
ATOM     45  H   UNL     1     145.526 113.157 113.945  0.00  0.00    +0.000 HD
BRANCH  44  46
ATOM     46  O   UNL     1     144.116 114.864 113.434  0.00  0.00    +0.000 OA
BRANCH  46  47
ATOM     47  C   UNL     1     142.791 114.706 112.865  0.00  0.00    +0.000 C 
ATOM     48  C   UNL     1     142.712 113.466 111.969  0.00  0.00    +0.000 C 
ATOM     49  C   UNL     1     141.870 114.495 114.077  0.00  0.00    +0.000 C 
ATOM     50  C   UNL     1     142.348 115.974 112.128  0.00  0.00    +0.000 C 
ENDBRANCH  46  47
ENDBRANCH  44  46
ENDBRANCH  35  43
ENDBRANCH  32  35
ENDBRANCH  31  32
ENDBRANCH  29  31
ENDBRANCH  18  29
BRANCH   7  51
ATOM     51  O   UNL     1     145.893 112.619 107.338  0.00  0.00    +0.000 OA
BRANCH  51  53
ATOM     52  O   UNL     1     145.192 111.546 108.882  0.00  0.00    +0.000 OA
ATOM     53  C   UNL     1     145.531 111.351 107.720  0.00  0.00    +0.000 C 
BRANCH  53  54
ATOM     54  C   UNL     1     145.864 109.779 106.676  0.00  0.00    +0.000 A 
ATOM     55  C   UNL     1     146.815 108.720 107.019  0.00  0.00    +0.000 A 
ATOM     56  C   UNL     1     145.161 109.344 105.511  0.00  0.00    +0.000 A 
ATOM     57  C   UNL     1     147.018 107.494 106.337  0.00  0.00    +0.000 A 
ATOM     58  C   UNL     1     145.350 108.116 104.813  0.00  0.00    +0.000 A 
ATOM     59  C   UNL     1     146.277 107.189 105.223  0.00  0.00    +0.000 A 
ENDBRANCH  53  54
ENDBRANCH  51  53
ENDBRANCH   7  51
BRANCH   4  60
ATOM     60  O   UNL     1     142.736 112.023 107.564  0.00  0.00    +0.000 OA
BRANCH  60  62
ATOM     61  O   UNL     1     140.733 111.419 108.357  0.00  0.00    +0.000 OA
ATOM     62  C   UNL     1     141.869 111.090 108.022  0.00  0.00    +0.000 C 
ATOM     63  C   UNL     1     142.351 109.688 108.222  0.00  0.00    +0.000 C 
ENDBRANCH  60  62
ENDBRANCH   4  60
TORSDOF 17
ENDMDL
MODEL 5
REMARK VINA RESULT:      -5.7     21.122     25.399
REMARK  Name = 
REMARK  25 active torsions:
REMARK  status: ('A' for Active; 'I' for Inactive)
REMARK    1  A    between atoms: O_2  and  C_17
REMARK    2  A    between atoms: O_2  and  C_36
REMARK    3  A    between atoms: O_3  and  C_20
REMARK    4  A    between atoms: O_3  and  C_37
REMARK    5  A    between atoms: O_4  and  C_21
REMARK    6  A    between atoms: O_5  and  C_22
REMARK    7  A    between atoms: O_7  and  C_30
REMARK    8  A    between atoms: O_8  and  C_31
REMARK    9  A    between atoms: O_8  and  C_39
REMARK   10  A    between atoms: O_12  and  C_41
REMARK   11  A    between atoms: O_13  and  C_51
REMARK   12  A    between atoms: O_13  and  C_55
REMARK   13  A    between atoms: N_15  and  C_44
REMARK   14  A    between atoms: C_18  and  C_29
REMARK   15  A    between atoms: C_24  and  C_33
REMARK   16  A    between atoms: C_24  and  C_34
REMARK   17  A    between atoms: C_32  and  C_35
REMARK   18  A    between atoms: C_36  and  C_38
REMARK   19  A    between atoms: C_37  and  C_40
REMARK   20  A    between atoms: C_39  and  C_41
REMARK   21  A    between atoms: C_41  and  C_44
REMARK   22  A    between atoms: C_44  and  C_48
REMARK   23  A    between atoms: C_55  and  C_56
REMARK   24  A    between atoms: C_55  and  C_57
REMARK   25  A    between atoms: C_55  and  C_58
REMARK                            x       y       z     vdW  Elec       q    Type
REMARK                         _______ _______ _______ _____ _____    ______ ____
ROOT
ATOM      1  O   UNL     1     137.023 130.029  85.563  0.00  0.00    +0.000 OA
ATOM      2  O   UNL     1     135.056 131.530  91.811  0.00  0.00    +0.000 OA
ATOM      3  C   UNL     1     138.109 130.954  88.697  0.00  0.00    +0.000 C 
ATOM      4  C   UNL     1     137.985 129.993  87.477  0.00  0.00    +0.000 C 
ATOM      5  C   UNL     1     136.619 130.616  89.822  0.00  0.00    +0.000 C 
ATOM      6  C   UNL     1     136.694 130.650  86.836  0.00  0.00    +0.000 C 
ATOM      7  C   UNL     1     139.852 131.031  89.354  0.00  0.00    +0.000 C 
ATOM      8  C   UNL     1     140.881 131.824  90.732  0.00  0.00    +0.000 C 
ATOM      9  C   UNL     1     135.371 130.967  88.910  0.00  0.00    +0.000 C 
ATOM     10  C   UNL     1     135.373 130.314  87.494  0.00  0.00    +0.000 C 
ATOM     11  C   UNL     1     140.318 132.673  92.186  0.00  0.00    +0.000 C 
ATOM     12  C   UNL     1     138.439 130.179  85.974  0.00  0.00    +0.000 C 
ATOM     13  C   UNL     1     136.259 131.349  91.518  0.00  0.00    +0.000 C 
ATOM     14  C   UNL     1     141.685 130.618  91.406  0.00  0.00    +0.000 C 
ATOM     15  C   UNL     1     139.277 131.789  93.020  0.00  0.00    +0.000 C 
ATOM     16  C   UNL     1     136.427 129.071  90.122  0.00  0.00    +0.000 C 
ATOM     17  C   UNL     1     137.498 131.864  92.889  0.00  0.00    +0.000 C 
ATOM     18  C   UNL     1     141.078 129.961  92.729  0.00  0.00    +0.000 C 
ATOM     19  C   UNL     1     139.844 130.612  93.450  0.00  0.00    +0.000 C 
ATOM     20  C   UNL     1     141.604 132.894  93.131  0.00  0.00    +0.000 C 
ATOM     21  C   UNL     1     139.957 134.190  92.093  0.00  0.00    +0.000 C 
ATOM     22  C   UNL     1     139.175 129.713  94.460  0.00  0.00    +0.000 C 
ENDROOT
BRANCH  17  23
ATOM     23  O   UNL     1     137.138 133.091  93.525  0.00  0.00    +0.000 OA
ATOM     24  H   UNL     1     136.907 132.842  94.440  0.00  0.00    +0.000 HD
ENDBRANCH  17  23
BRANCH   9  25
ATOM     25  O   UNL     1     135.333 132.381  88.712  0.00  0.00    +0.000 OA
ATOM     26  H   UNL     1     134.619 132.729  89.276  0.00  0.00    +0.000 HD
ENDBRANCH   9  25
BRANCH   8  27
ATOM     27  O   UNL     1     141.853 132.632  90.041  0.00  0.00    +0.000 OA
ATOM     28  H   UNL     1     141.707 133.568  90.266  0.00  0.00    +0.000 HD
ENDBRANCH   8  27
BRANCH  18  29
ATOM     29  O   UNL     1     140.702 128.591  92.407  0.00  0.00    +0.000 OA
BRANCH  29  31
ATOM     30  O   UNL     1     141.040 126.413  92.901  0.00  0.00    +0.000 OA
ATOM     31  C   UNL     1     141.352 127.589  93.052  0.00  0.00    +0.000 C 
BRANCH  31  32
ATOM     32  C   UNL     1     142.379 128.044  94.095  0.00  0.00    +0.000 C 
BRANCH  32  33
ATOM     33  O   UNL     1     143.751 127.847  93.734  0.00  0.00    +0.000 OA
ATOM     34  H   UNL     1     144.166 128.731  93.758  0.00  0.00    +0.000 HD
ENDBRANCH  32  33
BRANCH  32  35
ATOM     35  C   UNL     1     142.042 127.360  95.447  0.00  0.00    +0.000 C 
BRANCH  35  36
ATOM     36  C   UNL     1     142.363 128.243  96.648  0.00  0.00    +0.000 A 
ATOM     37  C   UNL     1     141.329 128.940  97.293  0.00  0.00    +0.000 A 
ATOM     38  C   UNL     1     143.667 128.355  97.160  0.00  0.00    +0.000 A 
ATOM     39  C   UNL     1     141.593 129.746  98.402  0.00  0.00    +0.000 A 
ATOM     40  C   UNL     1     143.929 129.163  98.269  0.00  0.00    +0.000 A 
ATOM     41  C   UNL     1     142.893 129.860  98.887  0.00  0.00    +0.000 A 
ENDBRANCH  35  36
BRANCH  35  43
ATOM     42  O   UNL     1     140.951 124.802  96.169  0.00  0.00    +0.000 OA
ATOM     43  N   UNL     1     142.747 126.094  95.594  0.00  0.00    +0.000 N 
ATOM     44  C   UNL     1     142.154 124.960  96.044  0.00  0.00    +0.000 C 
ATOM     45  H   UNL     1     143.756 126.125  95.653  0.00  0.00    +0.000 HD
BRANCH  44  46
ATOM     46  O   UNL     1     143.112 124.043  96.297  0.00  0.00    +0.000 OA
BRANCH  46  47
ATOM     47  C   UNL     1     143.592 123.826  97.649  0.00  0.00    +0.000 C 
ATOM     48  C   UNL     1     143.211 122.434  98.161  0.00  0.00    +0.000 C 
ATOM     49  C   UNL     1     145.122 123.906  97.536  0.00  0.00    +0.000 C 
ATOM     50  C   UNL     1     143.112 124.935  98.592  0.00  0.00    +0.000 C 
ENDBRANCH  46  47
ENDBRANCH  44  46
ENDBRANCH  35  43
ENDBRANCH  32  35
ENDBRANCH  31  32
ENDBRANCH  29  31
ENDBRANCH  18  29
BRANCH   7  51
ATOM     51  O   UNL     1     139.480 130.094  90.201  0.00  0.00    +0.000 OA
BRANCH  51  53
ATOM     52  O   UNL     1     140.803 129.865  88.708  0.00  0.00    +0.000 OA
ATOM     53  C   UNL     1     140.231 129.158  89.531  0.00  0.00    +0.000 C 
BRANCH  53  54
ATOM     54  C   UNL     1     140.036 127.266  89.754  0.00  0.00    +0.000 A 
ATOM     55  C   UNL     1     138.892 126.599  90.377  0.00  0.00    +0.000 A 
ATOM     56  C   UNL     1     140.886 126.238  89.241  0.00  0.00    +0.000 A 
ATOM     57  C   UNL     1     138.655 125.204  90.468  0.00  0.00    +0.000 A 
ATOM     58  C   UNL     1     140.665 124.832  89.322  0.00  0.00    +0.000 A 
ATOM     59  C   UNL     1     139.550 124.313  89.935  0.00  0.00    +0.000 A 
ENDBRANCH  53  54
ENDBRANCH  51  53
ENDBRANCH   7  51
BRANCH   4  60
ATOM     60  O   UNL     1     137.814 128.613  87.877  0.00  0.00    +0.000 OA
BRANCH  60  62
ATOM     61  O   UNL     1     139.004 127.333  86.480  0.00  0.00    +0.000 OA
ATOM     62  C   UNL     1     137.932 127.558  87.037  0.00  0.00    +0.000 C 
ATOM     63  C   UNL     1     136.715 126.751  86.710  0.00  0.00    +0.000 C 
ENDBRANCH  60  62
ENDBRANCH   4  60
TORSDOF 17
ENDMDL
MODEL 6
REMARK VINA RESULT:      -5.7      4.174      7.571
REMARK  Name = 
REMARK  25 active torsions:
REMARK  status: ('A' for Active; 'I' for Inactive)
REMARK    1  A    between atoms: O_2  and  C_17
REMARK    2  A    between atoms: O_2  and  C_36
REMARK    3  A    between atoms: O_3  and  C_20
REMARK    4  A    between atoms: O_3  and  C_37
REMARK    5  A    between atoms: O_4  and  C_21
REMARK    6  A    between atoms: O_5  and  C_22
REMARK    7  A    between atoms: O_7  and  C_30
REMARK    8  A    between atoms: O_8  and  C_31
REMARK    9  A    between atoms: O_8  and  C_39
REMARK   10  A    between atoms: O_12  and  C_41
REMARK   11  A    between atoms: O_13  and  C_51
REMARK   12  A    between atoms: O_13  and  C_55
REMARK   13  A    between atoms: N_15  and  C_44
REMARK   14  A    between atoms: C_18  and  C_29
REMARK   15  A    between atoms: C_24  and  C_33
REMARK   16  A    between atoms: C_24  and  C_34
REMARK   17  A    between atoms: C_32  and  C_35
REMARK   18  A    between atoms: C_36  and  C_38
REMARK   19  A    between atoms: C_37  and  C_40
REMARK   20  A    between atoms: C_39  and  C_41
REMARK   21  A    between atoms: C_41  and  C_44
REMARK   22  A    between atoms: C_44  and  C_48
REMARK   23  A    between atoms: C_55  and  C_56
REMARK   24  A    between atoms: C_55  and  C_57
REMARK   25  A    between atoms: C_55  and  C_58
REMARK                            x       y       z     vdW  Elec       q    Type
REMARK                         _______ _______ _______ _____ _____    ______ ____
ROOT
ATOM      1  O   UNL     1     141.017 112.066 104.942  0.00  0.00    +0.000 OA
ATOM      2  O   UNL     1     144.566 117.120 107.590  0.00  0.00    +0.000 OA
ATOM      3  C   UNL     1     144.195 113.273 105.489  0.00  0.00    +0.000 C 
ATOM      4  C   UNL     1     143.025 112.259 105.663  0.00  0.00    +0.000 C 
ATOM      5  C   UNL     1     143.959 114.621 106.804  0.00  0.00    +0.000 C 
ATOM      6  C   UNL     1     141.854 113.224 105.208  0.00  0.00    +0.000 C 
ATOM      7  C   UNL     1     145.831 112.419 105.227  0.00  0.00    +0.000 C 
ATOM      8  C   UNL     1     147.673 112.789 104.988  0.00  0.00    +0.000 C 
ATOM      9  C   UNL     1     142.554 115.260 106.440  0.00  0.00    +0.000 C 
ATOM     10  C   UNL     1     141.391 114.243 106.227  0.00  0.00    +0.000 C 
ATOM     11  C   UNL     1     148.537 114.320 105.238  0.00  0.00    +0.000 C 
ATOM     12  C   UNL     1     142.276 111.365 104.595  0.00  0.00    +0.000 C 
ATOM     13  C   UNL     1     145.105 116.058 107.209  0.00  0.00    +0.000 C 
ATOM     14  C   UNL     1     148.430 111.864 106.048  0.00  0.00    +0.000 C 
ATOM     15  C   UNL     1     148.267 114.917 106.698  0.00  0.00    +0.000 C 
ATOM     16  C   UNL     1     143.719 114.018 108.251  0.00  0.00    +0.000 C 
ATOM     17  C   UNL     1     147.021 116.123 107.124  0.00  0.00    +0.000 C 
ATOM     18  C   UNL     1     148.849 112.515 107.445  0.00  0.00    +0.000 C 
ATOM     19  C   UNL     1     148.699 114.060 107.683  0.00  0.00    +0.000 C 
ATOM     20  C   UNL     1     150.111 113.993 105.152  0.00  0.00    +0.000 C 
ATOM     21  C   UNL     1     148.557 115.382 104.093  0.00  0.00    +0.000 C 
ATOM     22  C   UNL     1     148.798 114.474 109.130  0.00  0.00    +0.000 C 
ENDROOT
BRANCH  17  23
ATOM     23  O   UNL     1     147.506 117.354 106.586  0.00  0.00    +0.000 OA
ATOM     24  H   UNL     1     148.177 117.093 105.927  0.00  0.00    +0.000 HD
ENDBRANCH  17  23
BRANCH   9  25
ATOM     25  O   UNL     1     142.689 115.994 105.222  0.00  0.00    +0.000 OA
ATOM     26  H   UNL     1     141.902 115.798 104.682  0.00  0.00    +0.000 HD
ENDBRANCH   9  25
BRANCH   8  27
ATOM     27  O   UNL     1     147.983 112.262 103.683  0.00  0.00    +0.000 OA
ATOM     28  H   UNL     1     148.453 112.941 103.168  0.00  0.00    +0.000 HD
ENDBRANCH   8  27
BRANCH  18  29
ATOM     29  O   UNL     1     148.076 111.853 108.488  0.00  0.00    +0.000 OA
BRANCH  29  31
ATOM     30  O   UNL     1     148.626 109.739 109.065  0.00  0.00    +0.000 OA
ATOM     31  C   UNL     1     148.715 110.945 109.268  0.00  0.00    +0.000 C 
BRANCH  31  32
ATOM     32  C   UNL     1     149.412 111.525 110.504  0.00  0.00    +0.000 C 
BRANCH  32  33
ATOM     33  O   UNL     1     150.689 110.955 110.816  0.00  0.00    +0.000 OA
ATOM     34  H   UNL     1     150.794 111.042 111.782  0.00  0.00    +0.000 HD
ENDBRANCH  32  33
BRANCH  32  35
ATOM     35  C   UNL     1     148.437 111.428 111.708  0.00  0.00    +0.000 C 
BRANCH  35  36
ATOM     36  C   UNL     1     147.906 112.789 112.145  0.00  0.00    +0.000 A 
ATOM     37  C   UNL     1     146.736 113.298 111.557  0.00  0.00    +0.000 A 
ATOM     38  C   UNL     1     148.532 113.543 113.152  0.00  0.00    +0.000 A 
ATOM     39  C   UNL     1     146.222 114.537 111.947  0.00  0.00    +0.000 A 
ATOM     40  C   UNL     1     148.016 114.781 113.539  0.00  0.00    +0.000 A 
ATOM     41  C   UNL     1     146.864 115.279 112.934  0.00  0.00    +0.000 A 
ENDBRANCH  35  36
BRANCH  35  43
ATOM     42  O   UNL     1     147.573 109.065 113.097  0.00  0.00    +0.000 OA
ATOM     43  N   UNL     1     149.064 110.780 112.852  0.00  0.00    +0.000 N 
ATOM     44  C   UNL     1     148.516 109.724 113.503  0.00  0.00    +0.000 C 
ATOM     45  H   UNL     1     149.764 111.305 113.361  0.00  0.00    +0.000 HD
BRANCH  44  46
ATOM     46  O   UNL     1     149.204 109.517 114.646  0.00  0.00    +0.000 OA
BRANCH  46  47
ATOM     47  C   UNL     1     148.899 110.279 115.843  0.00  0.00    +0.000 C 
ATOM     48  C   UNL     1     147.549 110.993 115.723  0.00  0.00    +0.000 C 
ATOM     49  C   UNL     1     148.801 109.228 116.959  0.00  0.00    +0.000 C 
ATOM     50  C   UNL     1     150.033 111.252 116.184  0.00  0.00    +0.000 C 
ENDBRANCH  46  47
ENDBRANCH  44  46
ENDBRANCH  35  43
ENDBRANCH  32  35
ENDBRANCH  31  32
ENDBRANCH  29  31
ENDBRANCH  18  29
BRANCH   7  51
ATOM     51  O   UNL     1     145.999 112.533 106.528  0.00  0.00    +0.000 OA
BRANCH  51  53
ATOM     52  O   UNL     1     145.813 110.801 105.529  0.00  0.00    +0.000 OA
ATOM     53  C   UNL     1     145.801 111.184 106.694  0.00  0.00    +0.000 C 
BRANCH  53  54
ATOM     54  C   UNL     1     145.319 110.367 108.359  0.00  0.00    +0.000 A 
ATOM     55  C   UNL     1     145.339 108.930 108.634  0.00  0.00    +0.000 A 
ATOM     56  C   UNL     1     145.008 111.021 109.590  0.00  0.00    +0.000 A 
ATOM     57  C   UNL     1     145.095 108.289 109.876  0.00  0.00    +0.000 A 
ATOM     58  C   UNL     1     144.760 110.395 110.847  0.00  0.00    +0.000 A 
ATOM     59  C   UNL     1     144.803 109.030 110.992  0.00  0.00    +0.000 A 
ENDBRANCH  53  54
ENDBRANCH  51  53
ENDBRANCH   7  51
BRANCH   4  60
ATOM     60  O   UNL     1     142.907 111.780 107.023  0.00  0.00    +0.000 OA
BRANCH  60  62
ATOM     61  O   UNL     1     142.300 109.627 106.986  0.00  0.00    +0.000 OA
ATOM     62  C   UNL     1     142.097 110.765 107.403  0.00  0.00    +0.000 C 
ATOM     63  C   UNL     1     140.893 111.071 108.237  0.00  0.00    +0.000 C 
ENDBRANCH  60  62
ENDBRANCH   4  60
TORSDOF 17
ENDMDL
MODEL 7
REMARK VINA RESULT:      -5.7     27.384     30.900
REMARK  Name = 
REMARK  25 active torsions:
REMARK  status: ('A' for Active; 'I' for Inactive)
REMARK    1  A    between atoms: O_2  and  C_17
REMARK    2  A    between atoms: O_2  and  C_36
REMARK    3  A    between atoms: O_3  and  C_20
REMARK    4  A    between atoms: O_3  and  C_37
REMARK    5  A    between atoms: O_4  and  C_21
REMARK    6  A    between atoms: O_5  and  C_22
REMARK    7  A    between atoms: O_7  and  C_30
REMARK    8  A    between atoms: O_8  and  C_31
REMARK    9  A    between atoms: O_8  and  C_39
REMARK   10  A    between atoms: O_12  and  C_41
REMARK   11  A    between atoms: O_13  and  C_51
REMARK   12  A    between atoms: O_13  and  C_55
REMARK   13  A    between atoms: N_15  and  C_44
REMARK   14  A    between atoms: C_18  and  C_29
REMARK   15  A    between atoms: C_24  and  C_33
REMARK   16  A    between atoms: C_24  and  C_34
REMARK   17  A    between atoms: C_32  and  C_35
REMARK   18  A    between atoms: C_36  and  C_38
REMARK   19  A    between atoms: C_37  and  C_40
REMARK   20  A    between atoms: C_39  and  C_41
REMARK   21  A    between atoms: C_41  and  C_44
REMARK   22  A    between atoms: C_44  and  C_48
REMARK   23  A    between atoms: C_55  and  C_56
REMARK   24  A    between atoms: C_55  and  C_57
REMARK   25  A    between atoms: C_55  and  C_58
REMARK                            x       y       z     vdW  Elec       q    Type
REMARK                         _______ _______ _______ _____ _____    ______ ____
ROOT
ATOM      1  O   UNL     1     155.254 132.164 127.021  0.00  0.00    +0.000 OA
ATOM      2  O   UNL     1     148.672 132.819 125.838  0.00  0.00    +0.000 OA
ATOM      3  C   UNL     1     152.760 134.398 126.216  0.00  0.00    +0.000 C 
ATOM      4  C   UNL     1     153.877 133.802 127.123  0.00  0.00    +0.000 C 
ATOM      5  C   UNL     1     151.157 133.472 126.632  0.00  0.00    +0.000 C 
ATOM      6  C   UNL     1     153.926 132.364 126.464  0.00  0.00    +0.000 C 
ATOM      7  C   UNL     1     152.839 136.258 126.135  0.00  0.00    +0.000 C 
ATOM      8  C   UNL     1     151.940 137.747 125.385  0.00  0.00    +0.000 C 
ATOM      9  C   UNL     1     151.486 131.965 126.265  0.00  0.00    +0.000 C 
ATOM     10  C   UNL     1     152.819 131.409 126.854  0.00  0.00    +0.000 C 
ATOM     11  C   UNL     1     150.343 137.803 124.612  0.00  0.00    +0.000 C 
ATOM     12  C   UNL     1     155.427 133.628 126.862  0.00  0.00    +0.000 C 
ATOM     13  C   UNL     1     149.422 133.809 125.982  0.00  0.00    +0.000 C 
ATOM     14  C   UNL     1     151.697 138.752 126.604  0.00  0.00    +0.000 C 
ATOM     15  C   UNL     1     149.211 137.175 125.552  0.00  0.00    +0.000 C 
ATOM     16  C   UNL     1     150.881 133.414 128.193  0.00  0.00    +0.000 C 
ATOM     17  C   UNL     1     148.626 135.488 125.505  0.00  0.00    +0.000 C 
ATOM     18  C   UNL     1     150.275 138.716 127.330  0.00  0.00    +0.000 C 
ATOM     19  C   UNL     1     149.096 137.865 126.736  0.00  0.00    +0.000 C 
ATOM     20  C   UNL     1     149.971 139.357 124.408  0.00  0.00    +0.000 C 
ATOM     21  C   UNL     1     150.213 137.434 123.099  0.00  0.00    +0.000 C 
ATOM     22  C   UNL     1     147.949 137.648 127.692  0.00  0.00    +0.000 C 
ENDROOT
BRANCH  17  23
ATOM     23  O   UNL     1     147.842 135.407 124.315  0.00  0.00    +0.000 OA
ATOM     24  H   UNL     1     148.463 135.611 123.590  0.00  0.00    +0.000 HD
ENDBRANCH  17  23
BRANCH   9  25
ATOM     25  O   UNL     1     151.584 131.852 124.844  0.00  0.00    +0.000 OA
ATOM     26  H   UNL     1     152.313 131.234 124.657  0.00  0.00    +0.000 HD
ENDBRANCH   9  25
BRANCH   8  27
ATOM     27  O   UNL     1     152.918 138.367 124.527  0.00  0.00    +0.000 OA
ATOM     28  H   UNL     1     153.752 138.473 125.019  0.00  0.00    +0.000 HD
ENDBRANCH   8  27
BRANCH  18  29
ATOM     29  O   UNL     1     150.489 138.243 128.692  0.00  0.00    +0.000 OA
BRANCH  29  31
ATOM     30  O   UNL     1     151.090 140.257 129.519  0.00  0.00    +0.000 OA
ATOM     31  C   UNL     1     150.545 139.171 129.680  0.00  0.00    +0.000 C 
BRANCH  31  32
ATOM     32  C   UNL     1     150.028 138.700 131.045  0.00  0.00    +0.000 C 
BRANCH  32  33
ATOM     33  O   UNL     1     148.848 137.890 131.011  0.00  0.00    +0.000 OA
ATOM     34  H   UNL     1     149.039 137.112 131.568  0.00  0.00    +0.000 HD
ENDBRANCH  32  33
BRANCH  32  35
ATOM     35  C   UNL     1     149.839 139.944 131.953  0.00  0.00    +0.000 C 
BRANCH  35  36
ATOM     36  C   UNL     1     150.788 139.951 133.146  0.00  0.00    +0.000 A 
ATOM     37  C   UNL     1     150.786 138.868 134.040  0.00  0.00    +0.000 A 
ATOM     38  C   UNL     1     151.701 140.997 133.363  0.00  0.00    +0.000 A 
ATOM     39  C   UNL     1     151.653 138.844 135.135  0.00  0.00    +0.000 A 
ATOM     40  C   UNL     1     152.567 140.970 134.459  0.00  0.00    +0.000 A 
ATOM     41  C   UNL     1     152.540 139.896 135.345  0.00  0.00    +0.000 A 
ENDBRANCH  35  36
BRANCH  35  43
ATOM     42  O   UNL     1     147.630 141.344 130.761  0.00  0.00    +0.000 OA
ATOM     43  N   UNL     1     148.470 140.043 132.443  0.00  0.00    +0.000 N 
ATOM     44  C   UNL     1     147.524 140.820 131.857  0.00  0.00    +0.000 C 
ATOM     45  H   UNL     1     148.296 139.773 133.402  0.00  0.00    +0.000 HD
BRANCH  44  46
ATOM     46  O   UNL     1     146.453 140.886 132.676  0.00  0.00    +0.000 OA
BRANCH  46  47
ATOM     47  C   UNL     1     146.009 142.158 133.216  0.00  0.00    +0.000 C 
ATOM     48  C   UNL     1     145.132 142.915 132.213  0.00  0.00    +0.000 C 
ATOM     49  C   UNL     1     145.152 141.787 134.435  0.00  0.00    +0.000 C 
ATOM     50  C   UNL     1     147.197 143.004 133.690  0.00  0.00    +0.000 C 
ENDBRANCH  46  47
ENDBRANCH  44  46
ENDBRANCH  35  43
ENDBRANCH  32  35
ENDBRANCH  31  32
ENDBRANCH  29  31
ENDBRANCH  18  29
BRANCH   7  51
ATOM     51  O   UNL     1     151.960 136.250 127.116  0.00  0.00    +0.000 OA
BRANCH  51  53
ATOM     52  O   UNL     1     153.849 136.918 127.245  0.00  0.00    +0.000 OA
ATOM     53  C   UNL     1     152.914 136.684 128.004  0.00  0.00    +0.000 C 
BRANCH  53  54
ATOM     54  C   UNL     1     152.743 136.561 129.908  0.00  0.00    +0.000 A 
ATOM     55  C   UNL     1     151.821 135.675 130.620  0.00  0.00    +0.000 A 
ATOM     56  C   UNL     1     153.558 137.192 130.897  0.00  0.00    +0.000 A 
ATOM     57  C   UNL     1     151.735 135.472 132.021  0.00  0.00    +0.000 A 
ATOM     58  C   UNL     1     153.487 137.001 132.308  0.00  0.00    +0.000 A 
ATOM     59  C   UNL     1     152.576 136.141 132.872  0.00  0.00    +0.000 A 
ENDBRANCH  53  54
ENDBRANCH  51  53
ENDBRANCH   7  51
BRANCH   4  60
ATOM     60  O   UNL     1     153.510 133.803 128.523  0.00  0.00    +0.000 OA
BRANCH  60  62
ATOM     61  O   UNL     1     154.029 132.218 130.014  0.00  0.00    +0.000 OA
ATOM     62  C   UNL     1     154.289 133.310 129.514  0.00  0.00    +0.000 C 
ATOM     63  C   UNL     1     155.390 134.161 130.063  0.00  0.00    +0.000 C 
ENDBRANCH  60  62
ENDBRANCH   4  60
TORSDOF 17
ENDMDL
MODEL 8
REMARK VINA RESULT:      -5.7      2.621      6.234
REMARK  Name = 
REMARK  25 active torsions:
REMARK  status: ('A' for Active; 'I' for Inactive)
REMARK    1  A    between atoms: O_2  and  C_17
REMARK    2  A    between atoms: O_2  and  C_36
REMARK    3  A    between atoms: O_3  and  C_20
REMARK    4  A    between atoms: O_3  and  C_37
REMARK    5  A    between atoms: O_4  and  C_21
REMARK    6  A    between atoms: O_5  and  C_22
REMARK    7  A    between atoms: O_7  and  C_30
REMARK    8  A    between atoms: O_8  and  C_31
REMARK    9  A    between atoms: O_8  and  C_39
REMARK   10  A    between atoms: O_12  and  C_41
REMARK   11  A    between atoms: O_13  and  C_51
REMARK   12  A    between atoms: O_13  and  C_55
REMARK   13  A    between atoms: N_15  and  C_44
REMARK   14  A    between atoms: C_18  and  C_29
REMARK   15  A    between atoms: C_24  and  C_33
REMARK   16  A    between atoms: C_24  and  C_34
REMARK   17  A    between atoms: C_32  and  C_35
REMARK   18  A    between atoms: C_36  and  C_38
REMARK   19  A    between atoms: C_37  and  C_40
REMARK   20  A    between atoms: C_39  and  C_41
REMARK   21  A    between atoms: C_41  and  C_44
REMARK   22  A    between atoms: C_44  and  C_48
REMARK   23  A    between atoms: C_55  and  C_56
REMARK   24  A    between atoms: C_55  and  C_57
REMARK   25  A    between atoms: C_55  and  C_58
REMARK                            x       y       z     vdW  Elec       q    Type
REMARK                         _______ _______ _______ _____ _____    ______ ____
ROOT
ATOM      1  O   UNL     1     141.576 111.765 104.751  0.00  0.00    +0.000 OA
ATOM      2  O   UNL     1     145.709 116.054 107.862  0.00  0.00    +0.000 OA
ATOM      3  C   UNL     1     143.348 112.348 107.645  0.00  0.00    +0.000 C 
ATOM      4  C   UNL     1     142.052 112.152 106.804  0.00  0.00    +0.000 C 
ATOM      5  C   UNL     1     143.796 114.190 107.551  0.00  0.00    +0.000 C 
ATOM      6  C   UNL     1     142.686 112.457 105.385  0.00  0.00    +0.000 C 
ATOM      7  C   UNL     1     143.282 111.424 109.263  0.00  0.00    +0.000 C 
ATOM      8  C   UNL     1     144.288 111.125 110.839  0.00  0.00    +0.000 C 
ATOM      9  C   UNL     1     144.042 114.440 106.006  0.00  0.00    +0.000 C 
ATOM     10  C   UNL     1     142.921 113.916 105.056  0.00  0.00    +0.000 C 
ATOM     11  C   UNL     1     145.723 111.993 111.419  0.00  0.00    +0.000 C 
ATOM     12  C   UNL     1     141.555 110.910 105.962  0.00  0.00    +0.000 C 
ATOM     13  C   UNL     1     145.173 115.096 108.461  0.00  0.00    +0.000 C 
ATOM     14  C   UNL     1     143.280 111.413 112.045  0.00  0.00    +0.000 C 
ATOM     15  C   UNL     1     145.470 113.572 111.486  0.00  0.00    +0.000 C 
ATOM     16  C   UNL     1     142.559 115.129 107.878  0.00  0.00    +0.000 C 
ATOM     17  C   UNL     1     145.880 114.754 110.211  0.00  0.00    +0.000 C 
ATOM     18  C   UNL     1     143.320 112.857 112.724  0.00  0.00    +0.000 C 
ATOM     19  C   UNL     1     144.448 113.884 112.351  0.00  0.00    +0.000 C 
ATOM     20  C   UNL     1     145.995 111.501 112.928  0.00  0.00    +0.000 C 
ATOM     21  C   UNL     1     147.133 111.582 110.887  0.00  0.00    +0.000 C 
ATOM     22  C   UNL     1     144.166 115.299 112.795  0.00  0.00    +0.000 C 
ENDROOT
BRANCH  17  23
ATOM     23  O   UNL     1     147.302 114.866 110.262  0.00  0.00    +0.000 OA
ATOM     24  H   UNL     1     147.583 114.924 109.329  0.00  0.00    +0.000 HD
ENDBRANCH  17  23
BRANCH   9  25
ATOM     25  O   UNL     1     145.249 113.778 105.623  0.00  0.00    +0.000 OA
ATOM     26  H   UNL     1     145.836 113.784 106.401  0.00  0.00    +0.000 HD
ENDBRANCH   9  25
BRANCH   8  27
ATOM     27  O   UNL     1     144.542 109.706 110.843  0.00  0.00    +0.000 OA
ATOM     28  H   UNL     1     144.826 109.435 111.735  0.00  0.00    +0.000 HD
ENDBRANCH   8  27
BRANCH  18  29
ATOM     29  O   UNL     1     142.048 113.511 112.445  0.00  0.00    +0.000 OA
BRANCH  29  31
ATOM     30  O   UNL     1     140.574 112.350 113.702  0.00  0.00    +0.000 OA
ATOM     31  C   UNL     1     141.073 113.424 113.384  0.00  0.00    +0.000 C 
BRANCH  31  32
ATOM     32  C   UNL     1     140.535 114.767 113.890  0.00  0.00    +0.000 C 
BRANCH  32  33
ATOM     33  O   UNL     1     141.444 115.533 114.689  0.00  0.00    +0.000 OA
ATOM     34  H   UNL     1     140.973 116.357 114.918  0.00  0.00    +0.000 HD
ENDBRANCH  32  33
BRANCH  32  35
ATOM     35  C   UNL     1     139.199 114.511 114.637  0.00  0.00    +0.000 C 
BRANCH  35  36
ATOM     36  C   UNL     1     138.053 115.362 114.100  0.00  0.00    +0.000 A 
ATOM     37  C   UNL     1     138.323 116.636 113.575  0.00  0.00    +0.000 A 
ATOM     38  C   UNL     1     136.728 114.895 114.077  0.00  0.00    +0.000 A 
ATOM     39  C   UNL     1     137.294 117.432 113.067  0.00  0.00    +0.000 A 
ATOM     40  C   UNL     1     135.701 115.693 113.569  0.00  0.00    +0.000 A 
ATOM     41  C   UNL     1     135.984 116.962 113.067  0.00  0.00    +0.000 A 
ENDBRANCH  35  36
BRANCH  35  43
ATOM     42  O   UNL     1     139.326 112.572 116.754  0.00  0.00    +0.000 OA
ATOM     43  N   UNL     1     139.332 114.752 116.067  0.00  0.00    +0.000 N 
ATOM     44  C   UNL     1     139.276 113.766 116.997  0.00  0.00    +0.000 C 
ATOM     45  H   UNL     1     139.160 115.692 116.400  0.00  0.00    +0.000 HD
BRANCH  44  46
ATOM     46  O   UNL     1     139.185 114.331 118.220  0.00  0.00    +0.000 OA
BRANCH  46  47
ATOM     47  C   UNL     1     137.917 114.375 118.924  0.00  0.00    +0.000 C 
ATOM     48  C   UNL     1     136.736 114.276 117.953  0.00  0.00    +0.000 C 
ATOM     49  C   UNL     1     137.924 113.125 119.817  0.00  0.00    +0.000 C 
ATOM     50  C   UNL     1     137.822 115.616 119.818  0.00  0.00    +0.000 C 
ENDBRANCH  46  47
ENDBRANCH  44  46
ENDBRANCH  35  43
ENDBRANCH  32  35
ENDBRANCH  31  32
ENDBRANCH  29  31
ENDBRANCH  18  29
BRANCH   7  51
ATOM     51  O   UNL     1     142.839 112.549 109.785  0.00  0.00    +0.000 OA
BRANCH  51  53
ATOM     52  O   UNL     1     141.797 110.839 109.637  0.00  0.00    +0.000 OA
ATOM     53  C   UNL     1     141.587 112.007 109.946  0.00  0.00    +0.000 C 
BRANCH  53  54
ATOM     54  C   UNL     1     140.002 113.040 110.249  0.00  0.00    +0.000 A 
ATOM     55  C   UNL     1     139.894 114.491 110.096  0.00  0.00    +0.000 A 
ATOM     56  C   UNL     1     138.688 112.553 110.530  0.00  0.00    +0.000 A 
ATOM     57  C   UNL     1     138.721 115.282 110.205  0.00  0.00    +0.000 A 
ATOM     58  C   UNL     1     137.499 113.331 110.642  0.00  0.00    +0.000 A 
ATOM     59  C   UNL     1     137.513 114.695 110.480  0.00  0.00    +0.000 A 
ENDBRANCH  53  54
ENDBRANCH  51  53
ENDBRANCH   7  51
BRANCH   4  60
ATOM     60  O   UNL     1     140.998 113.063 107.194  0.00  0.00    +0.000 OA
BRANCH  60  62
ATOM     61  O   UNL     1     139.058 111.953 107.090  0.00  0.00    +0.000 OA
ATOM     62  C   UNL     1     139.710 112.951 106.793  0.00  0.00    +0.000 C 
ATOM     63  C   UNL     1     139.138 113.999 105.892  0.00  0.00    +0.000 C 
ENDBRANCH  60  62
ENDBRANCH   4  60
TORSDOF 17
ENDMDL
MODEL 9
REMARK VINA RESULT:      -5.7     24.181     27.706
REMARK  Name = 
REMARK  25 active torsions:
REMARK  status: ('A' for Active; 'I' for Inactive)
REMARK    1  A    between atoms: O_2  and  C_17
REMARK    2  A    between atoms: O_2  and  C_36
REMARK    3  A    between atoms: O_3  and  C_20
REMARK    4  A    between atoms: O_3  and  C_37
REMARK    5  A    between atoms: O_4  and  C_21
REMARK    6  A    between atoms: O_5  and  C_22
REMARK    7  A    between atoms: O_7  and  C_30
REMARK    8  A    between atoms: O_8  and  C_31
REMARK    9  A    between atoms: O_8  and  C_39
REMARK   10  A    between atoms: O_12  and  C_41
REMARK   11  A    between atoms: O_13  and  C_51
REMARK   12  A    between atoms: O_13  and  C_55
REMARK   13  A    between atoms: N_15  and  C_44
REMARK   14  A    between atoms: C_18  and  C_29
REMARK   15  A    between atoms: C_24  and  C_33
REMARK   16  A    between atoms: C_24  and  C_34
REMARK   17  A    between atoms: C_32  and  C_35
REMARK   18  A    between atoms: C_36  and  C_38
REMARK   19  A    between atoms: C_37  and  C_40
REMARK   20  A    between atoms: C_39  and  C_41
REMARK   21  A    between atoms: C_41  and  C_44
REMARK   22  A    between atoms: C_44  and  C_48
REMARK   23  A    between atoms: C_55  and  C_56
REMARK   24  A    between atoms: C_55  and  C_57
REMARK   25  A    between atoms: C_55  and  C_58
REMARK                            x       y       z     vdW  Elec       q    Type
REMARK                         _______ _______ _______ _____ _____    ______ ____
ROOT
ATOM      1  O   UNL     1     158.992 130.083 129.707  0.00  0.00    +0.000 OA
ATOM      2  O   UNL     1     154.816 128.122 124.821  0.00  0.00    +0.000 OA
ATOM      3  C   UNL     1     157.034 131.168 127.090  0.00  0.00    +0.000 C 
ATOM      4  C   UNL     1     157.445 131.057 128.588  0.00  0.00    +0.000 C 
ATOM      5  C   UNL     1     155.903 129.692 126.714  0.00  0.00    +0.000 C 
ATOM      6  C   UNL     1     158.329 129.749 128.457  0.00  0.00    +0.000 C 
ATOM      7  C   UNL     1     156.580 132.913 126.615  0.00  0.00    +0.000 C 
ATOM      8  C   UNL     1     155.958 133.933 125.146  0.00  0.00    +0.000 C 
ATOM      9  C   UNL     1     156.824 128.432 126.989  0.00  0.00    +0.000 C 
ATOM     10  C   UNL     1     157.577 128.439 128.355  0.00  0.00    +0.000 C 
ATOM     11  C   UNL     1     155.281 133.361 123.607  0.00  0.00    +0.000 C 
ATOM     12  C   UNL     1     158.773 131.498 129.323  0.00  0.00    +0.000 C 
ATOM     13  C   UNL     1     154.965 129.326 125.123  0.00  0.00    +0.000 C 
ATOM     14  C   UNL     1     154.714 134.766 125.707  0.00  0.00    +0.000 C 
ATOM     15  C   UNL     1     154.067 132.344 123.839  0.00  0.00    +0.000 C 
ATOM     16  C   UNL     1     154.742 129.534 127.784  0.00  0.00    +0.000 C 
ATOM     17  C   UNL     1     154.187 130.563 123.880  0.00  0.00    +0.000 C 
ATOM     18  C   UNL     1     153.250 134.181 125.459  0.00  0.00    +0.000 C 
ATOM     19  C   UNL     1     153.033 132.938 124.524  0.00  0.00    +0.000 C 
ATOM     20  C   UNL     1     154.673 134.648 122.852  0.00  0.00    +0.000 C 
ATOM     21  C   UNL     1     156.248 132.968 122.446  0.00  0.00    +0.000 C 
ATOM     22  C   UNL     1     151.676 132.293 124.658  0.00  0.00    +0.000 C 
ENDROOT
BRANCH  17  23
ATOM     23  O   UNL     1     154.396 130.181 122.520  0.00  0.00    +0.000 OA
ATOM     24  H   UNL     1     155.047 129.454 122.560  0.00  0.00    +0.000 HD
ENDBRANCH  17  23
BRANCH   9  25
ATOM     25  O   UNL     1     157.820 128.364 125.968  0.00  0.00    +0.000 OA
ATOM     26  H   UNL     1     158.666 128.166 126.409  0.00  0.00    +0.000 HD
ENDBRANCH   9  25
BRANCH   8  27
ATOM     27  O   UNL     1     157.011 134.884 124.892  0.00  0.00    +0.000 OA
ATOM     28  H   UNL     1     156.617 135.759 124.725  0.00  0.00    +0.000 HD
ENDBRANCH   8  27
BRANCH  18  29
ATOM     29  O   UNL     1     152.690 133.832 126.758  0.00  0.00    +0.000 OA
BRANCH  29  31
ATOM     30  O   UNL     1     150.720 134.000 127.851  0.00  0.00    +0.000 OA
ATOM     31  C   UNL     1     151.607 134.527 127.187  0.00  0.00    +0.000 C 
BRANCH  31  32
ATOM     32  C   UNL     1     151.494 135.957 126.647  0.00  0.00    +0.000 C 
BRANCH  32  33
ATOM     33  O   UNL     1     152.048 136.977 127.485  0.00  0.00    +0.000 OA
ATOM     34  H   UNL     1     152.138 136.579 128.371  0.00  0.00    +0.000 HD
ENDBRANCH  32  33
BRANCH  32  35
ATOM     35  C   UNL     1     150.004 136.240 126.314  0.00  0.00    +0.000 C 
BRANCH  35  36
ATOM     36  C   UNL     1     149.578 135.647 124.975  0.00  0.00    +0.000 A 
ATOM     37  C   UNL     1     150.427 135.766 123.863  0.00  0.00    +0.000 A 
ATOM     38  C   UNL     1     148.371 134.945 124.824  0.00  0.00    +0.000 A 
ATOM     39  C   UNL     1     150.066 135.223 122.628  0.00  0.00    +0.000 A 
ATOM     40  C   UNL     1     148.012 134.403 123.588  0.00  0.00    +0.000 A 
ATOM     41  C   UNL     1     148.858 134.545 122.490  0.00  0.00    +0.000 A 
ENDBRANCH  35  36
BRANCH  35  43
ATOM     42  O   UNL     1     147.883 137.633 127.662  0.00  0.00    +0.000 OA
ATOM     43  N   UNL     1     149.722 137.669 126.305  0.00  0.00    +0.000 N 
ATOM     44  C   UNL     1     148.628 138.215 126.892  0.00  0.00    +0.000 C 
ATOM     45  H   UNL     1     150.179 138.231 125.599  0.00  0.00    +0.000 HD
BRANCH  44  46
ATOM     46  O   UNL     1     148.528 139.504 126.502  0.00  0.00    +0.000 OA
BRANCH  46  47
ATOM     47  C   UNL     1     149.056 140.573 127.330  0.00  0.00    +0.000 C 
ATOM     48  C   UNL     1     150.207 141.304 126.631  0.00  0.00    +0.000 C 
ATOM     49  C   UNL     1     147.884 141.550 127.499  0.00  0.00    +0.000 C 
ATOM     50  C   UNL     1     149.464 140.053 128.713  0.00  0.00    +0.000 C 
ENDBRANCH  46  47
ENDBRANCH  44  46
ENDBRANCH  35  43
ENDBRANCH  32  35
ENDBRANCH  31  32
ENDBRANCH  29  31
ENDBRANCH  18  29
BRANCH   7  51
ATOM     51  O   UNL     1     155.337 132.565 126.873  0.00  0.00    +0.000 OA
BRANCH  51  53
ATOM     52  O   UNL     1     156.432 133.876 127.928  0.00  0.00    +0.000 OA
ATOM     53  C   UNL     1     155.329 133.344 128.004  0.00  0.00    +0.000 C 
BRANCH  53  54
ATOM     54  C   UNL     1     153.998 133.230 129.377  0.00  0.00    +0.000 A 
ATOM     55  C   UNL     1     153.609 134.320 130.273  0.00  0.00    +0.000 A 
ATOM     56  C   UNL     1     153.113 132.140 129.641  0.00  0.00    +0.000 A 
ATOM     57  C   UNL     1     152.561 134.315 131.228  0.00  0.00    +0.000 A 
ATOM     58  C   UNL     1     152.054 132.116 130.596  0.00  0.00    +0.000 A 
ATOM     59  C   UNL     1     151.776 133.201 131.390  0.00  0.00    +0.000 A 
ENDBRANCH  53  54
ENDBRANCH  51  53
ENDBRANCH   7  51
BRANCH   4  60
ATOM     60  O   UNL     1     156.303 130.917 129.465  0.00  0.00    +0.000 OA
BRANCH  60  62
ATOM     61  O   UNL     1     156.296 129.830 131.420  0.00  0.00    +0.000 OA
ATOM     62  C   UNL     1     156.379 130.897 130.816  0.00  0.00    +0.000 C 
ATOM     63  C   UNL     1     156.446 132.194 131.558  0.00  0.00    +0.000 C 
ENDBRANCH  60  62
ENDBRANCH   4  60
TORSDOF 17
ENDMDL
