MODEL 1
REMARK VINA RESULT:      -7.2      0.000      0.000
REMARK  Name = 
REMARK  13 active torsions:
REMARK  status: ('A' for Active; 'I' for Inactive)
REMARK    1  A    between atoms: O_1  and  C_13
REMARK    2  A    between atoms: O_1  and  C_19
REMARK    3  A    between atoms: O_3  and  C_14
REMARK    4  A    between atoms: O_4  and  C_22
REMARK    5  A    between atoms: O_5  and  C_24
REMARK    6  A    between atoms: O_6  and  C_26
REMARK    7  A    between atoms: O_8  and  C_30
REMARK    8  A    between atoms: O_11  and  C_35
REMARK    9  A    between atoms: O_11  and  C_39
REMARK   10  A    between atoms: N_12  and  C_21
REMARK   11  A    between atoms: C_14  and  C_25
REMARK   12  A    between atoms: C_23  and  C_29
REMARK   13  A    between atoms: C_25  and  C_30
REMARK                            x       y       z     vdW  Elec       q    Type
REMARK                         _______ _______ _______ _____ _____    ______ ____
ROOT
ATOM      1  O   UNL     1     142.595 127.284  99.671  0.00  0.00    +0.000 OA
ATOM      2  O   UNL     1     147.801 128.060  98.922  0.00  0.00    +0.000 OA
ATOM      3  C   UNL     1     143.127 126.688  94.604  0.00  0.00    +0.000 C 
ATOM      4  C   UNL     1     145.071 127.020  93.013  0.00  0.00    +0.000 C 
ATOM      5  C   UNL     1     143.876 126.134  93.391  0.00  0.00    +0.000 C 
ATOM      6  C   UNL     1     146.060 127.125  94.182  0.00  0.00    +0.000 C 
ATOM      7  C   UNL     1     144.059 126.957  95.769  0.00  0.00    +0.000 A 
ATOM      8  C   UNL     1     145.431 127.199  95.562  0.00  0.00    +0.000 A 
ATOM      9  C   UNL     1     143.547 127.025  97.079  0.00  0.00    +0.000 A 
ATOM     10  C   UNL     1     146.253 127.473  96.670  0.00  0.00    +0.000 A 
ATOM     11  C   UNL     1     144.375 127.311  98.181  0.00  0.00    +0.000 A 
ATOM     12  C   UNL     1     145.731 127.533  97.973  0.00  0.00    +0.000 A 
ATOM     13  C   UNL     1     143.811 127.390  99.548  0.00  0.00    +0.000 C 
ATOM     14  C   UNL     1     146.611 127.831  99.118  0.00  0.00    +0.000 C 
ATOM     15  C   UNL     1     144.704 127.618 100.709  0.00  0.00    +0.000 A 
ATOM     16  C   UNL     1     146.063 127.843 100.486  0.00  0.00    +0.000 A 
ATOM     17  C   UNL     1     144.229 127.625 102.031  0.00  0.00    +0.000 A 
ATOM     18  C   UNL     1     146.936 128.075 101.561  0.00  0.00    +0.000 A 
ATOM     19  C   UNL     1     145.106 127.831 103.103  0.00  0.00    +0.000 A 
ATOM     20  C   UNL     1     146.457 128.067 102.867  0.00  0.00    +0.000 A 
ENDROOT
BRANCH   4  21
ATOM     21  O   UNL     1     144.627 128.326  92.626  0.00  0.00    +0.000 OA
ATOM     22  H   UNL     1     144.477 128.305  91.657  0.00  0.00    +0.000 HD
ENDBRANCH   4  21
BRANCH   9  23
ATOM     23  O   UNL     1     142.200 126.796  97.232  0.00  0.00    +0.000 OA
ATOM     24  H   UNL     1     141.944 127.025  98.157  0.00  0.00    +0.000 HD
ENDBRANCH   9  23
BRANCH  10  25
ATOM     25  O   UNL     1     147.587 127.673  96.412  0.00  0.00    +0.000 OA
ATOM     26  H   UNL     1     147.742 128.633  96.263  0.00  0.00    +0.000 HD
ENDBRANCH  10  25
BRANCH   4  28
ATOM     27  O   UNL     1     145.448 125.362  91.262  0.00  0.00    +0.000 OA
ATOM     28  C   UNL     1     145.804 126.416  91.802  0.00  0.00    +0.000 C 
BRANCH  28  29
ATOM     29  C   UNL     1     147.030 127.164  91.284  0.00  0.00    +0.000 C 
BRANCH  29  30
ATOM     30  O   UNL     1     146.682 128.457  90.803  0.00  0.00    +0.000 OA
ATOM     31  H   UNL     1     147.373 128.700  90.154  0.00  0.00    +0.000 HD
ENDBRANCH  29  30
ENDBRANCH  28  29
ENDBRANCH   4  28
BRANCH  17  32
ATOM     32  O   UNL     1     142.928 127.329 102.337  0.00  0.00    +0.000 OA
ATOM     33  C   UNL     1     142.855 126.151 103.142  0.00  0.00    +0.000 C 
ENDBRANCH  17  32
BRANCH   3  34
ATOM     34  O   UNL     1     142.549 127.956  94.250  0.00  0.00    +0.000 OA
BRANCH  34  36
ATOM     35  O   UNL     1     141.419 128.833  92.379  0.00  0.00    +0.000 OA
ATOM     36  C   UNL     1     141.424 127.815  93.377  0.00  0.00    +0.000 C 
ATOM     37  C   UNL     1     140.140 127.817  94.210  0.00  0.00    +0.000 C 
ATOM     38  C   UNL     1     139.866 129.205  94.793  0.00  0.00    +0.000 C 
ATOM     39  C   UNL     1     139.867 130.252  93.660  0.00  0.00    +0.000 C 
ATOM     40  C   UNL     1     141.198 130.153  92.891  0.00  0.00    +0.000 C 
ATOM     41  C   UNL     1     141.259 131.107  91.703  0.00  0.00    +0.000 C 
BRANCH  38  42
ATOM     42  N   UNL     1     138.579 129.224  95.513  0.00  0.00    +0.000 NA
ATOM     43  H   UNL     1     138.741 129.172  96.517  0.00  0.00    +0.000 HD
ATOM     44  H   UNL     1     138.085 128.361  95.260  0.00  0.00    +0.000 HD
ENDBRANCH  38  42
BRANCH  39  45
ATOM     45  O   UNL     1     138.738 129.991  92.805  0.00  0.00    +0.000 OA
ATOM     46  H   UNL     1     137.955 130.380  93.228  0.00  0.00    +0.000 HD
ENDBRANCH  39  45
ENDBRANCH  34  36
ENDBRANCH   3  34
TORSDOF 11
ENDMDL
MODEL 2
REMARK VINA RESULT:      -6.5      2.537      8.144
REMARK  Name = 
REMARK  13 active torsions:
REMARK  status: ('A' for Active; 'I' for Inactive)
REMARK    1  A    between atoms: O_1  and  C_13
REMARK    2  A    between atoms: O_1  and  C_19
REMARK    3  A    between atoms: O_3  and  C_14
REMARK    4  A    between atoms: O_4  and  C_22
REMARK    5  A    between atoms: O_5  and  C_24
REMARK    6  A    between atoms: O_6  and  C_26
REMARK    7  A    between atoms: O_8  and  C_30
REMARK    8  A    between atoms: O_11  and  C_35
REMARK    9  A    between atoms: O_11  and  C_39
REMARK   10  A    between atoms: N_12  and  C_21
REMARK   11  A    between atoms: C_14  and  C_25
REMARK   12  A    between atoms: C_23  and  C_29
REMARK   13  A    between atoms: C_25  and  C_30
REMARK                            x       y       z     vdW  Elec       q    Type
REMARK                         _______ _______ _______ _____ _____    ______ ____
ROOT
ATOM      1  O   UNL     1     140.870 127.724  94.621  0.00  0.00    +0.000 OA
ATOM      2  O   UNL     1     145.243 127.197  91.644  0.00  0.00    +0.000 OA
ATOM      3  C   UNL     1     144.651 127.985  98.078  0.00  0.00    +0.000 C 
ATOM      4  C   UNL     1     147.158 127.652  97.935  0.00  0.00    +0.000 C 
ATOM      5  C   UNL     1     146.021 128.493  98.530  0.00  0.00    +0.000 C 
ATOM      6  C   UNL     1     147.115 127.688  96.401  0.00  0.00    +0.000 C 
ATOM      7  C   UNL     1     144.566 127.854  96.570  0.00  0.00    +0.000 A 
ATOM      8  C   UNL     1     145.725 127.677  95.790  0.00  0.00    +0.000 A 
ATOM      9  C   UNL     1     143.310 127.851  95.934  0.00  0.00    +0.000 A 
ATOM     10  C   UNL     1     145.596 127.531  94.397  0.00  0.00    +0.000 A 
ATOM     11  C   UNL     1     143.190 127.692  94.540  0.00  0.00    +0.000 A 
ATOM     12  C   UNL     1     144.338 127.534  93.772  0.00  0.00    +0.000 A 
ATOM     13  C   UNL     1     141.858 127.679  93.894  0.00  0.00    +0.000 C 
ATOM     14  C   UNL     1     144.227 127.370  92.311  0.00  0.00    +0.000 C 
ATOM     15  C   UNL     1     141.746 127.587  92.419  0.00  0.00    +0.000 A 
ATOM     16  C   UNL     1     142.907 127.424  91.660  0.00  0.00    +0.000 A 
ATOM     17  C   UNL     1     140.511 127.647  91.754  0.00  0.00    +0.000 A 
ATOM     18  C   UNL     1     142.838 127.320  90.261  0.00  0.00    +0.000 A 
ATOM     19  C   UNL     1     140.447 127.569  90.358  0.00  0.00    +0.000 A 
ATOM     20  C   UNL     1     141.610 127.394  89.612  0.00  0.00    +0.000 A 
ENDROOT
BRANCH   4  21
ATOM     21  O   UNL     1     147.079 126.298  98.397  0.00  0.00    +0.000 OA
ATOM     22  H   UNL     1     146.173 125.979  98.198  0.00  0.00    +0.000 HD
ENDBRANCH   4  21
BRANCH   9  23
ATOM     23  O   UNL     1     142.206 128.012  96.736  0.00  0.00    +0.000 OA
ATOM     24  H   UNL     1     142.206 128.932  97.092  0.00  0.00    +0.000 HD
ENDBRANCH   9  23
BRANCH  10  25
ATOM     25  O   UNL     1     146.761 127.390  93.683  0.00  0.00    +0.000 OA
ATOM     26  H   UNL     1     146.645 126.668  93.023  0.00  0.00    +0.000 HD
ENDBRANCH  10  25
BRANCH   4  28
ATOM     27  O   UNL     1     149.386 127.501  98.919  0.00  0.00    +0.000 OA
ATOM     28  C   UNL     1     148.515 128.209  98.401  0.00  0.00    +0.000 C 
BRANCH  28  29
ATOM     29  C   UNL     1     148.756 129.705  98.219  0.00  0.00    +0.000 C 
BRANCH  29  30
ATOM     30  O   UNL     1     149.243 129.996  96.914  0.00  0.00    +0.000 OA
ATOM     31  H   UNL     1     150.088 130.475  97.040  0.00  0.00    +0.000 HD
ENDBRANCH  29  30
ENDBRANCH  28  29
ENDBRANCH   4  28
BRANCH  17  32
ATOM     32  O   UNL     1     139.339 127.888  92.419  0.00  0.00    +0.000 OA
ATOM     33  C   UNL     1     138.810 129.167  92.060  0.00  0.00    +0.000 C 
ENDBRANCH  17  32
BRANCH   3  34
ATOM     34  O   UNL     1     144.450 126.664  98.609  0.00  0.00    +0.000 OA
BRANCH  34  36
ATOM     35  O   UNL     1     144.342 127.330 100.866  0.00  0.00    +0.000 OA
ATOM     36  C   UNL     1     143.659 126.672  99.801  0.00  0.00    +0.000 C 
ATOM     37  C   UNL     1     143.279 125.234 100.160  0.00  0.00    +0.000 C 
ATOM     38  C   UNL     1     144.500 124.448 100.644  0.00  0.00    +0.000 C 
ATOM     39  C   UNL     1     145.183 125.211 101.797  0.00  0.00    +0.000 C 
ATOM     40  C   UNL     1     145.512 126.640 101.324  0.00  0.00    +0.000 C 
ATOM     41  C   UNL     1     146.128 127.494 102.427  0.00  0.00    +0.000 C 
BRANCH  38  42
ATOM     42  N   UNL     1     144.111 123.094 101.079  0.00  0.00    +0.000 NA
ATOM     43  H   UNL     1     143.431 123.154 101.835  0.00  0.00    +0.000 HD
ATOM     44  H   UNL     1     144.947 122.660 101.484  0.00  0.00    +0.000 HD
ENDBRANCH  38  42
BRANCH  39  45
ATOM     45  O   UNL     1     144.290 125.217 102.926  0.00  0.00    +0.000 OA
ATOM     46  H   UNL     1     143.402 124.995 102.597  0.00  0.00    +0.000 HD
ENDBRANCH  39  45
ENDBRANCH  34  36
ENDBRANCH   3  34
TORSDOF 11
ENDMDL
MODEL 3
REMARK VINA RESULT:      -6.3      2.623      5.471
REMARK  Name = 
REMARK  13 active torsions:
REMARK  status: ('A' for Active; 'I' for Inactive)
REMARK    1  A    between atoms: O_1  and  C_13
REMARK    2  A    between atoms: O_1  and  C_19
REMARK    3  A    between atoms: O_3  and  C_14
REMARK    4  A    between atoms: O_4  and  C_22
REMARK    5  A    between atoms: O_5  and  C_24
REMARK    6  A    between atoms: O_6  and  C_26
REMARK    7  A    between atoms: O_8  and  C_30
REMARK    8  A    between atoms: O_11  and  C_35
REMARK    9  A    between atoms: O_11  and  C_39
REMARK   10  A    between atoms: N_12  and  C_21
REMARK   11  A    between atoms: C_14  and  C_25
REMARK   12  A    between atoms: C_23  and  C_29
REMARK   13  A    between atoms: C_25  and  C_30
REMARK                            x       y       z     vdW  Elec       q    Type
REMARK                         _______ _______ _______ _____ _____    ______ ____
ROOT
ATOM      1  O   UNL     1     146.277 127.743  99.899  0.00  0.00    +0.000 OA
ATOM      2  O   UNL     1     141.714 125.113 100.630  0.00  0.00    +0.000 OA
ATOM      3  C   UNL     1     144.258 127.615  95.185  0.00  0.00    +0.000 C 
ATOM      4  C   UNL     1     142.227 126.465  94.198  0.00  0.00    +0.000 C 
ATOM      5  C   UNL     1     143.069 127.747  94.232  0.00  0.00    +0.000 C 
ATOM      6  C   UNL     1     141.688 126.133  95.597  0.00  0.00    +0.000 C 
ATOM      7  C   UNL     1     143.830 127.150  96.562  0.00  0.00    +0.000 A 
ATOM      8  C   UNL     1     142.638 126.421  96.745  0.00  0.00    +0.000 A 
ATOM      9  C   UNL     1     144.654 127.395  97.676  0.00  0.00    +0.000 A 
ATOM     10  C   UNL     1     142.293 125.985  98.037  0.00  0.00    +0.000 A 
ATOM     11  C   UNL     1     144.307 126.945  98.965  0.00  0.00    +0.000 A 
ATOM     12  C   UNL     1     143.122 126.240  99.143  0.00  0.00    +0.000 A 
ATOM     13  C   UNL     1     145.197 127.204 100.119  0.00  0.00    +0.000 C 
ATOM     14  C   UNL     1     142.745 125.765 100.487  0.00  0.00    +0.000 C 
ATOM     15  C   UNL     1     144.787 126.791 101.483  0.00  0.00    +0.000 A 
ATOM     16  C   UNL     1     143.597 126.080 101.647  0.00  0.00    +0.000 A 
ATOM     17  C   UNL     1     145.559 127.081 102.619  0.00  0.00    +0.000 A 
ATOM     18  C   UNL     1     143.183 125.661 102.922  0.00  0.00    +0.000 A 
ATOM     19  C   UNL     1     145.132 126.685 103.892  0.00  0.00    +0.000 A 
ATOM     20  C   UNL     1     143.950 125.966 104.042  0.00  0.00    +0.000 A 
ENDROOT
BRANCH   4  21
ATOM     21  O   UNL     1     143.001 125.368  93.697  0.00  0.00    +0.000 OA
ATOM     22  H   UNL     1     143.268 125.598  92.782  0.00  0.00    +0.000 HD
ENDBRANCH   4  21
BRANCH   9  23
ATOM     23  O   UNL     1     145.814 128.098  97.449  0.00  0.00    +0.000 OA
ATOM     24  H   UNL     1     146.495 127.801  98.097  0.00  0.00    +0.000 HD
ENDBRANCH   9  23
BRANCH  10  25
ATOM     25  O   UNL     1     141.107 125.303  98.161  0.00  0.00    +0.000 OA
ATOM     26  H   UNL     1     141.302 124.353  98.328  0.00  0.00    +0.000 HD
ENDBRANCH  10  25
BRANCH   4  28
ATOM     27  O   UNL     1     140.556 125.720  92.584  0.00  0.00    +0.000 OA
ATOM     28  C   UNL     1     141.035 126.650  93.243  0.00  0.00    +0.000 C 
BRANCH  28  29
ATOM     29  C   UNL     1     140.457 128.057  93.112  0.00  0.00    +0.000 C 
BRANCH  29  30
ATOM     30  O   UNL     1     139.275 128.205  93.891  0.00  0.00    +0.000 OA
ATOM     31  H   UNL     1     138.536 127.913  93.319  0.00  0.00    +0.000 HD
ENDBRANCH  29  30
ENDBRANCH  28  29
ENDBRANCH   4  28
BRANCH  17  32
ATOM     32  O   UNL     1     146.694 127.844 102.551  0.00  0.00    +0.000 OA
ATOM     33  C   UNL     1     147.548 127.577 103.665  0.00  0.00    +0.000 C 
ENDBRANCH  17  32
BRANCH   3  34
ATOM     34  O   UNL     1     145.146 126.604  94.677  0.00  0.00    +0.000 OA
BRANCH  34  36
ATOM     35  O   UNL     1     146.132 126.294  92.561  0.00  0.00    +0.000 OA
ATOM     36  C   UNL     1     146.071 127.124  93.718  0.00  0.00    +0.000 C 
ATOM     37  C   UNL     1     147.439 127.294  94.381  0.00  0.00    +0.000 C 
ATOM     38  C   UNL     1     148.080 125.934  94.673  0.00  0.00    +0.000 C 
ATOM     39  C   UNL     1     148.121 125.094  93.381  0.00  0.00    +0.000 C 
ATOM     40  C   UNL     1     146.696 124.998  92.802  0.00  0.00    +0.000 C 
ATOM     41  C   UNL     1     146.652 124.241  91.479  0.00  0.00    +0.000 C 
BRANCH  38  42
ATOM     42  N   UNL     1     149.437 126.105  95.223  0.00  0.00    +0.000 NA
ATOM     43  H   UNL     1     149.543 127.042  95.605  0.00  0.00    +0.000 HD
ATOM     44  H   UNL     1     150.087 126.046  94.432  0.00  0.00    +0.000 HD
ENDBRANCH  38  42
BRANCH  39  45
ATOM     45  O   UNL     1     149.027 125.728  92.459  0.00  0.00    +0.000 OA
ATOM     46  H   UNL     1     149.931 125.530  92.755  0.00  0.00    +0.000 HD
ENDBRANCH  39  45
ENDBRANCH  34  36
ENDBRANCH   3  34
TORSDOF 11
ENDMDL
MODEL 4
REMARK VINA RESULT:      -6.1     18.131     23.275
REMARK  Name = 
REMARK  13 active torsions:
REMARK  status: ('A' for Active; 'I' for Inactive)
REMARK    1  A    between atoms: O_1  and  C_13
REMARK    2  A    between atoms: O_1  and  C_19
REMARK    3  A    between atoms: O_3  and  C_14
REMARK    4  A    between atoms: O_4  and  C_22
REMARK    5  A    between atoms: O_5  and  C_24
REMARK    6  A    between atoms: O_6  and  C_26
REMARK    7  A    between atoms: O_8  and  C_30
REMARK    8  A    between atoms: O_11  and  C_35
REMARK    9  A    between atoms: O_11  and  C_39
REMARK   10  A    between atoms: N_12  and  C_21
REMARK   11  A    between atoms: C_14  and  C_25
REMARK   12  A    between atoms: C_23  and  C_29
REMARK   13  A    between atoms: C_25  and  C_30
REMARK                            x       y       z     vdW  Elec       q    Type
REMARK                         _______ _______ _______ _____ _____    ______ ____
ROOT
ATOM      1  O   UNL     1     145.851 110.360 115.227  0.00  0.00    +0.000 OA
ATOM      2  O   UNL     1     149.144 114.333 113.948  0.00  0.00    +0.000 OA
ATOM      3  C   UNL     1     142.760 113.691 112.848  0.00  0.00    +0.000 C 
ATOM      4  C   UNL     1     143.092 116.046 111.973  0.00  0.00    +0.000 C 
ATOM      5  C   UNL     1     142.467 114.670 111.710  0.00  0.00    +0.000 C 
ATOM      6  C   UNL     1     144.615 115.930 112.127  0.00  0.00    +0.000 C 
ATOM      7  C   UNL     1     144.241 113.620 113.164  0.00  0.00    +0.000 A 
ATOM      8  C   UNL     1     145.102 114.691 112.857  0.00  0.00    +0.000 A 
ATOM      9  C   UNL     1     144.765 112.494 113.826  0.00  0.00    +0.000 A 
ATOM     10  C   UNL     1     146.464 114.593 113.194  0.00  0.00    +0.000 A 
ATOM     11  C   UNL     1     146.128 112.408 114.171  0.00  0.00    +0.000 A 
ATOM     12  C   UNL     1     146.977 113.462 113.851  0.00  0.00    +0.000 A 
ATOM     13  C   UNL     1     146.654 111.220 114.879  0.00  0.00    +0.000 C 
ATOM     14  C   UNL     1     148.407 113.385 114.203  0.00  0.00    +0.000 C 
ATOM     15  C   UNL     1     148.103 111.107 115.171  0.00  0.00    +0.000 A 
ATOM     16  C   UNL     1     148.945 112.174 114.848  0.00  0.00    +0.000 A 
ATOM     17  C   UNL     1     148.663 109.968 115.771  0.00  0.00    +0.000 A 
ATOM     18  C   UNL     1     150.320 112.108 115.121  0.00  0.00    +0.000 A 
ATOM     19  C   UNL     1     150.038 109.894 116.019  0.00  0.00    +0.000 A 
ATOM     20  C   UNL     1     150.865 110.969 115.704  0.00  0.00    +0.000 A 
ENDROOT
BRANCH   4  21
ATOM     21  O   UNL     1     142.524 116.641 113.147  0.00  0.00    +0.000 OA
ATOM     22  H   UNL     1     142.406 115.923 113.805  0.00  0.00    +0.000 HD
ENDBRANCH   4  21
BRANCH   9  23
ATOM     23  O   UNL     1     143.886 111.478 114.119  0.00  0.00    +0.000 OA
ATOM     24  H   UNL     1     143.383 111.251 113.302  0.00  0.00    +0.000 HD
ENDBRANCH   9  23
BRANCH  10  25
ATOM     25  O   UNL     1     147.263 115.655 112.846  0.00  0.00    +0.000 OA
ATOM     26  H   UNL     1     147.670 116.028 113.660  0.00  0.00    +0.000 HD
ENDBRANCH  10  25
BRANCH   4  28
ATOM     27  O   UNL     1     143.007 116.684 109.619  0.00  0.00    +0.000 OA
ATOM     28  C   UNL     1     142.788 116.990 110.797  0.00  0.00    +0.000 C 
BRANCH  28  29
ATOM     29  C   UNL     1     142.211 118.363 111.134  0.00  0.00    +0.000 C 
BRANCH  29  30
ATOM     30  O   UNL     1     142.566 119.329 110.151  0.00  0.00    +0.000 OA
ATOM     31  H   UNL     1     142.134 120.164 110.424  0.00  0.00    +0.000 HD
ENDBRANCH  29  30
ENDBRANCH  28  29
ENDBRANCH   4  28
BRANCH  17  32
ATOM     32  O   UNL     1     147.919 108.850 116.040  0.00  0.00    +0.000 OA
ATOM     33  C   UNL     1     148.362 107.748 115.246  0.00  0.00    +0.000 C 
ENDBRANCH  17  32
BRANCH   3  34
ATOM     34  O   UNL     1     142.116 114.166 114.042  0.00  0.00    +0.000 OA
BRANCH  34  36
ATOM     35  O   UNL     1     139.768 114.056 114.198  0.00  0.00    +0.000 OA
ATOM     36  C   UNL     1     140.994 113.359 114.412  0.00  0.00    +0.000 C 
ATOM     37  C   UNL     1     141.157 112.910 115.866  0.00  0.00    +0.000 C 
ATOM     38  C   UNL     1     140.979 114.088 116.827  0.00  0.00    +0.000 C 
ATOM     39  C   UNL     1     139.634 114.787 116.546  0.00  0.00    +0.000 C 
ATOM     40  C   UNL     1     139.581 115.186 115.059  0.00  0.00    +0.000 C 
ATOM     41  C   UNL     1     138.252 115.825 114.671  0.00  0.00    +0.000 C 
BRANCH  38  42
ATOM     42  N   UNL     1     141.041 113.631 118.227  0.00  0.00    +0.000 NA
ATOM     43  H   UNL     1     141.288 112.644 118.262  0.00  0.00    +0.000 HD
ATOM     44  H   UNL     1     140.090 113.699 118.604  0.00  0.00    +0.000 HD
ENDBRANCH  38  42
BRANCH  39  45
ATOM     45  O   UNL     1     138.572 113.879 116.890  0.00  0.00    +0.000 OA
ATOM     46  H   UNL     1     138.905 112.976 116.757  0.00  0.00    +0.000 HD
ENDBRANCH  39  45
ENDBRANCH  34  36
ENDBRANCH   3  34
TORSDOF 11
ENDMDL
MODEL 5
REMARK VINA RESULT:      -6.0     37.411     43.884
REMARK  Name = 
REMARK  13 active torsions:
REMARK  status: ('A' for Active; 'I' for Inactive)
REMARK    1  A    between atoms: O_1  and  C_13
REMARK    2  A    between atoms: O_1  and  C_19
REMARK    3  A    between atoms: O_3  and  C_14
REMARK    4  A    between atoms: O_4  and  C_22
REMARK    5  A    between atoms: O_5  and  C_24
REMARK    6  A    between atoms: O_6  and  C_26
REMARK    7  A    between atoms: O_8  and  C_30
REMARK    8  A    between atoms: O_11  and  C_35
REMARK    9  A    between atoms: O_11  and  C_39
REMARK   10  A    between atoms: N_12  and  C_21
REMARK   11  A    between atoms: C_14  and  C_25
REMARK   12  A    between atoms: C_23  and  C_29
REMARK   13  A    between atoms: C_25  and  C_30
REMARK                            x       y       z     vdW  Elec       q    Type
REMARK                         _______ _______ _______ _____ _____    ______ ____
ROOT
ATOM      1  O   UNL     1     135.333 135.630 134.443  0.00  0.00    +0.000 OA
ATOM      2  O   UNL     1     140.036 135.001 136.842  0.00  0.00    +0.000 OA
ATOM      3  C   UNL     1     134.191 136.296 139.399  0.00  0.00    +0.000 C 
ATOM      4  C   UNL     1     135.525 136.034 141.538  0.00  0.00    +0.000 C 
ATOM      5  C   UNL     1     134.497 136.883 140.778  0.00  0.00    +0.000 C 
ATOM      6  C   UNL     1     136.841 135.942 140.751  0.00  0.00    +0.000 C 
ATOM      7  C   UNL     1     135.454 136.039 138.601  0.00  0.00    +0.000 A 
ATOM      8  C   UNL     1     136.691 135.836 139.244  0.00  0.00    +0.000 A 
ATOM      9  C   UNL     1     135.393 135.943 137.198  0.00  0.00    +0.000 A 
ATOM     10  C   UNL     1     137.832 135.572 138.465  0.00  0.00    +0.000 A 
ATOM     11  C   UNL     1     136.538 135.667 136.427  0.00  0.00    +0.000 A 
ATOM     12  C   UNL     1     137.759 135.483 137.065  0.00  0.00    +0.000 A 
ATOM     13  C   UNL     1     136.447 135.558 134.953  0.00  0.00    +0.000 C 
ATOM     14  C   UNL     1     138.968 135.196 136.269  0.00  0.00    +0.000 C 
ATOM     15  C   UNL     1     137.670 135.341 134.145  0.00  0.00    +0.000 A 
ATOM     16  C   UNL     1     138.890 135.154 134.798  0.00  0.00    +0.000 A 
ATOM     17  C   UNL     1     137.647 135.306 132.742  0.00  0.00    +0.000 A 
ATOM     18  C   UNL     1     140.068 134.933 134.067  0.00  0.00    +0.000 A 
ATOM     19  C   UNL     1     138.827 135.112 132.013  0.00  0.00    +0.000 A 
ATOM     20  C   UNL     1     140.035 134.914 132.676  0.00  0.00    +0.000 A 
ENDROOT
BRANCH   4  21
ATOM     21  O   UNL     1     135.008 134.721 141.785  0.00  0.00    +0.000 OA
ATOM     22  H   UNL     1     135.393 134.415 142.634  0.00  0.00    +0.000 HD
ENDBRANCH   4  21
BRANCH   9  23
ATOM     23  O   UNL     1     134.163 136.135 136.615  0.00  0.00    +0.000 OA
ATOM     24  H   UNL     1     133.473 135.734 137.194  0.00  0.00    +0.000 HD
ENDBRANCH   9  23
BRANCH  10  25
ATOM     25  O   UNL     1     139.016 135.410 139.143  0.00  0.00    +0.000 OA
ATOM     26  H   UNL     1     139.356 134.502 138.976  0.00  0.00    +0.000 HD
ENDBRANCH  10  25
BRANCH   4  28
ATOM     27  O   UNL     1     136.648 137.571 143.064  0.00  0.00    +0.000 OA
ATOM     28  C   UNL     1     135.816 136.670 142.908  0.00  0.00    +0.000 C 
BRANCH  28  29
ATOM     29  C   UNL     1     135.041 136.130 144.107  0.00  0.00    +0.000 C 
BRANCH  29  30
ATOM     30  O   UNL     1     135.645 134.950 144.624  0.00  0.00    +0.000 OA
ATOM     31  H   UNL     1     135.842 135.135 145.565  0.00  0.00    +0.000 HD
ENDBRANCH  29  30
ENDBRANCH  28  29
ENDBRANCH   4  28
BRANCH  17  32
ATOM     32  O   UNL     1     136.508 135.564 132.028  0.00  0.00    +0.000 OA
ATOM     33  C   UNL     1     136.685 136.711 131.194  0.00  0.00    +0.000 C 
ENDBRANCH  17  32
BRANCH   3  34
ATOM     34  O   UNL     1     133.557 135.018 139.573  0.00  0.00    +0.000 OA
BRANCH  34  36
ATOM     35  O   UNL     1     131.878 134.249 141.035  0.00  0.00    +0.000 OA
ATOM     36  C   UNL     1     132.187 135.140 139.965  0.00  0.00    +0.000 C 
ATOM     37  C   UNL     1     131.293 134.908 138.744  0.00  0.00    +0.000 C 
ATOM     38  C   UNL     1     131.327 133.441 138.310  0.00  0.00    +0.000 C 
ATOM     39  C   UNL     1     130.976 132.538 139.510  0.00  0.00    +0.000 C 
ATOM     40  C   UNL     1     131.932 132.863 140.674  0.00  0.00    +0.000 C 
ATOM     41  C   UNL     1     131.612 132.064 141.933  0.00  0.00    +0.000 C 
BRANCH  38  42
ATOM     42  N   UNL     1     130.391 133.206 137.195  0.00  0.00    +0.000 NA
ATOM     43  H   UNL     1     130.216 134.076 136.697  0.00  0.00    +0.000 HD
ATOM     44  H   UNL     1     129.494 132.934 137.613  0.00  0.00    +0.000 HD
ENDBRANCH  38  42
BRANCH  39  45
ATOM     45  O   UNL     1     129.602 132.776 139.868  0.00  0.00    +0.000 OA
ATOM     46  H   UNL     1     129.593 133.471 140.547  0.00  0.00    +0.000 HD
ENDBRANCH  39  45
ENDBRANCH  34  36
ENDBRANCH   3  34
TORSDOF 11
ENDMDL
MODEL 6
REMARK VINA RESULT:      -6.0      2.949      8.348
REMARK  Name = 
REMARK  13 active torsions:
REMARK  status: ('A' for Active; 'I' for Inactive)
REMARK    1  A    between atoms: O_1  and  C_13
REMARK    2  A    between atoms: O_1  and  C_19
REMARK    3  A    between atoms: O_3  and  C_14
REMARK    4  A    between atoms: O_4  and  C_22
REMARK    5  A    between atoms: O_5  and  C_24
REMARK    6  A    between atoms: O_6  and  C_26
REMARK    7  A    between atoms: O_8  and  C_30
REMARK    8  A    between atoms: O_11  and  C_35
REMARK    9  A    between atoms: O_11  and  C_39
REMARK   10  A    between atoms: N_12  and  C_21
REMARK   11  A    between atoms: C_14  and  C_25
REMARK   12  A    between atoms: C_23  and  C_29
REMARK   13  A    between atoms: C_25  and  C_30
REMARK                            x       y       z     vdW  Elec       q    Type
REMARK                         _______ _______ _______ _____ _____    ______ ____
ROOT
ATOM      1  O   UNL     1     139.602 127.561  92.921  0.00  0.00    +0.000 OA
ATOM      2  O   UNL     1     144.058 127.820  90.032  0.00  0.00    +0.000 OA
ATOM      3  C   UNL     1     143.288 127.499  96.488  0.00  0.00    +0.000 C 
ATOM      4  C   UNL     1     145.815 127.361  96.369  0.00  0.00    +0.000 C 
ATOM      5  C   UNL     1     144.610 128.015  97.058  0.00  0.00    +0.000 C 
ATOM      6  C   UNL     1     145.798 127.645  94.860  0.00  0.00    +0.000 C 
ATOM      7  C   UNL     1     143.241 127.612  94.977  0.00  0.00    +0.000 A 
ATOM      8  C   UNL     1     144.424 127.643  94.214  0.00  0.00    +0.000 A 
ATOM      9  C   UNL     1     142.001 127.631  94.311  0.00  0.00    +0.000 A 
ATOM     10  C   UNL     1     144.333 127.720  92.812  0.00  0.00    +0.000 A 
ATOM     11  C   UNL     1     141.919 127.697  92.906  0.00  0.00    +0.000 A 
ATOM     12  C   UNL     1     143.090 127.743  92.159  0.00  0.00    +0.000 A 
ATOM     13  C   UNL     1     140.604 127.702  92.227  0.00  0.00    +0.000 C 
ATOM     14  C   UNL     1     143.019 127.814  90.687  0.00  0.00    +0.000 C 
ATOM     15  C   UNL     1     140.527 127.846  90.754  0.00  0.00    +0.000 A 
ATOM     16  C   UNL     1     141.711 127.887  90.014  0.00  0.00    +0.000 A 
ATOM     17  C   UNL     1     139.304 127.933  90.070  0.00  0.00    +0.000 A 
ATOM     18  C   UNL     1     141.677 128.010  88.616  0.00  0.00    +0.000 A 
ATOM     19  C   UNL     1     139.273 128.081  88.679  0.00  0.00    +0.000 A 
ATOM     20  C   UNL     1     140.459 128.109  87.950  0.00  0.00    +0.000 A 
ENDROOT
BRANCH   4  21
ATOM     21  O   UNL     1     145.822 125.947  96.602  0.00  0.00    +0.000 OA
ATOM     22  H   UNL     1     145.199 125.773  97.340  0.00  0.00    +0.000 HD
ENDBRANCH   4  21
BRANCH   9  23
ATOM     23  O   UNL     1     140.873 127.586  95.095  0.00  0.00    +0.000 OA
ATOM     24  H   UNL     1     140.836 126.708  95.544  0.00  0.00    +0.000 HD
ENDBRANCH   9  23
BRANCH  10  25
ATOM     25  O   UNL     1     145.519 127.775  92.120  0.00  0.00    +0.000 OA
ATOM     26  H   UNL     1     145.702 126.890  91.731  0.00  0.00    +0.000 HD
ENDBRANCH  10  25
BRANCH   4  28
ATOM     27  O   UNL     1     147.368 129.132  97.007  0.00  0.00    +0.000 OA
ATOM     28  C   UNL     1     147.120 127.921  96.960  0.00  0.00    +0.000 C 
BRANCH  28  29
ATOM     29  C   UNL     1     148.140 126.913  97.483  0.00  0.00    +0.000 C 
BRANCH  29  30
ATOM     30  O   UNL     1     148.853 126.298  96.416  0.00  0.00    +0.000 OA
ATOM     31  H   UNL     1     148.895 126.963  95.699  0.00  0.00    +0.000 HD
ENDBRANCH  29  30
ENDBRANCH  28  29
ENDBRANCH   4  28
BRANCH  17  32
ATOM     32  O   UNL     1     138.105 127.984  90.730  0.00  0.00    +0.000 OA
ATOM     33  C   UNL     1     137.503 129.272  90.582  0.00  0.00    +0.000 C 
ENDBRANCH  17  32
BRANCH   3  34
ATOM     34  O   UNL     1     143.170 126.099  96.791  0.00  0.00    +0.000 OA
BRANCH  34  36
ATOM     35  O   UNL     1     142.524 125.542  98.986  0.00  0.00    +0.000 OA
ATOM     36  C   UNL     1     142.071 125.822  97.664  0.00  0.00    +0.000 C 
ATOM     37  C   UNL     1     141.244 124.674  97.081  0.00  0.00    +0.000 C 
ATOM     38  C   UNL     1     142.006 123.350  97.168  0.00  0.00    +0.000 C 
ATOM     39  C   UNL     1     142.458 123.107  98.622  0.00  0.00    +0.000 C 
ATOM     40  C   UNL     1     143.271 124.325  99.102  0.00  0.00    +0.000 C 
ATOM     41  C   UNL     1     143.701 124.203 100.559  0.00  0.00    +0.000 C 
BRANCH  38  42
ATOM     42  N   UNL     1     141.168 122.233  96.694  0.00  0.00    +0.000 NA
ATOM     43  H   UNL     1     141.537 121.867  95.819  0.00  0.00    +0.000 HD
ATOM     44  H   UNL     1     140.248 122.627  96.471  0.00  0.00    +0.000 HD
ENDBRANCH  38  42
BRANCH  39  45
ATOM     45  O   UNL     1     141.285 122.901  99.431  0.00  0.00    +0.000 OA
ATOM     46  H   UNL     1     141.013 121.974  99.321  0.00  0.00    +0.000 HD
ENDBRANCH  39  45
ENDBRANCH  34  36
ENDBRANCH   3  34
TORSDOF 11
ENDMDL
MODEL 7
REMARK VINA RESULT:      -5.9     15.773     18.219
REMARK  Name = 
REMARK  13 active torsions:
REMARK  status: ('A' for Active; 'I' for Inactive)
REMARK    1  A    between atoms: O_1  and  C_13
REMARK    2  A    between atoms: O_1  and  C_19
REMARK    3  A    between atoms: O_3  and  C_14
REMARK    4  A    between atoms: O_4  and  C_22
REMARK    5  A    between atoms: O_5  and  C_24
REMARK    6  A    between atoms: O_6  and  C_26
REMARK    7  A    between atoms: O_8  and  C_30
REMARK    8  A    between atoms: O_11  and  C_35
REMARK    9  A    between atoms: O_11  and  C_39
REMARK   10  A    between atoms: N_12  and  C_21
REMARK   11  A    between atoms: C_14  and  C_25
REMARK   12  A    between atoms: C_23  and  C_29
REMARK   13  A    between atoms: C_25  and  C_30
REMARK                            x       y       z     vdW  Elec       q    Type
REMARK                         _______ _______ _______ _____ _____    ______ ____
ROOT
ATOM      1  O   UNL     1     146.786 114.121 102.630  0.00  0.00    +0.000 OA
ATOM      2  O   UNL     1     149.888 114.049 106.947  0.00  0.00    +0.000 OA
ATOM      3  C   UNL     1     143.519 115.281 106.410  0.00  0.00    +0.000 C 
ATOM      4  C   UNL     1     143.737 115.345 108.933  0.00  0.00    +0.000 C 
ATOM      5  C   UNL     1     143.165 116.039 107.690  0.00  0.00    +0.000 C 
ATOM      6  C   UNL     1     145.266 115.241 108.842  0.00  0.00    +0.000 C 
ATOM      7  C   UNL     1     145.006 115.009 106.306  0.00  0.00    +0.000 A 
ATOM      8  C   UNL     1     145.817 114.955 107.457  0.00  0.00    +0.000 A 
ATOM      9  C   UNL     1     145.589 114.750 105.051  0.00  0.00    +0.000 A 
ATOM     10  C   UNL     1     147.187 114.671 107.316  0.00  0.00    +0.000 A 
ATOM     11  C   UNL     1     146.960 114.455 104.920  0.00  0.00    +0.000 A 
ATOM     12  C   UNL     1     147.758 114.418 106.057  0.00  0.00    +0.000 A 
ATOM     13  C   UNL     1     147.547 114.173 103.591  0.00  0.00    +0.000 C 
ATOM     14  C   UNL     1     149.196 114.114 105.935  0.00  0.00    +0.000 C 
ATOM     15  C   UNL     1     149.004 113.938 103.455  0.00  0.00    +0.000 A 
ATOM     16  C   UNL     1     149.795 113.899 104.606  0.00  0.00    +0.000 A 
ATOM     17  C   UNL     1     149.620 113.741 102.210  0.00  0.00    +0.000 A 
ATOM     18  C   UNL     1     151.176 113.666 104.517  0.00  0.00    +0.000 A 
ATOM     19  C   UNL     1     151.002 113.535 102.121  0.00  0.00    +0.000 A 
ATOM     20  C   UNL     1     151.778 113.486 103.276  0.00  0.00    +0.000 A 
ENDROOT
BRANCH   4  21
ATOM     21  O   UNL     1     143.165 114.040 109.089  0.00  0.00    +0.000 OA
ATOM     22  H   UNL     1     142.323 114.151 109.580  0.00  0.00    +0.000 HD
ENDBRANCH   4  21
BRANCH   9  23
ATOM     23  O   UNL     1     144.757 114.800 103.957  0.00  0.00    +0.000 OA
ATOM     24  H   UNL     1     145.208 115.306 103.241  0.00  0.00    +0.000 HD
ENDBRANCH   9  23
BRANCH  10  25
ATOM     25  O   UNL     1     147.935 114.658 108.468  0.00  0.00    +0.000 OA
ATOM     26  H   UNL     1     147.332 114.753 109.240  0.00  0.00    +0.000 HD
ENDBRANCH  10  25
BRANCH   4  28
ATOM     27  O   UNL     1     142.695 117.182 110.155  0.00  0.00    +0.000 OA
ATOM     28  C   UNL     1     143.374 116.149 110.193  0.00  0.00    +0.000 C 
BRANCH  28  29
ATOM     29  C   UNL     1     143.907 115.636 111.528  0.00  0.00    +0.000 C 
BRANCH  29  30
ATOM     30  O   UNL     1     144.157 116.706 112.432  0.00  0.00    +0.000 OA
ATOM     31  H   UNL     1     143.339 117.244 112.448  0.00  0.00    +0.000 HD
ENDBRANCH  29  30
ENDBRANCH  28  29
ENDBRANCH   4  28
BRANCH  17  32
ATOM     32  O   UNL     1     148.929 113.848 101.032  0.00  0.00    +0.000 OA
ATOM     33  C   UNL     1     149.820 114.116  99.948  0.00  0.00    +0.000 C 
ENDBRANCH  17  32
BRANCH   3  34
ATOM     34  O   UNL     1     142.876 113.995 106.442  0.00  0.00    +0.000 OA
BRANCH  34  36
ATOM     35  O   UNL     1     140.568 114.344 106.124  0.00  0.00    +0.000 OA
ATOM     36  C   UNL     1     141.785 113.910 105.521  0.00  0.00    +0.000 C 
ATOM     37  C   UNL     1     141.689 112.478 104.990  0.00  0.00    +0.000 C 
ATOM     38  C   UNL     1     141.204 111.520 106.081  0.00  0.00    +0.000 C 
ATOM     39  C   UNL     1     139.885 112.044 106.682  0.00  0.00    +0.000 C 
ATOM     40  C   UNL     1     140.100 113.488 107.174  0.00  0.00    +0.000 C 
ATOM     41  C   UNL     1     138.823 114.116 107.722  0.00  0.00    +0.000 C 
BRANCH  38  42
ATOM     42  N   UNL     1     141.021 110.161 105.538  0.00  0.00    +0.000 NA
ATOM     43  H   UNL     1     140.973 110.196 104.522  0.00  0.00    +0.000 HD
ATOM     44  H   UNL     1     140.101 109.837 105.854  0.00  0.00    +0.000 HD
ENDBRANCH  38  42
BRANCH  39  45
ATOM     45  O   UNL     1     138.867 111.976 105.665  0.00  0.00    +0.000 OA
ATOM     46  H   UNL     1     138.087 112.447 106.001  0.00  0.00    +0.000 HD
ENDBRANCH  39  45
ENDBRANCH  34  36
ENDBRANCH   3  34
TORSDOF 11
ENDMDL
MODEL 8
REMARK VINA RESULT:      -5.9     16.330     19.750
REMARK  Name = 
REMARK  13 active torsions:
REMARK  status: ('A' for Active; 'I' for Inactive)
REMARK    1  A    between atoms: O_1  and  C_13
REMARK    2  A    between atoms: O_1  and  C_19
REMARK    3  A    between atoms: O_3  and  C_14
REMARK    4  A    between atoms: O_4  and  C_22
REMARK    5  A    between atoms: O_5  and  C_24
REMARK    6  A    between atoms: O_6  and  C_26
REMARK    7  A    between atoms: O_8  and  C_30
REMARK    8  A    between atoms: O_11  and  C_35
REMARK    9  A    between atoms: O_11  and  C_39
REMARK   10  A    between atoms: N_12  and  C_21
REMARK   11  A    between atoms: C_14  and  C_25
REMARK   12  A    between atoms: C_23  and  C_29
REMARK   13  A    between atoms: C_25  and  C_30
REMARK                            x       y       z     vdW  Elec       q    Type
REMARK                         _______ _______ _______ _____ _____    ______ ____
ROOT
ATOM      1  O   UNL     1     148.243 113.382 112.987  0.00  0.00    +0.000 OA
ATOM      2  O   UNL     1     151.396 114.366 108.821  0.00  0.00    +0.000 OA
ATOM      3  C   UNL     1     144.900 114.111 109.165  0.00  0.00    +0.000 C 
ATOM      4  C   UNL     1     145.154 114.855 106.757  0.00  0.00    +0.000 C 
ATOM      5  C   UNL     1     144.448 113.893 107.721  0.00  0.00    +0.000 C 
ATOM      6  C   UNL     1     146.676 114.665 106.818  0.00  0.00    +0.000 C 
ATOM      7  C   UNL     1     146.410 114.079 109.296  0.00  0.00    +0.000 A 
ATOM      8  C   UNL     1     147.241 114.377 108.198  0.00  0.00    +0.000 A 
ATOM      9  C   UNL     1     147.003 113.804 110.542  0.00  0.00    +0.000 A 
ATOM     10  C   UNL     1     148.636 114.364 108.371  0.00  0.00    +0.000 A 
ATOM     11  C   UNL     1     148.402 113.805 110.710  0.00  0.00    +0.000 A 
ATOM     12  C   UNL     1     149.217 114.084 109.619  0.00  0.00    +0.000 A 
ATOM     13  C   UNL     1     149.002 113.526 112.034  0.00  0.00    +0.000 C 
ATOM     14  C   UNL     1     150.683 114.085 109.780  0.00  0.00    +0.000 C 
ATOM     15  C   UNL     1     150.476 113.455 112.183  0.00  0.00    +0.000 A 
ATOM     16  C   UNL     1     151.284 113.741 111.081  0.00  0.00    +0.000 A 
ATOM     17  C   UNL     1     151.092 113.119 113.399  0.00  0.00    +0.000 A 
ATOM     18  C   UNL     1     152.683 113.697 111.188  0.00  0.00    +0.000 A 
ATOM     19  C   UNL     1     152.486 113.050 113.497  0.00  0.00    +0.000 A 
ATOM     20  C   UNL     1     153.282 113.350 112.396  0.00  0.00    +0.000 A 
ENDROOT
BRANCH   4  21
ATOM     21  O   UNL     1     144.817 116.214 107.064  0.00  0.00    +0.000 OA
ATOM     22  H   UNL     1     144.325 116.570 106.294  0.00  0.00    +0.000 HD
ENDBRANCH   4  21
BRANCH   9  23
ATOM     23  O   UNL     1     146.154 113.533 111.589  0.00  0.00    +0.000 OA
ATOM     24  H   UNL     1     145.229 113.514 111.248  0.00  0.00    +0.000 HD
ENDBRANCH   9  23
BRANCH  10  25
ATOM     25  O   UNL     1     149.398 114.634 107.260  0.00  0.00    +0.000 OA
ATOM     26  H   UNL     1     148.805 114.927 106.531  0.00  0.00    +0.000 HD
ENDBRANCH  10  25
BRANCH   4  28
ATOM     27  O   UNL     1     145.466 114.340 104.392  0.00  0.00    +0.000 OA
ATOM     28  C   UNL     1     144.683 114.589 105.317  0.00  0.00    +0.000 C 
BRANCH  28  29
ATOM     29  C   UNL     1     143.182 114.662 105.047  0.00  0.00    +0.000 C 
BRANCH  29  30
ATOM     30  O   UNL     1     142.695 115.991 105.192  0.00  0.00    +0.000 OA
ATOM     31  H   UNL     1     141.900 116.052 104.624  0.00  0.00    +0.000 HD
ENDBRANCH  29  30
ENDBRANCH  28  29
ENDBRANCH   4  28
BRANCH  17  32
ATOM     32  O   UNL     1     150.370 112.744 114.501  0.00  0.00    +0.000 OA
ATOM     33  C   UNL     1     150.767 113.502 115.645  0.00  0.00    +0.000 C 
ENDBRANCH  17  32
BRANCH   3  34
ATOM     34  O   UNL     1     144.487 115.422 109.585  0.00  0.00    +0.000 OA
BRANCH  34  36
ATOM     35  O   UNL     1     142.683 116.834 110.131  0.00  0.00    +0.000 OA
ATOM     36  C   UNL     1     143.076 115.504 109.802  0.00  0.00    +0.000 C 
ATOM     37  C   UNL     1     142.675 114.499 110.885  0.00  0.00    +0.000 C 
ATOM     38  C   UNL     1     143.192 114.937 112.258  0.00  0.00    +0.000 C 
ATOM     39  C   UNL     1     142.724 116.377 112.551  0.00  0.00    +0.000 C 
ATOM     40  C   UNL     1     143.176 117.292 111.397  0.00  0.00    +0.000 C 
ATOM     41  C   UNL     1     142.694 118.729 111.567  0.00  0.00    +0.000 C 
BRANCH  38  42
ATOM     42  N   UNL     1     142.722 114.017 113.309  0.00  0.00    +0.000 NA
ATOM     43  H   UNL     1     142.425 114.545 114.127  0.00  0.00    +0.000 HD
ATOM     44  H   UNL     1     143.534 113.466 113.607  0.00  0.00    +0.000 HD
ENDBRANCH  38  42
BRANCH  39  45
ATOM     45  O   UNL     1     141.292 116.367 112.692  0.00  0.00    +0.000 OA
ATOM     46  H   UNL     1     140.946 115.667 112.113  0.00  0.00    +0.000 HD
ENDBRANCH  39  45
ENDBRANCH  34  36
ENDBRANCH   3  34
TORSDOF 11
ENDMDL
MODEL 9
REMARK VINA RESULT:      -5.9     29.505     35.938
REMARK  Name = 
REMARK  13 active torsions:
REMARK  status: ('A' for Active; 'I' for Inactive)
REMARK    1  A    between atoms: O_1  and  C_13
REMARK    2  A    between atoms: O_1  and  C_19
REMARK    3  A    between atoms: O_3  and  C_14
REMARK    4  A    between atoms: O_4  and  C_22
REMARK    5  A    between atoms: O_5  and  C_24
REMARK    6  A    between atoms: O_6  and  C_26
REMARK    7  A    between atoms: O_8  and  C_30
REMARK    8  A    between atoms: O_11  and  C_35
REMARK    9  A    between atoms: O_11  and  C_39
REMARK   10  A    between atoms: N_12  and  C_21
REMARK   11  A    between atoms: C_14  and  C_25
REMARK   12  A    between atoms: C_23  and  C_29
REMARK   13  A    between atoms: C_25  and  C_30
REMARK                            x       y       z     vdW  Elec       q    Type
REMARK                         _______ _______ _______ _____ _____    ______ ____
ROOT
ATOM      1  O   UNL     1     149.251 136.842 126.098  0.00  0.00    +0.000 OA
ATOM      2  O   UNL     1     151.093 132.761 128.965  0.00  0.00    +0.000 OA
ATOM      3  C   UNL     1     150.416 139.028 130.590  0.00  0.00    +0.000 C 
ATOM      4  C   UNL     1     151.168 138.104 132.826  0.00  0.00    +0.000 C 
ATOM      5  C   UNL     1     151.350 139.217 131.786  0.00  0.00    +0.000 C 
ATOM      6  C   UNL     1     151.454 136.729 132.205  0.00  0.00    +0.000 C 
ATOM      7  C   UNL     1     150.531 137.638 129.997  0.00  0.00    +0.000 A 
ATOM      8  C   UNL     1     150.985 136.553 130.772  0.00  0.00    +0.000 A 
ATOM      9  C   UNL     1     150.128 137.404 128.669  0.00  0.00    +0.000 A 
ATOM     10  C   UNL     1     151.049 135.274 130.189  0.00  0.00    +0.000 A 
ATOM     11  C   UNL     1     150.185 136.118 128.096  0.00  0.00    +0.000 A 
ATOM     12  C   UNL     1     150.648 135.054 128.860  0.00  0.00    +0.000 A 
ATOM     13  C   UNL     1     149.743 135.894 126.701  0.00  0.00    +0.000 C 
ATOM     14  C   UNL     1     150.715 133.702 128.273  0.00  0.00    +0.000 C 
ATOM     15  C   UNL     1     149.876 134.552 126.085  0.00  0.00    +0.000 A 
ATOM     16  C   UNL     1     150.340 133.491 126.864  0.00  0.00    +0.000 A 
ATOM     17  C   UNL     1     149.543 134.306 124.743  0.00  0.00    +0.000 A 
ATOM     18  C   UNL     1     150.466 132.203 126.318  0.00  0.00    +0.000 A 
ATOM     19  C   UNL     1     149.695 133.028 124.193  0.00  0.00    +0.000 A 
ATOM     20  C   UNL     1     150.146 131.974 124.983  0.00  0.00    +0.000 A 
ENDROOT
BRANCH   4  21
ATOM     21  O   UNL     1     149.841 138.132 133.367  0.00  0.00    +0.000 OA
ATOM     22  H   UNL     1     149.663 137.242 133.738  0.00  0.00    +0.000 HD
ENDBRANCH   4  21
BRANCH   9  23
ATOM     23  O   UNL     1     149.679 138.489 127.954  0.00  0.00    +0.000 OA
ATOM     24  H   UNL     1     148.769 138.713 128.259  0.00  0.00    +0.000 HD
ENDBRANCH   9  23
BRANCH  10  25
ATOM     25  O   UNL     1     151.525 134.259 130.982  0.00  0.00    +0.000 OA
ATOM     26  H   UNL     1     151.040 133.431 130.764  0.00  0.00    +0.000 HD
ENDBRANCH  10  25
BRANCH   4  28
ATOM     27  O   UNL     1     153.324 137.979 133.961  0.00  0.00    +0.000 OA
ATOM     28  C   UNL     1     152.138 138.324 134.000  0.00  0.00    +0.000 C 
BRANCH  28  29
ATOM     29  C   UNL     1     151.575 138.980 135.258  0.00  0.00    +0.000 C 
BRANCH  29  30
ATOM     30  O   UNL     1     151.733 138.139 136.395  0.00  0.00    +0.000 OA
ATOM     31  H   UNL     1     152.654 138.265 136.700  0.00  0.00    +0.000 HD
ENDBRANCH  29  30
ENDBRANCH  28  29
ENDBRANCH   4  28
BRANCH  17  32
ATOM     32  O   UNL     1     149.163 135.310 123.893  0.00  0.00    +0.000 OA
ATOM     33  C   UNL     1     147.948 134.968 123.222  0.00  0.00    +0.000 C 
ENDBRANCH  17  32
BRANCH   3  34
ATOM     34  O   UNL     1     149.057 139.163 131.040  0.00  0.00    +0.000 OA
BRANCH  34  36
ATOM     35  O   UNL     1     148.266 141.359 131.350  0.00  0.00    +0.000 OA
ATOM     36  C   UNL     1     148.391 140.275 130.434  0.00  0.00    +0.000 C 
ATOM     37  C   UNL     1     147.035 139.814 129.895  0.00  0.00    +0.000 C 
ATOM     38  C   UNL     1     146.067 139.502 131.039  0.00  0.00    +0.000 C 
ATOM     39  C   UNL     1     145.974 140.718 131.983  0.00  0.00    +0.000 C 
ATOM     40  C   UNL     1     147.392 141.093 132.455  0.00  0.00    +0.000 C 
ATOM     41  C   UNL     1     147.405 142.334 133.341  0.00  0.00    +0.000 C 
BRANCH  38  42
ATOM     42  N   UNL     1     144.735 139.153 130.514  0.00  0.00    +0.000 NA
ATOM     43  H   UNL     1     144.368 138.341 131.007  0.00  0.00    +0.000 HD
ATOM     44  H   UNL     1     144.867 138.856 129.541  0.00  0.00    +0.000 HD
ENDBRANCH  38  42
BRANCH  39  45
ATOM     45  O   UNL     1     145.349 141.799 131.268  0.00  0.00    +0.000 OA
ATOM     46  H   UNL     1     145.556 141.684 130.325  0.00  0.00    +0.000 HD
ENDBRANCH  39  45
ENDBRANCH  34  36
ENDBRANCH   3  34
TORSDOF 11
ENDMDL
