MODEL 1
REMARK VINA RESULT:      -7.2      0.000      0.000
REMARK  Name = Dronabinol.pdbqt.pdb
REMARK  3 active torsions:
REMARK  status: ('A' for Active; 'I' for Inactive)
REMARK    1  A    between atoms: C_13  and  O_18
REMARK    2  A    between atoms: C_16  and  C_20
REMARK    3  A    between atoms: C_21  and  C_22
REMARK                            x       y       z     vdW  Elec       q    Type
REMARK                         _______ _______ _______ _____ _____    ______ ____
ROOT
ATOM      1  O   UNL     1     134.030 122.433 136.212  0.00  0.00    +0.000 OA
ATOM      2  C   UNL     1     132.770 120.405 135.600  0.00  0.00    +0.000 A 
ATOM      3  C   UNL     1     133.330 120.536 134.233  0.00  0.00    +0.000 A 
ATOM      4  C   UNL     1     133.410 121.217 136.693  0.00  0.00    +0.000 C 
ATOM      5  C   UNL     1     131.823 119.327 135.710  0.00  0.00    +0.000 A 
ATOM      6  C   UNL     1     134.375 121.520 133.959  0.00  0.00    +0.000 A 
ATOM      7  C   UNL     1     131.388 118.422 134.541  0.00  0.00    +0.000 A 
ATOM      8  C   UNL     1     132.764 119.584 133.301  0.00  0.00    +0.000 A 
ATOM      9  C   UNL     1     131.913 118.590 133.216  0.00  0.00    +0.000 A 
ATOM     10  C   UNL     1     134.664 122.423 134.994  0.00  0.00    +0.000 A 
ATOM     11  C   UNL     1     132.320 121.664 137.705  0.00  0.00    +0.000 C 
ATOM     12  C   UNL     1     134.495 120.360 137.410  0.00  0.00    +0.000 C 
ATOM     13  C   UNL     1     135.081 121.637 132.756  0.00  0.00    +0.000 A 
ATOM     14  C   UNL     1     135.608 123.434 134.810  0.00  0.00    +0.000 A 
ATOM     15  C   UNL     1     131.015 118.455 132.027  0.00  0.00    +0.000 C 
ATOM     16  C   UNL     1     136.299 123.536 133.608  0.00  0.00    +0.000 A 
ATOM     17  C   UNL     1     136.040 122.637 132.580  0.00  0.00    +0.000 A 
ENDROOT
BRANCH  13  18
ATOM     18  O   UNL     1     134.851 120.767 131.728  0.00  0.00    +0.000 OA
ATOM     19  H   UNL     1     134.118 121.102 131.181  0.00  0.00    +0.000 HD
ENDBRANCH  13  18
BRANCH  16  20
ATOM     20  C   UNL     1     137.280 124.553 133.435  0.00  0.00    +0.000 C 
ATOM     21  C   UNL     1     138.344 125.640 133.239  0.00  0.00    +0.000 C 
BRANCH  21  22
ATOM     22  C   UNL     1     139.408 126.721 133.035  0.00  0.00    +0.000 C 
ATOM     23  C   UNL     1     140.476 127.800 132.826  0.00  0.00    +0.000 C 
ATOM     24  C   UNL     1     141.543 128.879 132.615  0.00  0.00    +0.000 C 
ENDBRANCH  21  22
ENDBRANCH  16  20
TORSDOF 3
ENDMDL
MODEL 2
REMARK VINA RESULT:      -6.7     34.580     37.356
REMARK  Name = Dronabinol.pdbqt.pdb
REMARK  3 active torsions:
REMARK  status: ('A' for Active; 'I' for Inactive)
REMARK    1  A    between atoms: C_13  and  O_18
REMARK    2  A    between atoms: C_16  and  C_20
REMARK    3  A    between atoms: C_21  and  C_22
REMARK                            x       y       z     vdW  Elec       q    Type
REMARK                         _______ _______ _______ _____ _____    ______ ____
ROOT
ATOM      1  O   UNL     1     142.767 125.170  97.979  0.00  0.00    +0.000 OA
ATOM      2  C   UNL     1     143.410 125.157 100.358  0.00  0.00    +0.000 A 
ATOM      3  C   UNL     1     143.135 126.615 100.384  0.00  0.00    +0.000 A 
ATOM      4  C   UNL     1     142.896 124.374  99.180  0.00  0.00    +0.000 C 
ATOM      5  C   UNL     1     143.947 124.673 101.603  0.00  0.00    +0.000 A 
ATOM      6  C   UNL     1     142.503 127.262  99.237  0.00  0.00    +0.000 A 
ATOM      7  C   UNL     1     144.251 125.557 102.827  0.00  0.00    +0.000 A 
ATOM      8  C   UNL     1     143.511 127.235 101.636  0.00  0.00    +0.000 A 
ATOM      9  C   UNL     1     144.014 126.972 102.819  0.00  0.00    +0.000 A 
ATOM     10  C   UNL     1     142.355 126.476  98.084  0.00  0.00    +0.000 A 
ATOM     11  C   UNL     1     143.903 123.243  98.838  0.00  0.00    +0.000 C 
ATOM     12  C   UNL     1     141.503 123.771  99.526  0.00  0.00    +0.000 C 
ATOM     13  C   UNL     1     142.060 128.590  99.199  0.00  0.00    +0.000 A 
ATOM     14  C   UNL     1     141.812 127.020  96.918  0.00  0.00    +0.000 A 
ATOM     15  C   UNL     1     144.995 127.905 103.454  0.00  0.00    +0.000 C 
ATOM     16  C   UNL     1     141.378 128.341  96.900  0.00  0.00    +0.000 A 
ATOM     17  C   UNL     1     141.498 129.128  98.039  0.00  0.00    +0.000 A 
ENDROOT
BRANCH  13  18
ATOM     18  O   UNL     1     142.162 129.387 100.304  0.00  0.00    +0.000 OA
ATOM     19  H   UNL     1     142.139 128.832 101.104  0.00  0.00    +0.000 HD
ENDBRANCH  13  18
BRANCH  16  20
ATOM     20  C   UNL     1     140.801 128.884  95.717  0.00  0.00    +0.000 C 
ATOM     21  C   UNL     1     140.170 129.475  94.451  0.00  0.00    +0.000 C 
BRANCH  21  22
ATOM     22  C   UNL     1     139.534 130.072  93.192  0.00  0.00    +0.000 C 
ATOM     23  C   UNL     1     138.902 130.673  91.933  0.00  0.00    +0.000 C 
ATOM     24  C   UNL     1     138.272 131.274  90.672  0.00  0.00    +0.000 C 
ENDBRANCH  21  22
ENDBRANCH  16  20
TORSDOF 3
ENDMDL
MODEL 3
REMARK VINA RESULT:      -6.5      4.651      6.816
REMARK  Name = Dronabinol.pdbqt.pdb
REMARK  3 active torsions:
REMARK  status: ('A' for Active; 'I' for Inactive)
REMARK    1  A    between atoms: C_13  and  O_18
REMARK    2  A    between atoms: C_16  and  C_20
REMARK    3  A    between atoms: C_21  and  C_22
REMARK                            x       y       z     vdW  Elec       q    Type
REMARK                         _______ _______ _______ _____ _____    ______ ____
ROOT
ATOM      1  O   UNL     1     136.781 122.640 136.833  0.00  0.00    +0.000 OA
ATOM      2  C   UNL     1     135.713 120.719 135.718  0.00  0.00    +0.000 A 
ATOM      3  C   UNL     1     135.100 120.371 137.023  0.00  0.00    +0.000 A 
ATOM      4  C   UNL     1     136.318 122.090 135.577  0.00  0.00    +0.000 C 
ATOM      5  C   UNL     1     135.429 119.746 134.696  0.00  0.00    +0.000 A 
ATOM      6  C   UNL     1     135.210 121.292 138.152  0.00  0.00    +0.000 A 
ATOM      7  C   UNL     1     134.617 118.456 134.918  0.00  0.00    +0.000 A 
ATOM      8  C   UNL     1     134.394 119.108 136.994  0.00  0.00    +0.000 A 
ATOM      9  C   UNL     1     134.065 118.119 136.199  0.00  0.00    +0.000 A 
ATOM     10  C   UNL     1     136.061 122.393 137.976  0.00  0.00    +0.000 A 
ATOM     11  C   UNL     1     137.568 122.008 134.660  0.00  0.00    +0.000 C 
ATOM     12  C   UNL     1     135.264 123.062 134.969  0.00  0.00    +0.000 C 
ATOM     13  C   UNL     1     134.554 121.147 139.381  0.00  0.00    +0.000 A 
ATOM     14  C   UNL     1     136.273 123.300 139.016  0.00  0.00    +0.000 A 
ATOM     15  C   UNL     1     134.102 116.705 136.687  0.00  0.00    +0.000 C 
ATOM     16  C   UNL     1     135.614 123.139 140.230  0.00  0.00    +0.000 A 
ATOM     17  C   UNL     1     134.751 122.065 140.415  0.00  0.00    +0.000 A 
ENDROOT
BRANCH  13  18
ATOM     18  O   UNL     1     133.697 120.103 139.592  0.00  0.00    +0.000 OA
ATOM     19  H   UNL     1     132.831 120.450 139.873  0.00  0.00    +0.000 HD
ENDBRANCH  13  18
BRANCH  16  20
ATOM     20  C   UNL     1     135.813 124.081 141.279  0.00  0.00    +0.000 C 
ATOM     21  C   UNL     1     136.042 125.093 142.407  0.00  0.00    +0.000 C 
BRANCH  21  22
ATOM     22  C   UNL     1     136.281 126.105 143.532  0.00  0.00    +0.000 C 
ATOM     23  C   UNL     1     136.520 127.113 144.660  0.00  0.00    +0.000 C 
ATOM     24  C   UNL     1     136.762 128.120 145.789  0.00  0.00    +0.000 C 
ENDBRANCH  21  22
ENDBRANCH  16  20
TORSDOF 3
ENDMDL
MODEL 4
REMARK VINA RESULT:      -6.5     35.217     37.940
REMARK  Name = Dronabinol.pdbqt.pdb
REMARK  3 active torsions:
REMARK  status: ('A' for Active; 'I' for Inactive)
REMARK    1  A    between atoms: C_13  and  O_18
REMARK    2  A    between atoms: C_16  and  C_20
REMARK    3  A    between atoms: C_21  and  C_22
REMARK                            x       y       z     vdW  Elec       q    Type
REMARK                         _______ _______ _______ _____ _____    ______ ____
ROOT
ATOM      1  O   UNL     1     145.073 125.696  97.550  0.00  0.00    +0.000 OA
ATOM      2  C   UNL     1     144.206 126.663  99.645  0.00  0.00    +0.000 A 
ATOM      3  C   UNL     1     143.185 125.588  99.655  0.00  0.00    +0.000 A 
ATOM      4  C   UNL     1     145.378 126.500  98.714  0.00  0.00    +0.000 C 
ATOM      5  C   UNL     1     144.025 127.609 100.715  0.00  0.00    +0.000 A 
ATOM      6  C   UNL     1     143.267 124.490  98.695  0.00  0.00    +0.000 A 
ATOM      7  C   UNL     1     142.879 127.558 101.743  0.00  0.00    +0.000 A 
ATOM      8  C   UNL     1     142.204 125.754 100.706  0.00  0.00    +0.000 A 
ATOM      9  C   UNL     1     141.878 126.530 101.712  0.00  0.00    +0.000 A 
ATOM     10  C   UNL     1     144.231 124.619  97.684  0.00  0.00    +0.000 A 
ATOM     11  C   UNL     1     145.801 127.893  98.173  0.00  0.00    +0.000 C 
ATOM     12  C   UNL     1     146.560 125.836  99.479  0.00  0.00    +0.000 C 
ATOM     13  C   UNL     1     142.456 123.348  98.700  0.00  0.00    +0.000 A 
ATOM     14  C   UNL     1     144.351 123.648  96.688  0.00  0.00    +0.000 A 
ATOM     15  C   UNL     1     140.445 126.866 101.982  0.00  0.00    +0.000 C 
ATOM     16  C   UNL     1     143.536 122.521  96.709  0.00  0.00    +0.000 A 
ATOM     17  C   UNL     1     142.590 122.367  97.715  0.00  0.00    +0.000 A 
ENDROOT
BRANCH  13  18
ATOM     18  O   UNL     1     141.518 123.166  99.677  0.00  0.00    +0.000 OA
ATOM     19  H   UNL     1     141.574 123.900 100.316  0.00  0.00    +0.000 HD
ENDBRANCH  13  18
BRANCH  16  20
ATOM     20  C   UNL     1     143.680 121.521  95.706  0.00  0.00    +0.000 C 
ATOM     21  C   UNL     1     143.849 120.444  94.628  0.00  0.00    +0.000 C 
BRANCH  21  22
ATOM     22  C   UNL     1     144.028 119.368  93.554  0.00  0.00    +0.000 C 
ATOM     23  C   UNL     1     144.212 118.292  92.479  0.00  0.00    +0.000 C 
ATOM     24  C   UNL     1     144.397 117.214  91.406  0.00  0.00    +0.000 C 
ENDBRANCH  21  22
ENDBRANCH  16  20
TORSDOF 3
ENDMDL
MODEL 5
REMARK VINA RESULT:      -6.2      2.507      2.719
REMARK  Name = Dronabinol.pdbqt.pdb
REMARK  3 active torsions:
REMARK  status: ('A' for Active; 'I' for Inactive)
REMARK    1  A    between atoms: C_13  and  O_18
REMARK    2  A    between atoms: C_16  and  C_20
REMARK    3  A    between atoms: C_21  and  C_22
REMARK                            x       y       z     vdW  Elec       q    Type
REMARK                         _______ _______ _______ _____ _____    ______ ____
ROOT
ATOM      1  O   UNL     1     133.800 121.757 136.998  0.00  0.00    +0.000 OA
ATOM      2  C   UNL     1     133.485 119.366 137.508  0.00  0.00    +0.000 A 
ATOM      3  C   UNL     1     134.528 119.069 136.496  0.00  0.00    +0.000 A 
ATOM      4  C   UNL     1     133.362 120.790 137.981  0.00  0.00    +0.000 C 
ATOM      5  C   UNL     1     132.889 118.176 138.055  0.00  0.00    +0.000 A 
ATOM      6  C   UNL     1     135.303 120.155 135.900  0.00  0.00    +0.000 A 
ATOM      7  C   UNL     1     133.246 116.741 137.623  0.00  0.00    +0.000 A 
ATOM      8  C   UNL     1     134.681 117.652 136.246  0.00  0.00    +0.000 A 
ATOM      9  C   UNL     1     134.230 116.476 136.613  0.00  0.00    +0.000 A 
ATOM     10  C   UNL     1     134.878 121.458 136.201  0.00  0.00    +0.000 A 
ATOM     11  C   UNL     1     131.868 121.110 138.260  0.00  0.00    +0.000 C 
ATOM     12  C   UNL     1     134.207 120.982 139.275  0.00  0.00    +0.000 C 
ATOM     13  C   UNL     1     136.405 119.993 135.052  0.00  0.00    +0.000 A 
ATOM     14  C   UNL     1     135.520 122.562 135.637  0.00  0.00    +0.000 A 
ATOM     15  C   UNL     1     134.001 115.398 135.601  0.00  0.00    +0.000 C 
ATOM     16  C   UNL     1     136.613 122.381 134.797  0.00  0.00    +0.000 A 
ATOM     17  C   UNL     1     137.060 121.098 134.504  0.00  0.00    +0.000 A 
ENDROOT
BRANCH  13  18
ATOM     18  O   UNL     1     136.869 118.744 134.749  0.00  0.00    +0.000 OA
ATOM     19  H   UNL     1     137.316 118.769 133.883  0.00  0.00    +0.000 HD
ENDBRANCH  13  18
BRANCH  16  20
ATOM     20  C   UNL     1     137.281 123.511 134.245  0.00  0.00    +0.000 C 
ATOM     21  C   UNL     1     137.991 124.729 133.642  0.00  0.00    +0.000 C 
BRANCH  21  22
ATOM     22  C   UNL     1     138.690 125.947 133.033  0.00  0.00    +0.000 C 
ATOM     23  C   UNL     1     139.387 127.167 132.421  0.00  0.00    +0.000 C 
ATOM     24  C   UNL     1     140.081 128.389 131.810  0.00  0.00    +0.000 C 
ENDBRANCH  21  22
ENDBRANCH  16  20
TORSDOF 3
ENDMDL
MODEL 6
REMARK VINA RESULT:      -6.2      1.675      3.483
REMARK  Name = Dronabinol.pdbqt.pdb
REMARK  3 active torsions:
REMARK  status: ('A' for Active; 'I' for Inactive)
REMARK    1  A    between atoms: C_13  and  O_18
REMARK    2  A    between atoms: C_16  and  C_20
REMARK    3  A    between atoms: C_21  and  C_22
REMARK                            x       y       z     vdW  Elec       q    Type
REMARK                         _______ _______ _______ _____ _____    ______ ____
ROOT
ATOM      1  O   UNL     1     135.038 119.994 133.941  0.00  0.00    +0.000 OA
ATOM      2  C   UNL     1     133.038 119.946 135.381  0.00  0.00    +0.000 A 
ATOM      3  C   UNL     1     133.336 121.352 135.749  0.00  0.00    +0.000 A 
ATOM      4  C   UNL     1     133.754 119.374 134.187  0.00  0.00    +0.000 C 
ATOM      5  C   UNL     1     131.918 119.408 136.108  0.00  0.00    +0.000 A 
ATOM      6  C   UNL     1     134.384 122.087 135.045  0.00  0.00    +0.000 A 
ATOM      7  C   UNL     1     131.127 120.173 137.186  0.00  0.00    +0.000 A 
ATOM      8  C   UNL     1     132.468 121.855 136.791  0.00  0.00    +0.000 A 
ATOM      9  C   UNL     1     131.456 121.520 137.555  0.00  0.00    +0.000 A 
ATOM     10  C   UNL     1     135.182 121.342 134.164  0.00  0.00    +0.000 A 
ATOM     11  C   UNL     1     134.048 117.869 134.438  0.00  0.00    +0.000 C 
ATOM     12  C   UNL     1     132.869 119.547 132.918  0.00  0.00    +0.000 C 
ATOM     13  C   UNL     1     134.656 123.453 135.197  0.00  0.00    +0.000 A 
ATOM     14  C   UNL     1     136.244 121.943 133.486  0.00  0.00    +0.000 A 
ATOM     15  C   UNL     1     131.413 121.940 138.990  0.00  0.00    +0.000 C 
ATOM     16  C   UNL     1     136.500 123.300 133.651  0.00  0.00    +0.000 A 
ATOM     17  C   UNL     1     135.706 124.058 134.503  0.00  0.00    +0.000 A 
ENDROOT
BRANCH  13  18
ATOM     18  O   UNL     1     133.892 124.225 136.026  0.00  0.00    +0.000 OA
ATOM     19  H   UNL     1     133.085 123.735 136.267  0.00  0.00    +0.000 HD
ENDBRANCH  13  18
BRANCH  16  20
ATOM     20  C   UNL     1     137.567 123.915 132.936  0.00  0.00    +0.000 C 
ATOM     21  C   UNL     1     138.711 124.572 132.155  0.00  0.00    +0.000 C 
BRANCH  21  22
ATOM     22  C   UNL     1     139.848 125.227 131.366  0.00  0.00    +0.000 C 
ATOM     23  C   UNL     1     140.985 125.879 130.573  0.00  0.00    +0.000 C 
ATOM     24  C   UNL     1     142.121 126.531 129.778  0.00  0.00    +0.000 C 
ENDBRANCH  21  22
ENDBRANCH  16  20
TORSDOF 3
ENDMDL
MODEL 7
REMARK VINA RESULT:      -5.9     26.491     28.513
REMARK  Name = Dronabinol.pdbqt.pdb
REMARK  3 active torsions:
REMARK  status: ('A' for Active; 'I' for Inactive)
REMARK    1  A    between atoms: C_13  and  O_18
REMARK    2  A    between atoms: C_16  and  C_20
REMARK    3  A    between atoms: C_21  and  C_22
REMARK                            x       y       z     vdW  Elec       q    Type
REMARK                         _______ _______ _______ _____ _____    ______ ____
ROOT
ATOM      1  O   UNL     1     147.455 114.121 108.046  0.00  0.00    +0.000 OA
ATOM      2  C   UNL     1     145.457 114.591 106.682  0.00  0.00    +0.000 A 
ATOM      3  C   UNL     1     144.708 114.791 107.947  0.00  0.00    +0.000 A 
ATOM      4  C   UNL     1     146.959 114.566 106.761  0.00  0.00    +0.000 C 
ATOM      5  C   UNL     1     144.613 114.677 105.519  0.00  0.00    +0.000 A 
ATOM      6  C   UNL     1     145.420 114.828 109.222  0.00  0.00    +0.000 A 
ATOM      7  C   UNL     1     143.090 114.906 105.559  0.00  0.00    +0.000 A 
ATOM      8  C   UNL     1     143.289 114.979 107.735  0.00  0.00    +0.000 A 
ATOM      9  C   UNL     1     142.378 115.059 106.795  0.00  0.00    +0.000 A 
ATOM     10  C   UNL     1     146.780 114.485 109.185  0.00  0.00    +0.000 A 
ATOM     11  C   UNL     1     147.511 113.557 105.717  0.00  0.00    +0.000 C 
ATOM     12  C   UNL     1     147.518 115.992 106.481  0.00  0.00    +0.000 C 
ATOM     13  C   UNL     1     144.849 115.155 110.458  0.00  0.00    +0.000 A 
ATOM     14  C   UNL     1     147.533 114.438 110.359  0.00  0.00    +0.000 A 
ATOM     15  C   UNL     1     141.037 114.421 106.977  0.00  0.00    +0.000 C 
ATOM     16  C   UNL     1     146.949 114.766 111.578  0.00  0.00    +0.000 A 
ATOM     17  C   UNL     1     145.608 115.128 111.630  0.00  0.00    +0.000 A 
ENDROOT
BRANCH  13  18
ATOM     18  O   UNL     1     143.534 115.518 110.542  0.00  0.00    +0.000 OA
ATOM     19  H   UNL     1     143.453 116.303 111.114  0.00  0.00    +0.000 HD
ENDBRANCH  13  18
BRANCH  16  20
ATOM     20  C   UNL     1     147.728 114.742 112.769  0.00  0.00    +0.000 C 
ATOM     21  C   UNL     1     148.574 114.726 114.047  0.00  0.00    +0.000 C 
BRANCH  21  22
ATOM     22  C   UNL     1     149.424 114.720 115.321  0.00  0.00    +0.000 C 
ATOM     23  C   UNL     1     150.275 114.719 116.595  0.00  0.00    +0.000 C 
ATOM     24  C   UNL     1     151.123 114.720 117.871  0.00  0.00    +0.000 C 
ENDBRANCH  21  22
ENDBRANCH  16  20
TORSDOF 3
ENDMDL
MODEL 8
REMARK VINA RESULT:      -5.8      2.654      7.542
REMARK  Name = Dronabinol.pdbqt.pdb
REMARK  3 active torsions:
REMARK  status: ('A' for Active; 'I' for Inactive)
REMARK    1  A    between atoms: C_13  and  O_18
REMARK    2  A    between atoms: C_16  and  C_20
REMARK    3  A    between atoms: C_21  and  C_22
REMARK                            x       y       z     vdW  Elec       q    Type
REMARK                         _______ _______ _______ _____ _____    ______ ____
ROOT
ATOM      1  O   UNL     1     133.597 120.079 135.473  0.00  0.00    +0.000 OA
ATOM      2  C   UNL     1     135.462 121.496 136.240  0.00  0.00    +0.000 A 
ATOM      3  C   UNL     1     135.849 121.661 134.817  0.00  0.00    +0.000 A 
ATOM      4  C   UNL     1     134.095 120.937 136.527  0.00  0.00    +0.000 C 
ATOM      5  C   UNL     1     136.393 122.120 137.143  0.00  0.00    +0.000 A 
ATOM      6  C   UNL     1     134.972 121.169 133.757  0.00  0.00    +0.000 A 
ATOM      7  C   UNL     1     137.680 122.846 136.708  0.00  0.00    +0.000 A 
ATOM      8  C   UNL     1     137.101 122.368 134.654  0.00  0.00    +0.000 A 
ATOM      9  C   UNL     1     138.057 122.961 135.329  0.00  0.00    +0.000 A 
ATOM     10  C   UNL     1     133.876 120.395 134.166  0.00  0.00    +0.000 A 
ATOM     11  C   UNL     1     134.159 120.054 137.803  0.00  0.00    +0.000 C 
ATOM     12  C   UNL     1     133.088 122.107 136.730  0.00  0.00    +0.000 C 
ATOM     13  C   UNL     1     135.154 121.395 132.387  0.00  0.00    +0.000 A 
ATOM     14  C   UNL     1     133.011 119.835 133.225  0.00  0.00    +0.000 A 
ATOM     15  C   UNL     1     139.488 122.802 134.922  0.00  0.00    +0.000 C 
ATOM     16  C   UNL     1     133.208 120.069 131.868  0.00  0.00    +0.000 A 
ATOM     17  C   UNL     1     134.276 120.851 131.446  0.00  0.00    +0.000 A 
ENDROOT
BRANCH  13  18
ATOM     18  O   UNL     1     136.193 122.162 131.941  0.00  0.00    +0.000 OA
ATOM     19  H   UNL     1     137.035 121.733 132.181  0.00  0.00    +0.000 HD
ENDBRANCH  13  18
BRANCH  16  20
ATOM     20  C   UNL     1     132.307 119.518 130.913  0.00  0.00    +0.000 C 
ATOM     21  C   UNL     1     131.328 118.924 129.895  0.00  0.00    +0.000 C 
BRANCH  21  22
ATOM     22  C   UNL     1     130.341 118.332 128.884  0.00  0.00    +0.000 C 
ATOM     23  C   UNL     1     129.358 117.741 127.868  0.00  0.00    +0.000 C 
ATOM     24  C   UNL     1     128.376 117.148 126.853  0.00  0.00    +0.000 C 
ENDBRANCH  21  22
ENDBRANCH  16  20
TORSDOF 3
ENDMDL
MODEL 9
REMARK VINA RESULT:      -5.7     21.244     23.785
REMARK  Name = Dronabinol.pdbqt.pdb
REMARK  3 active torsions:
REMARK  status: ('A' for Active; 'I' for Inactive)
REMARK    1  A    between atoms: C_13  and  O_18
REMARK    2  A    between atoms: C_16  and  C_20
REMARK    3  A    between atoms: C_21  and  C_22
REMARK                            x       y       z     vdW  Elec       q    Type
REMARK                         _______ _______ _______ _____ _____    ______ ____
ROOT
ATOM      1  O   UNL     1     149.715 141.935 130.616  0.00  0.00    +0.000 OA
ATOM      2  C   UNL     1     148.636 142.859 132.631  0.00  0.00    +0.000 A 
ATOM      3  C   UNL     1     147.508 141.928 132.386  0.00  0.00    +0.000 A 
ATOM      4  C   UNL     1     149.917 142.610 131.880  0.00  0.00    +0.000 C 
ATOM      5  C   UNL     1     148.395 143.744 133.740  0.00  0.00    +0.000 A 
ATOM      6  C   UNL     1     147.617 140.898 131.356  0.00  0.00    +0.000 A 
ATOM      7  C   UNL     1     147.098 143.770 134.570  0.00  0.00    +0.000 A 
ATOM      8  C   UNL     1     146.394 142.147 133.285  0.00  0.00    +0.000 A 
ATOM      9  C   UNL     1     146.001 142.887 134.294  0.00  0.00    +0.000 A 
ATOM     10  C   UNL     1     148.742 140.970 130.522  0.00  0.00    +0.000 A 
ATOM     11  C   UNL     1     150.584 143.970 131.538  0.00  0.00    +0.000 C 
ATOM     12  C   UNL     1     150.871 141.745 132.756  0.00  0.00    +0.000 C 
ATOM     13  C   UNL     1     146.687 139.874 131.134  0.00  0.00    +0.000 A 
ATOM     14  C   UNL     1     148.909 140.064 129.473  0.00  0.00    +0.000 A 
ATOM     15  C   UNL     1     144.593 143.387 134.369  0.00  0.00    +0.000 C 
ATOM     16  C   UNL     1     147.975 139.054 129.267  0.00  0.00    +0.000 A 
ATOM     17  C   UNL     1     146.865 138.955 130.097  0.00  0.00    +0.000 A 
ENDROOT
BRANCH  13  18
ATOM     18  O   UNL     1     145.588 139.749 131.935  0.00  0.00    +0.000 OA
ATOM     19  H   UNL     1     145.626 138.894 132.401  0.00  0.00    +0.000 HD
ENDBRANCH  13  18
BRANCH  16  20
ATOM     20  C   UNL     1     148.163 138.116 128.213  0.00  0.00    +0.000 C 
ATOM     21  C   UNL     1     148.358 137.096 127.086  0.00  0.00    +0.000 C 
BRANCH  21  22
ATOM     22  C   UNL     1     148.546 136.070 125.964  0.00  0.00    +0.000 C 
ATOM     23  C   UNL     1     148.730 135.046 124.839  0.00  0.00    +0.000 C 
ATOM     24  C   UNL     1     148.913 134.023 123.713  0.00  0.00    +0.000 C 
ENDBRANCH  21  22
ENDBRANCH  16  20
TORSDOF 3
ENDMDL
