MODEL 1
REMARK VINA RESULT:      -7.5      0.000      0.000
REMARK  Name = Ellipticine.pdbqt.pdb
REMARK  0 active torsions:
REMARK  status: ('A' for Active; 'I' for Inactive)
REMARK                            x       y       z     vdW  Elec       q    Type
REMARK                         _______ _______ _______ _____ _____    ______ ____
ROOT
ATOM      1  N   UNL     1     137.463 122.886 132.219  0.00  0.00    +0.000 N 
ATOM      2  N   UNL     1     133.168 120.670 136.447  0.00  0.00    +0.000 NA
ATOM      3  C   UNL     1     137.117 122.717 134.426  0.00  0.00    +0.000 A 
ATOM      4  C   UNL     1     136.574 122.428 133.170  0.00  0.00    +0.000 A 
ATOM      5  C   UNL     1     136.383 122.340 135.580  0.00  0.00    +0.000 A 
ATOM      6  C   UNL     1     138.377 123.372 134.189  0.00  0.00    +0.000 A 
ATOM      7  C   UNL     1     135.339 121.784 133.002  0.00  0.00    +0.000 A 
ATOM      8  C   UNL     1     134.612 121.411 134.148  0.00  0.00    +0.000 A 
ATOM      9  C   UNL     1     135.135 121.690 135.429  0.00  0.00    +0.000 A 
ATOM     10  C   UNL     1     138.559 123.460 132.811  0.00  0.00    +0.000 A 
ATOM     11  C   UNL     1     136.940 122.637 136.955  0.00  0.00    +0.000 C 
ATOM     12  C   UNL     1     139.379 123.898 135.028  0.00  0.00    +0.000 A 
ATOM     13  C   UNL     1     134.848 121.522 131.597  0.00  0.00    +0.000 C 
ATOM     14  C   UNL     1     139.686 124.044 132.224  0.00  0.00    +0.000 A 
ATOM     15  C   UNL     1     133.370 120.764 134.057  0.00  0.00    +0.000 A 
ATOM     16  C   UNL     1     134.364 121.293 136.521  0.00  0.00    +0.000 A 
ATOM     17  C   UNL     1     140.513 124.486 134.462  0.00  0.00    +0.000 A 
ATOM     18  C   UNL     1     140.660 124.556 133.083  0.00  0.00    +0.000 A 
ATOM     19  C   UNL     1     132.696 120.418 135.213  0.00  0.00    +0.000 A 
ATOM     20  H   UNL     1     137.315 122.805 131.219  0.00  0.00    +0.000 HD
ENDROOT
TORSDOF 0
ENDMDL
MODEL 2
REMARK VINA RESULT:      -7.4     32.600     35.274
REMARK  Name = Ellipticine.pdbqt.pdb
REMARK  0 active torsions:
REMARK  status: ('A' for Active; 'I' for Inactive)
REMARK                            x       y       z     vdW  Elec       q    Type
REMARK                         _______ _______ _______ _____ _____    ______ ____
ROOT
ATOM      1  N   UNL     1     141.042 124.296  99.116  0.00  0.00    +0.000 N 
ATOM      2  N   UNL     1     145.551 126.407 103.171  0.00  0.00    +0.000 NA
ATOM      3  C   UNL     1     143.241 124.137  99.513  0.00  0.00    +0.000 A 
ATOM      4  C   UNL     1     142.050 124.719  99.958  0.00  0.00    +0.000 A 
ATOM      5  C   UNL     1     144.436 124.423 100.223  0.00  0.00    +0.000 A 
ATOM      6  C   UNL     1     142.905 123.342  98.362  0.00  0.00    +0.000 A 
ATOM      7  C   UNL     1     141.985 125.570 101.072  0.00  0.00    +0.000 A 
ATOM      8  C   UNL     1     143.172 125.852 101.775  0.00  0.00    +0.000 A 
ATOM      9  C   UNL     1     144.389 125.278 101.348  0.00  0.00    +0.000 A 
ATOM     10  C   UNL     1     141.535 123.463  98.145  0.00  0.00    +0.000 A 
ATOM     11  C   UNL     1     145.743 123.810  99.769  0.00  0.00    +0.000 C 
ATOM     12  C   UNL     1     143.649 122.527  97.484  0.00  0.00    +0.000 A 
ATOM     13  C   UNL     1     140.644 126.143 101.464  0.00  0.00    +0.000 C 
ATOM     14  C   UNL     1     140.865 122.817  97.100  0.00  0.00    +0.000 A 
ATOM     15  C   UNL     1     143.183 126.693 102.897  0.00  0.00    +0.000 A 
ATOM     16  C   UNL     1     145.527 125.599 102.089  0.00  0.00    +0.000 A 
ATOM     17  C   UNL     1     143.000 121.873  96.434  0.00  0.00    +0.000 A 
ATOM     18  C   UNL     1     141.631 122.018  96.249  0.00  0.00    +0.000 A 
ATOM     19  C   UNL     1     144.376 126.938 103.553  0.00  0.00    +0.000 A 
ATOM     20  H   UNL     1     140.071 124.570  99.213  0.00  0.00    +0.000 HD
ENDROOT
TORSDOF 0
ENDMDL
MODEL 3
REMARK VINA RESULT:      -7.3     32.527     34.588
REMARK  Name = Ellipticine.pdbqt.pdb
REMARK  0 active torsions:
REMARK  status: ('A' for Active; 'I' for Inactive)
REMARK                            x       y       z     vdW  Elec       q    Type
REMARK                         _______ _______ _______ _____ _____    ______ ____
ROOT
ATOM      1  N   UNL     1     143.803 126.454 102.349  0.00  0.00    +0.000 N 
ATOM      2  N   UNL     1     142.297 122.432  97.576  0.00  0.00    +0.000 NA
ATOM      3  C   UNL     1     144.744 124.975 100.954  0.00  0.00    +0.000 A 
ATOM      4  C   UNL     1     143.535 125.575 101.321  0.00  0.00    +0.000 A 
ATOM      5  C   UNL     1     144.731 124.021  99.905  0.00  0.00    +0.000 A 
ATOM      6  C   UNL     1     145.756 125.534 101.811  0.00  0.00    +0.000 A 
ATOM      7  C   UNL     1     142.314 125.275 100.697  0.00  0.00    +0.000 A 
ATOM      8  C   UNL     1     142.304 124.327  99.656  0.00  0.00    +0.000 A 
ATOM      9  C   UNL     1     143.510 123.706  99.265  0.00  0.00    +0.000 A 
ATOM     10  C   UNL     1     145.138 126.447 102.663  0.00  0.00    +0.000 A 
ATOM     11  C   UNL     1     146.022 123.352  99.483  0.00  0.00    +0.000 C 
ATOM     12  C   UNL     1     147.147 125.343 101.937  0.00  0.00    +0.000 A 
ATOM     13  C   UNL     1     141.068 125.983 101.173  0.00  0.00    +0.000 C 
ATOM     14  C   UNL     1     145.831 127.179 103.633  0.00  0.00    +0.000 A 
ATOM     15  C   UNL     1     141.121 123.978  98.987  0.00  0.00    +0.000 A 
ATOM     16  C   UNL     1     143.428 122.778  98.227  0.00  0.00    +0.000 A 
ATOM     17  C   UNL     1     147.858 126.064 102.899  0.00  0.00    +0.000 A 
ATOM     18  C   UNL     1     147.207 126.966 103.731  0.00  0.00    +0.000 A 
ATOM     19  C   UNL     1     141.165 123.041  97.971  0.00  0.00    +0.000 A 
ATOM     20  H   UNL     1     143.100 127.024 102.805  0.00  0.00    +0.000 HD
ENDROOT
TORSDOF 0
ENDMDL
MODEL 4
REMARK VINA RESULT:      -6.8     33.528     36.114
REMARK  Name = Ellipticine.pdbqt.pdb
REMARK  0 active torsions:
REMARK  status: ('A' for Active; 'I' for Inactive)
REMARK                            x       y       z     vdW  Elec       q    Type
REMARK                         _______ _______ _______ _____ _____    ______ ____
ROOT
ATOM      1  N   UNL     1     144.051 125.319 100.338  0.00  0.00    +0.000 N 
ATOM      2  N   UNL     1     142.245 121.486  95.513  0.00  0.00    +0.000 NA
ATOM      3  C   UNL     1     142.210 124.498  99.360  0.00  0.00    +0.000 A 
ATOM      4  C   UNL     1     143.608 124.505  99.316  0.00  0.00    +0.000 A 
ATOM      5  C   UNL     1     141.510 123.724  98.399  0.00  0.00    +0.000 A 
ATOM      6  C   UNL     1     141.829 125.347 100.458  0.00  0.00    +0.000 A 
ATOM      7  C   UNL     1     144.346 123.782  98.365  0.00  0.00    +0.000 A 
ATOM      8  C   UNL     1     143.648 123.015  97.413  0.00  0.00    +0.000 A 
ATOM      9  C   UNL     1     142.237 122.989  97.433  0.00  0.00    +0.000 A 
ATOM     10  C   UNL     1     142.995 125.838 101.041  0.00  0.00    +0.000 A 
ATOM     11  C   UNL     1     139.997 123.693  98.417  0.00  0.00    +0.000 C 
ATOM     12  C   UNL     1     140.592 125.740 101.008  0.00  0.00    +0.000 A 
ATOM     13  C   UNL     1     145.853 123.862  98.410  0.00  0.00    +0.000 C 
ATOM     14  C   UNL     1     142.994 126.701 102.143  0.00  0.00    +0.000 A 
ATOM     15  C   UNL     1     144.319 122.268  96.433  0.00  0.00    +0.000 A 
ATOM     16  C   UNL     1     141.611 122.209  96.461  0.00  0.00    +0.000 A 
ATOM     17  C   UNL     1     140.569 126.601 102.107  0.00  0.00    +0.000 A 
ATOM     18  C   UNL     1     141.752 127.071 102.663  0.00  0.00    +0.000 A 
ATOM     19  C   UNL     1     143.588 121.531  95.520  0.00  0.00    +0.000 A 
ATOM     20  H   UNL     1     145.029 125.501 100.534  0.00  0.00    +0.000 HD
ENDROOT
TORSDOF 0
ENDMDL
MODEL 5
REMARK VINA RESULT:      -6.6      1.996      5.301
REMARK  Name = Ellipticine.pdbqt.pdb
REMARK  0 active torsions:
REMARK  status: ('A' for Active; 'I' for Inactive)
REMARK                            x       y       z     vdW  Elec       q    Type
REMARK                         _______ _______ _______ _____ _____    ______ ____
ROOT
ATOM      1  N   UNL     1     133.500 121.566 137.790  0.00  0.00    +0.000 N 
ATOM      2  N   UNL     1     136.259 121.955 132.005  0.00  0.00    +0.000 NA
ATOM      3  C   UNL     1     135.405 122.219 136.808  0.00  0.00    +0.000 A 
ATOM      4  C   UNL     1     134.140 121.672 136.572  0.00  0.00    +0.000 A 
ATOM      5  C   UNL     1     136.265 122.429 135.700  0.00  0.00    +0.000 A 
ATOM      6  C   UNL     1     135.499 122.439 138.227  0.00  0.00    +0.000 A 
ATOM      7  C   UNL     1     133.685 121.323 135.291  0.00  0.00    +0.000 A 
ATOM      8  C   UNL     1     134.541 121.532 134.193  0.00  0.00    +0.000 A 
ATOM      9  C   UNL     1     135.823 122.083 134.401  0.00  0.00    +0.000 A 
ATOM     10  C   UNL     1     134.302 122.023 138.804  0.00  0.00    +0.000 A 
ATOM     11  C   UNL     1     137.641 123.020 135.918  0.00  0.00    +0.000 C 
ATOM     12  C   UNL     1     136.501 122.957 139.073  0.00  0.00    +0.000 A 
ATOM     13  C   UNL     1     132.299 120.738 135.152  0.00  0.00    +0.000 C 
ATOM     14  C   UNL     1     134.049 122.095 140.178  0.00  0.00    +0.000 A 
ATOM     15  C   UNL     1     134.154 121.207 132.884  0.00  0.00    +0.000 A 
ATOM     16  C   UNL     1     136.619 122.264 133.269  0.00  0.00    +0.000 A 
ATOM     17  C   UNL     1     136.269 123.038 140.448  0.00  0.00    +0.000 A 
ATOM     18  C   UNL     1     135.062 122.613 140.987  0.00  0.00    +0.000 A 
ATOM     19  C   UNL     1     135.032 121.432 131.839  0.00  0.00    +0.000 A 
ATOM     20  H   UNL     1     132.563 121.198 137.908  0.00  0.00    +0.000 HD
ENDROOT
TORSDOF 0
ENDMDL
MODEL 6
REMARK VINA RESULT:      -6.5     33.404     35.481
REMARK  Name = Ellipticine.pdbqt.pdb
REMARK  0 active torsions:
REMARK  status: ('A' for Active; 'I' for Inactive)
REMARK                            x       y       z     vdW  Elec       q    Type
REMARK                         _______ _______ _______ _____ _____    ______ ____
ROOT
ATOM      1  N   UNL     1     142.398 124.158  99.136  0.00  0.00    +0.000 N 
ATOM      2  N   UNL     1     147.392 128.033 100.263  0.00  0.00    +0.000 NA
ATOM      3  C   UNL     1     142.980 125.937 100.366  0.00  0.00    +0.000 A 
ATOM      4  C   UNL     1     143.438 125.020  99.416  0.00  0.00    +0.000 A 
ATOM      5  C   UNL     1     143.875 126.939 100.822  0.00  0.00    +0.000 A 
ATOM      6  C   UNL     1     141.612 125.589 100.648  0.00  0.00    +0.000 A 
ATOM      7  C   UNL     1     144.741 125.046  98.895  0.00  0.00    +0.000 A 
ATOM      8  C   UNL     1     145.628 126.041  99.349  0.00  0.00    +0.000 A 
ATOM      9  C   UNL     1     145.193 126.980 100.308  0.00  0.00    +0.000 A 
ATOM     10  C   UNL     1     141.285 124.482  99.868  0.00  0.00    +0.000 A 
ATOM     11  C   UNL     1     143.413 127.948 101.850  0.00  0.00    +0.000 C 
ATOM     12  C   UNL     1     140.622 126.120 101.499  0.00  0.00    +0.000 A 
ATOM     13  C   UNL     1     145.130 124.005  97.871  0.00  0.00    +0.000 C 
ATOM     14  C   UNL     1     140.024 123.876  99.891  0.00  0.00    +0.000 A 
ATOM     15  C   UNL     1     146.945 126.128  98.872  0.00  0.00    +0.000 A 
ATOM     16  C   UNL     1     146.122 127.938 100.713  0.00  0.00    +0.000 A 
ATOM     17  C   UNL     1     139.357 125.530 101.538  0.00  0.00    +0.000 A 
ATOM     18  C   UNL     1     139.067 124.426 100.746  0.00  0.00    +0.000 A 
ATOM     19  C   UNL     1     147.777 127.124  99.350  0.00  0.00    +0.000 A 
ATOM     20  H   UNL     1     142.459 123.391  98.476  0.00  0.00    +0.000 HD
ENDROOT
TORSDOF 0
ENDMDL
MODEL 7
REMARK VINA RESULT:      -6.4     33.142     36.037
REMARK  Name = Ellipticine.pdbqt.pdb
REMARK  0 active torsions:
REMARK  status: ('A' for Active; 'I' for Inactive)
REMARK                            x       y       z     vdW  Elec       q    Type
REMARK                         _______ _______ _______ _____ _____    ______ ____
ROOT
ATOM      1  N   UNL     1     142.265 124.449 100.383  0.00  0.00    +0.000 N 
ATOM      2  N   UNL     1     147.107 128.665 100.500  0.00  0.00    +0.000 NA
ATOM      3  C   UNL     1     143.376 125.864  99.048  0.00  0.00    +0.000 A 
ATOM      4  C   UNL     1     143.296 125.365 100.352  0.00  0.00    +0.000 A 
ATOM      5  C   UNL     1     144.371 126.833  98.758  0.00  0.00    +0.000 A 
ATOM      6  C   UNL     1     142.344 125.205  98.291  0.00  0.00    +0.000 A 
ATOM      7  C   UNL     1     144.153 125.781 101.383  0.00  0.00    +0.000 A 
ATOM      8  C   UNL     1     145.139 126.742 101.092  0.00  0.00    +0.000 A 
ATOM      9  C   UNL     1     145.244 127.263  99.785  0.00  0.00    +0.000 A 
ATOM     10  C   UNL     1     141.675 124.336  99.150  0.00  0.00    +0.000 A 
ATOM     11  C   UNL     1     144.486 127.394  97.357  0.00  0.00    +0.000 C 
ATOM     12  C   UNL     1     141.920 125.273  96.949  0.00  0.00    +0.000 A 
ATOM     13  C   UNL     1     143.977 125.175 102.755  0.00  0.00    +0.000 C 
ATOM     14  C   UNL     1     140.607 123.530  98.743  0.00  0.00    +0.000 A 
ATOM     15  C   UNL     1     146.031 127.204 102.072  0.00  0.00    +0.000 A 
ATOM     16  C   UNL     1     146.242 128.212  99.566  0.00  0.00    +0.000 A 
ATOM     17  C   UNL     1     140.855 124.477  96.521  0.00  0.00    +0.000 A 
ATOM     18  C   UNL     1     140.211 123.621  97.407  0.00  0.00    +0.000 A 
ATOM     19  C   UNL     1     146.982 128.150 101.736  0.00  0.00    +0.000 A 
ATOM     20  H   UNL     1     141.989 123.934 101.211  0.00  0.00    +0.000 HD
ENDROOT
TORSDOF 0
ENDMDL
MODEL 8
REMARK VINA RESULT:      -6.4     34.254     36.665
REMARK  Name = Ellipticine.pdbqt.pdb
REMARK  0 active torsions:
REMARK  status: ('A' for Active; 'I' for Inactive)
REMARK                            x       y       z     vdW  Elec       q    Type
REMARK                         _______ _______ _______ _____ _____    ______ ____
ROOT
ATOM      1  N   UNL     1     144.772 127.404  96.996  0.00  0.00    +0.000 N 
ATOM      2  N   UNL     1     140.182 123.417  99.061  0.00  0.00    +0.000 NA
ATOM      3  C   UNL     1     144.056 126.386  98.859  0.00  0.00    +0.000 A 
ATOM      4  C   UNL     1     143.808 126.551  97.492  0.00  0.00    +0.000 A 
ATOM      5  C   UNL     1     143.191 125.544  99.603  0.00  0.00    +0.000 A 
ATOM      6  C   UNL     1     145.216 127.181  99.165  0.00  0.00    +0.000 A 
ATOM      7  C   UNL     1     142.744 125.921  96.828  0.00  0.00    +0.000 A 
ATOM      8  C   UNL     1     141.888 125.085  97.569  0.00  0.00    +0.000 A 
ATOM      9  C   UNL     1     142.114 124.900  98.950  0.00  0.00    +0.000 A 
ATOM     10  C   UNL     1     145.633 127.798  97.987  0.00  0.00    +0.000 A 
ATOM     11  C   UNL     1     143.431 125.343 101.084  0.00  0.00    +0.000 C 
ATOM     12  C   UNL     1     145.949 127.431 100.342  0.00  0.00    +0.000 A 
ATOM     13  C   UNL     1     142.570 126.170  95.348  0.00  0.00    +0.000 C 
ATOM     14  C   UNL     1     146.741 128.650  97.920  0.00  0.00    +0.000 A 
ATOM     15  C   UNL     1     140.804 124.423  96.972  0.00  0.00    +0.000 A 
ATOM     16  C   UNL     1     141.228 124.060  99.623  0.00  0.00    +0.000 A 
ATOM     17  C   UNL     1     147.059 128.278 100.298  0.00  0.00    +0.000 A 
ATOM     18  C   UNL     1     147.445 128.875  99.105  0.00  0.00    +0.000 A 
ATOM     19  C   UNL     1     139.992 123.613  97.744  0.00  0.00    +0.000 A 
ATOM     20  H   UNL     1     144.826 127.695  96.026  0.00  0.00    +0.000 HD
ENDROOT
TORSDOF 0
ENDMDL
MODEL 9
REMARK VINA RESULT:      -6.0     16.838     20.885
REMARK  Name = Ellipticine.pdbqt.pdb
REMARK  0 active torsions:
REMARK  status: ('A' for Active; 'I' for Inactive)
REMARK                            x       y       z     vdW  Elec       q    Type
REMARK                         _______ _______ _______ _____ _____    ______ ____
ROOT
ATOM      1  N   UNL     1     152.769 134.842 124.378  0.00  0.00    +0.000 N 
ATOM      2  N   UNL     1     147.928 131.439 126.872  0.00  0.00    +0.000 NA
ATOM      3  C   UNL     1     150.554 134.566 124.189  0.00  0.00    +0.000 A 
ATOM      4  C   UNL     1     151.693 134.138 124.878  0.00  0.00    +0.000 A 
ATOM      5  C   UNL     1     149.305 133.984 124.526  0.00  0.00    +0.000 A 
ATOM      6  C   UNL     1     150.993 135.563 123.248  0.00  0.00    +0.000 A 
ATOM      7  C   UNL     1     151.654 133.160 125.885  0.00  0.00    +0.000 A 
ATOM      8  C   UNL     1     150.413 132.584 126.217  0.00  0.00    +0.000 A 
ATOM      9  C   UNL     1     149.247 132.997 125.538  0.00  0.00    +0.000 A 
ATOM     10  C   UNL     1     152.371 135.708 123.393  0.00  0.00    +0.000 A 
ATOM     11  C   UNL     1     148.052 134.424 123.800  0.00  0.00    +0.000 C 
ATOM     12  C   UNL     1     150.337 136.356 122.285  0.00  0.00    +0.000 A 
ATOM     13  C   UNL     1     152.947 132.773 126.564  0.00  0.00    +0.000 C 
ATOM     14  C   UNL     1     153.130 136.601 122.630  0.00  0.00    +0.000 A 
ATOM     15  C   UNL     1     150.298 131.602 127.212  0.00  0.00    +0.000 A 
ATOM     16  C   UNL     1     148.052 132.385 125.916  0.00  0.00    +0.000 A 
ATOM     17  C   UNL     1     151.077 137.254 121.511  0.00  0.00    +0.000 A 
ATOM     18  C   UNL     1     152.450 137.371 121.684  0.00  0.00    +0.000 A 
ATOM     19  C   UNL     1     149.056 131.067 127.500  0.00  0.00    +0.000 A 
ATOM     20  H   UNL     1     153.722 134.726 124.703  0.00  0.00    +0.000 HD
ENDROOT
TORSDOF 0
ENDMDL
