MODEL 1
REMARK VINA RESULT:      -7.5      0.000      0.000
REMARK  Name = Enterolactone.pdbqt.pdb
REMARK  2 active torsions:
REMARK  status: ('A' for Active; 'I' for Inactive)
REMARK    1  A    between atoms: C_10  and  O_14
REMARK    2  A    between atoms: C_19  and  O_23
REMARK                            x       y       z     vdW  Elec       q    Type
REMARK                         _______ _______ _______ _____ _____    ______ ____
ROOT
ATOM      1  O   UNL     1     145.081 126.858 104.511  0.00  0.00    +0.000 OA
ATOM      2  O   UNL     1     143.067 125.684 104.485  0.00  0.00    +0.000 OA
ATOM      3  C   UNL     1     145.761 126.508 102.267  0.00  0.00    +0.000 C 
ATOM      4  C   UNL     1     144.492 125.860 102.496  0.00  0.00    +0.000 C 
ATOM      5  C   UNL     1     145.957 127.051 103.538  0.00  0.00    +0.000 C 
ATOM      6  C   UNL     1     144.077 126.086 103.938  0.00  0.00    +0.000 C 
ATOM      7  C   UNL     1     146.283 126.897 101.020  0.00  0.00    +0.000 C 
ATOM      8  C   UNL     1     146.800 127.276  99.747  0.00  0.00    +0.000 C 
ATOM      9  C   UNL     1     145.926 127.644  98.726  0.00  0.00    +0.000 C 
ATOM     10  C   UNL     1     146.443 128.002  97.485  0.00  0.00    +0.000 C 
ATOM     11  C   UNL     1     147.815 127.997  97.253  0.00  0.00    +0.000 C 
ATOM     12  C   UNL     1     148.683 127.629  98.278  0.00  0.00    +0.000 C 
ATOM     13  C   UNL     1     148.176 127.268  99.525  0.00  0.00    +0.000 C 
ATOM     14  C   UNL     1     143.715 125.196 101.520  0.00  0.00    +0.000 C 
ATOM     15  C   UNL     1     142.936 124.532 100.528  0.00  0.00    +0.000 C 
ATOM     16  C   UNL     1     143.564 123.759  99.556  0.00  0.00    +0.000 C 
ATOM     17  C   UNL     1     142.792 123.126  98.587  0.00  0.00    +0.000 C 
ATOM     18  C   UNL     1     141.408 123.256  98.578  0.00  0.00    +0.000 C 
ATOM     19  C   UNL     1     140.785 124.030  99.554  0.00  0.00    +0.000 C 
ATOM     20  C   UNL     1     141.548 124.670 100.530  0.00  0.00    +0.000 C 
ENDROOT
BRANCH  10  21
ATOM     21  O   UNL     1     145.615 128.367  96.464  0.00  0.00    +0.000 OA
ATOM     22  H   UNL     1     145.601 129.339  96.409  0.00  0.00    +0.000 HD
ENDBRANCH  10  21
BRANCH  17  23
ATOM     23  O   UNL     1     143.376 122.362  97.619  0.00  0.00    +0.000 OA
ATOM     24  H   UNL     1     143.744 121.562  98.036  0.00  0.00    +0.000 HD
ENDBRANCH  17  23
TORSDOF 2
ENDMDL
MODEL 2
REMARK VINA RESULT:      -7.4      1.753      2.140
REMARK  Name = Enterolactone.pdbqt.pdb
REMARK  2 active torsions:
REMARK  status: ('A' for Active; 'I' for Inactive)
REMARK    1  A    between atoms: C_10  and  O_14
REMARK    2  A    between atoms: C_19  and  O_23
REMARK                            x       y       z     vdW  Elec       q    Type
REMARK                         _______ _______ _______ _____ _____    ______ ____
ROOT
ATOM      1  O   UNL     1     141.643 127.563 103.197  0.00  0.00    +0.000 OA
ATOM      2  O   UNL     1     140.032 126.042 102.470  0.00  0.00    +0.000 OA
ATOM      3  C   UNL     1     143.337 127.126 101.598  0.00  0.00    +0.000 C 
ATOM      4  C   UNL     1     142.195 126.281 101.338  0.00  0.00    +0.000 C 
ATOM      5  C   UNL     1     142.845 127.818 102.705  0.00  0.00    +0.000 C 
ATOM      6  C   UNL     1     141.126 126.567 102.376  0.00  0.00    +0.000 C 
ATOM      7  C   UNL     1     144.336 127.480 100.672  0.00  0.00    +0.000 C 
ATOM      8  C   UNL     1     145.344 127.822  99.724  0.00  0.00    +0.000 C 
ATOM      9  C   UNL     1     145.019 127.921  98.374  0.00  0.00    +0.000 C 
ATOM     10  C   UNL     1     146.014 128.245  97.457  0.00  0.00    +0.000 C 
ATOM     11  C   UNL     1     147.323 128.469  97.872  0.00  0.00    +0.000 C 
ATOM     12  C   UNL     1     147.641 128.369  99.223  0.00  0.00    +0.000 C 
ATOM     13  C   UNL     1     146.652 128.045 100.151  0.00  0.00    +0.000 C 
ATOM     14  C   UNL     1     142.055 125.394 100.248  0.00  0.00    +0.000 C 
ATOM     15  C   UNL     1     141.919 124.505  99.142  0.00  0.00    +0.000 C 
ATOM     16  C   UNL     1     143.017 123.769  98.706  0.00  0.00    +0.000 C 
ATOM     17  C   UNL     1     142.873 122.913  97.619  0.00  0.00    +0.000 C 
ATOM     18  C   UNL     1     141.652 122.785  96.966  0.00  0.00    +0.000 C 
ATOM     19  C   UNL     1     140.557 123.523  97.408  0.00  0.00    +0.000 C 
ATOM     20  C   UNL     1     140.689 124.385  98.496  0.00  0.00    +0.000 C 
ENDROOT
BRANCH  10  21
ATOM     21  O   UNL     1     145.729 128.350  96.126  0.00  0.00    +0.000 OA
ATOM     22  H   UNL     1     144.954 127.796  95.930  0.00  0.00    +0.000 HD
ENDBRANCH  10  21
BRANCH  17  23
ATOM     23  O   UNL     1     143.929 122.178  97.165  0.00  0.00    +0.000 OA
ATOM     24  H   UNL     1     143.585 121.380  96.725  0.00  0.00    +0.000 HD
ENDBRANCH  17  23
TORSDOF 2
ENDMDL
MODEL 3
REMARK VINA RESULT:      -7.3      2.318      6.860
REMARK  Name = Enterolactone.pdbqt.pdb
REMARK  2 active torsions:
REMARK  status: ('A' for Active; 'I' for Inactive)
REMARK    1  A    between atoms: C_10  and  O_14
REMARK    2  A    between atoms: C_19  and  O_23
REMARK                            x       y       z     vdW  Elec       q    Type
REMARK                         _______ _______ _______ _____ _____    ______ ____
ROOT
ATOM      1  O   UNL     1     146.932 128.202  95.017  0.00  0.00    +0.000 OA
ATOM      2  O   UNL     1     147.855 129.524  96.701  0.00  0.00    +0.000 OA
ATOM      3  C   UNL     1     146.246 126.343  96.319  0.00  0.00    +0.000 C 
ATOM      4  C   UNL     1     146.859 127.333  97.172  0.00  0.00    +0.000 C 
ATOM      5  C   UNL     1     146.358 127.012  95.099  0.00  0.00    +0.000 C 
ATOM      6  C   UNL     1     147.300 128.509  96.322  0.00  0.00    +0.000 C 
ATOM      7  C   UNL     1     145.354 125.333  96.725  0.00  0.00    +0.000 C 
ATOM      8  C   UNL     1     144.460 124.310  97.155  0.00  0.00    +0.000 C 
ATOM      9  C   UNL     1     143.619 124.539  98.242  0.00  0.00    +0.000 C 
ATOM     10  C   UNL     1     142.757 123.529  98.659  0.00  0.00    +0.000 C 
ATOM     11  C   UNL     1     142.726 122.301  98.007  0.00  0.00    +0.000 C 
ATOM     12  C   UNL     1     143.569 122.078  96.921  0.00  0.00    +0.000 C 
ATOM     13  C   UNL     1     144.436 123.083  96.495  0.00  0.00    +0.000 C 
ATOM     14  C   UNL     1     146.958 127.263  98.579  0.00  0.00    +0.000 C 
ATOM     15  C   UNL     1     147.050 127.187 100.000  0.00  0.00    +0.000 C 
ATOM     16  C   UNL     1     147.321 125.966 100.612  0.00  0.00    +0.000 C 
ATOM     17  C   UNL     1     147.396 125.904 102.000  0.00  0.00    +0.000 C 
ATOM     18  C   UNL     1     147.205 127.040 102.779  0.00  0.00    +0.000 C 
ATOM     19  C   UNL     1     146.935 128.258 102.160  0.00  0.00    +0.000 C 
ATOM     20  C   UNL     1     146.856 128.333 100.770  0.00  0.00    +0.000 C 
ENDROOT
BRANCH  10  21
ATOM     21  O   UNL     1     141.921 123.720  99.720  0.00  0.00    +0.000 OA
ATOM     22  H   UNL     1     142.283 124.431 100.277  0.00  0.00    +0.000 HD
ENDBRANCH  10  21
BRANCH  17  23
ATOM     23  O   UNL     1     147.659 124.723 102.632  0.00  0.00    +0.000 OA
ATOM     24  H   UNL     1     147.564 124.859 103.592  0.00  0.00    +0.000 HD
ENDBRANCH  17  23
TORSDOF 2
ENDMDL
MODEL 4
REMARK VINA RESULT:      -7.2      2.407      7.163
REMARK  Name = Enterolactone.pdbqt.pdb
REMARK  2 active torsions:
REMARK  status: ('A' for Active; 'I' for Inactive)
REMARK    1  A    between atoms: C_10  and  O_14
REMARK    2  A    between atoms: C_19  and  O_23
REMARK                            x       y       z     vdW  Elec       q    Type
REMARK                         _______ _______ _______ _____ _____    ______ ____
ROOT
ATOM      1  O   UNL     1     143.533 123.092  95.201  0.00  0.00    +0.000 OA
ATOM      2  O   UNL     1     145.783 123.700  95.249  0.00  0.00    +0.000 OA
ATOM      3  C   UNL     1     142.934 123.655  97.424  0.00  0.00    +0.000 C 
ATOM      4  C   UNL     1     144.327 123.961  97.205  0.00  0.00    +0.000 C 
ATOM      5  C   UNL     1     142.619 123.169  96.155  0.00  0.00    +0.000 C 
ATOM      6  C   UNL     1     144.695 123.585  95.782  0.00  0.00    +0.000 C 
ATOM      7  C   UNL     1     142.107 124.211  98.419  0.00  0.00    +0.000 C 
ATOM      8  C   UNL     1     141.286 124.778  99.437  0.00  0.00    +0.000 C 
ATOM      9  C   UNL     1     141.528 126.077  99.877  0.00  0.00    +0.000 C 
ATOM     10  C   UNL     1     140.726 126.615 100.879  0.00  0.00    +0.000 C 
ATOM     11  C   UNL     1     139.692 125.875 101.442  0.00  0.00    +0.000 C 
ATOM     12  C   UNL     1     139.456 124.576 100.997  0.00  0.00    +0.000 C 
ATOM     13  C   UNL     1     140.253 124.027  99.994  0.00  0.00    +0.000 C 
ATOM     14  C   UNL     1     145.191 124.587  98.132  0.00  0.00    +0.000 C 
ATOM     15  C   UNL     1     146.055 125.224  99.069  0.00  0.00    +0.000 C 
ATOM     16  C   UNL     1     145.965 124.905 100.421  0.00  0.00    +0.000 C 
ATOM     17  C   UNL     1     146.807 125.542 101.328  0.00  0.00    +0.000 C 
ATOM     18  C   UNL     1     147.731 126.489 100.902  0.00  0.00    +0.000 C 
ATOM     19  C   UNL     1     147.816 126.804  99.548  0.00  0.00    +0.000 C 
ATOM     20  C   UNL     1     146.978 126.172  98.630  0.00  0.00    +0.000 C 
ENDROOT
BRANCH  10  21
ATOM     21  O   UNL     1     140.936 127.885 101.333  0.00  0.00    +0.000 OA
ATOM     22  H   UNL     1     140.964 127.866 102.305  0.00  0.00    +0.000 HD
ENDBRANCH  10  21
BRANCH  17  23
ATOM     23  O   UNL     1     146.744 125.253 102.660  0.00  0.00    +0.000 OA
ATOM     24  H   UNL     1     145.930 125.646 103.023  0.00  0.00    +0.000 HD
ENDBRANCH  17  23
TORSDOF 2
ENDMDL
MODEL 5
REMARK VINA RESULT:      -7.1      3.017      4.978
REMARK  Name = Enterolactone.pdbqt.pdb
REMARK  2 active torsions:
REMARK  status: ('A' for Active; 'I' for Inactive)
REMARK    1  A    between atoms: C_10  and  O_14
REMARK    2  A    between atoms: C_19  and  O_23
REMARK                            x       y       z     vdW  Elec       q    Type
REMARK                         _______ _______ _______ _____ _____    ______ ____
ROOT
ATOM      1  O   UNL     1     141.380 130.243  98.773  0.00  0.00    +0.000 OA
ATOM      2  O   UNL     1     140.947 129.081  96.799  0.00  0.00    +0.000 OA
ATOM      3  C   UNL     1     142.434 128.518 100.013  0.00  0.00    +0.000 C 
ATOM      4  C   UNL     1     142.070 128.024  98.706  0.00  0.00    +0.000 C 
ATOM      5  C   UNL     1     141.972 129.829  99.882  0.00  0.00    +0.000 C 
ATOM      6  C   UNL     1     141.389 129.136  97.932  0.00  0.00    +0.000 C 
ATOM      7  C   UNL     1     143.419 127.980 100.861  0.00  0.00    +0.000 C 
ATOM      8  C   UNL     1     144.415 127.416 101.710  0.00  0.00    +0.000 C 
ATOM      9  C   UNL     1     145.524 126.784 101.152  0.00  0.00    +0.000 C 
ATOM     10  C   UNL     1     146.484 126.229 101.993  0.00  0.00    +0.000 C 
ATOM     11  C   UNL     1     146.349 126.296 103.375  0.00  0.00    +0.000 C 
ATOM     12  C   UNL     1     145.238 126.929 103.927  0.00  0.00    +0.000 C 
ATOM     13  C   UNL     1     144.271 127.489 103.095  0.00  0.00    +0.000 C 
ATOM     14  C   UNL     1     142.372 126.742  98.194  0.00  0.00    +0.000 C 
ATOM     15  C   UNL     1     142.686 125.449  97.684  0.00  0.00    +0.000 C 
ATOM     16  C   UNL     1     142.617 124.339  98.520  0.00  0.00    +0.000 C 
ATOM     17  C   UNL     1     142.937 123.083  98.012  0.00  0.00    +0.000 C 
ATOM     18  C   UNL     1     143.322 122.926  96.685  0.00  0.00    +0.000 C 
ATOM     19  C   UNL     1     143.387 124.041  95.853  0.00  0.00    +0.000 C 
ATOM     20  C   UNL     1     143.070 125.304  96.351  0.00  0.00    +0.000 C 
ENDROOT
BRANCH  10  21
ATOM     21  O   UNL     1     147.583 125.603 101.479  0.00  0.00    +0.000 OA
ATOM     22  H   UNL     1     147.308 125.080 100.705  0.00  0.00    +0.000 HD
ENDBRANCH  10  21
BRANCH  17  23
ATOM     23  O   UNL     1     142.881 121.975  98.805  0.00  0.00    +0.000 OA
ATOM     24  H   UNL     1     142.773 122.261  99.730  0.00  0.00    +0.000 HD
ENDBRANCH  17  23
TORSDOF 2
ENDMDL
MODEL 6
REMARK VINA RESULT:      -7.0      3.877      5.255
REMARK  Name = Enterolactone.pdbqt.pdb
REMARK  2 active torsions:
REMARK  status: ('A' for Active; 'I' for Inactive)
REMARK    1  A    between atoms: C_10  and  O_14
REMARK    2  A    between atoms: C_19  and  O_23
REMARK                            x       y       z     vdW  Elec       q    Type
REMARK                         _______ _______ _______ _____ _____    ______ ____
ROOT
ATOM      1  O   UNL     1     146.409 128.581  99.078  0.00  0.00    +0.000 OA
ATOM      2  O   UNL     1     145.770 127.884 101.209  0.00  0.00    +0.000 OA
ATOM      3  C   UNL     1     144.506 127.873  97.854  0.00  0.00    +0.000 C 
ATOM      4  C   UNL     1     144.334 127.547  99.250  0.00  0.00    +0.000 C 
ATOM      5  C   UNL     1     145.760 128.480  97.929  0.00  0.00    +0.000 C 
ATOM      6  C   UNL     1     145.564 127.998 100.015  0.00  0.00    +0.000 C 
ATOM      7  C   UNL     1     143.481 128.013  96.901  0.00  0.00    +0.000 C 
ATOM      8  C   UNL     1     142.430 128.144  95.947  0.00  0.00    +0.000 C 
ATOM      9  C   UNL     1     141.177 128.595  96.354  0.00  0.00    +0.000 C 
ATOM     10  C   UNL     1     140.156 128.708  95.415  0.00  0.00    +0.000 C 
ATOM     11  C   UNL     1     140.372 128.377  94.081  0.00  0.00    +0.000 C 
ATOM     12  C   UNL     1     141.628 127.927  93.680  0.00  0.00    +0.000 C 
ATOM     13  C   UNL     1     142.657 127.810  94.612  0.00  0.00    +0.000 C 
ATOM     14  C   UNL     1     143.177 126.980  99.829  0.00  0.00    +0.000 C 
ATOM     15  C   UNL     1     142.004 126.412 100.407  0.00  0.00    +0.000 C 
ATOM     16  C   UNL     1     141.300 125.429  99.718  0.00  0.00    +0.000 C 
ATOM     17  C   UNL     1     140.150 124.891 100.289  0.00  0.00    +0.000 C 
ATOM     18  C   UNL     1     139.698 125.322 101.531  0.00  0.00    +0.000 C 
ATOM     19  C   UNL     1     140.409 126.306 102.215  0.00  0.00    +0.000 C 
ATOM     20  C   UNL     1     141.562 126.853 101.654  0.00  0.00    +0.000 C 
ENDROOT
BRANCH  10  21
ATOM     21  O   UNL     1     138.917 129.147  95.781  0.00  0.00    +0.000 OA
ATOM     22  H   UNL     1     139.011 130.012  96.217  0.00  0.00    +0.000 HD
ENDBRANCH  10  21
BRANCH  17  23
ATOM     23  O   UNL     1     139.435 123.927  99.640  0.00  0.00    +0.000 OA
ATOM     24  H   UNL     1     139.851 123.064  99.815  0.00  0.00    +0.000 HD
ENDBRANCH  17  23
TORSDOF 2
ENDMDL
MODEL 7
REMARK VINA RESULT:      -6.9      2.777      3.324
REMARK  Name = Enterolactone.pdbqt.pdb
REMARK  2 active torsions:
REMARK  status: ('A' for Active; 'I' for Inactive)
REMARK    1  A    between atoms: C_10  and  O_14
REMARK    2  A    between atoms: C_19  and  O_23
REMARK                            x       y       z     vdW  Elec       q    Type
REMARK                         _______ _______ _______ _____ _____    ______ ____
ROOT
ATOM      1  O   UNL     1     146.174 125.059 101.700  0.00  0.00    +0.000 OA
ATOM      2  O   UNL     1     143.938 124.572 102.145  0.00  0.00    +0.000 OA
ATOM      3  C   UNL     1     146.253 124.448  99.411  0.00  0.00    +0.000 C 
ATOM      4  C   UNL     1     144.921 124.236  99.923  0.00  0.00    +0.000 C 
ATOM      5  C   UNL     1     146.854 124.941 100.570  0.00  0.00    +0.000 C 
ATOM      6  C   UNL     1     144.891 124.622 101.390  0.00  0.00    +0.000 C 
ATOM      7  C   UNL     1     146.607 124.617  98.059  0.00  0.00    +0.000 C 
ATOM      8  C   UNL     1     146.948 124.779  96.685  0.00  0.00    +0.000 C 
ATOM      9  C   UNL     1     146.039 125.371  95.811  0.00  0.00    +0.000 C 
ATOM     10  C   UNL     1     146.380 125.513  94.469  0.00  0.00    +0.000 C 
ATOM     11  C   UNL     1     147.611 125.073  93.994  0.00  0.00    +0.000 C 
ATOM     12  C   UNL     1     148.516 124.482  94.873  0.00  0.00    +0.000 C 
ATOM     13  C   UNL     1     148.185 124.335  96.219  0.00  0.00    +0.000 C 
ATOM     14  C   UNL     1     143.802 123.819  99.168  0.00  0.00    +0.000 C 
ATOM     15  C   UNL     1     142.677 123.403  98.398  0.00  0.00    +0.000 C 
ATOM     16  C   UNL     1     142.836 122.444  97.402  0.00  0.00    +0.000 C 
ATOM     17  C   UNL     1     141.732 122.055  96.650  0.00  0.00    +0.000 C 
ATOM     18  C   UNL     1     140.478 122.610  96.881  0.00  0.00    +0.000 C 
ATOM     19  C   UNL     1     140.325 123.568  97.880  0.00  0.00    +0.000 C 
ATOM     20  C   UNL     1     141.425 123.967  98.639  0.00  0.00    +0.000 C 
ENDROOT
BRANCH  10  21
ATOM     21  O   UNL     1     145.513 126.088  93.587  0.00  0.00    +0.000 OA
ATOM     22  H   UNL     1     144.996 126.765  94.057  0.00  0.00    +0.000 HD
ENDBRANCH  10  21
BRANCH  17  23
ATOM     23  O   UNL     1     141.853 121.118  95.665  0.00  0.00    +0.000 OA
ATOM     24  H   UNL     1     141.600 121.526  94.818  0.00  0.00    +0.000 HD
ENDBRANCH  17  23
TORSDOF 2
ENDMDL
MODEL 8
REMARK VINA RESULT:      -6.8      2.083      2.826
REMARK  Name = Enterolactone.pdbqt.pdb
REMARK  2 active torsions:
REMARK  status: ('A' for Active; 'I' for Inactive)
REMARK    1  A    between atoms: C_10  and  O_14
REMARK    2  A    between atoms: C_19  and  O_23
REMARK                            x       y       z     vdW  Elec       q    Type
REMARK                         _______ _______ _______ _____ _____    ______ ____
ROOT
ATOM      1  O   UNL     1     146.595 128.202 102.420  0.00  0.00    +0.000 OA
ATOM      2  O   UNL     1     144.839 127.613 103.837  0.00  0.00    +0.000 OA
ATOM      3  C   UNL     1     145.745 127.350 100.378  0.00  0.00    +0.000 C 
ATOM      4  C   UNL     1     144.796 127.104 101.438  0.00  0.00    +0.000 C 
ATOM      5  C   UNL     1     146.728 128.007 101.118  0.00  0.00    +0.000 C 
ATOM      6  C   UNL     1     145.361 127.646 102.738  0.00  0.00    +0.000 C 
ATOM      7  C   UNL     1     145.458 127.395  99.000  0.00  0.00    +0.000 C 
ATOM      8  C   UNL     1     145.152 127.427  97.609  0.00  0.00    +0.000 C 
ATOM      9  C   UNL     1     143.896 127.856  97.187  0.00  0.00    +0.000 C 
ATOM     10  C   UNL     1     143.606 127.873  95.826  0.00  0.00    +0.000 C 
ATOM     11  C   UNL     1     144.550 127.470  94.888  0.00  0.00    +0.000 C 
ATOM     12  C   UNL     1     145.805 127.043  95.317  0.00  0.00    +0.000 C 
ATOM     13  C   UNL     1     146.106 127.022  96.677  0.00  0.00    +0.000 C 
ATOM     14  C   UNL     1     143.515 126.531 101.283  0.00  0.00    +0.000 C 
ATOM     15  C   UNL     1     142.221 125.956 101.118  0.00  0.00    +0.000 C 
ATOM     16  C   UNL     1     142.038 124.907 100.222  0.00  0.00    +0.000 C 
ATOM     17  C   UNL     1     140.768 124.362 100.062  0.00  0.00    +0.000 C 
ATOM     18  C   UNL     1     139.684 124.852 100.783  0.00  0.00    +0.000 C 
ATOM     19  C   UNL     1     139.874 125.901 101.679  0.00  0.00    +0.000 C 
ATOM     20  C   UNL     1     141.142 126.455 101.847  0.00  0.00    +0.000 C 
ENDROOT
BRANCH  10  21
ATOM     21  O   UNL     1     142.385 128.287  95.379  0.00  0.00    +0.000 OA
ATOM     22  H   UNL     1     142.385 129.259  95.331  0.00  0.00    +0.000 HD
ENDBRANCH  10  21
BRANCH  17  23
ATOM     23  O   UNL     1     140.554 123.334  99.191  0.00  0.00    +0.000 OA
ATOM     24  H   UNL     1     139.597 123.265  99.023  0.00  0.00    +0.000 HD
ENDBRANCH  17  23
TORSDOF 2
ENDMDL
MODEL 9
REMARK VINA RESULT:      -6.6      2.346      5.786
REMARK  Name = Enterolactone.pdbqt.pdb
REMARK  2 active torsions:
REMARK  status: ('A' for Active; 'I' for Inactive)
REMARK    1  A    between atoms: C_10  and  O_14
REMARK    2  A    between atoms: C_19  and  O_23
REMARK                            x       y       z     vdW  Elec       q    Type
REMARK                         _______ _______ _______ _____ _____    ______ ____
ROOT
ATOM      1  O   UNL     1     146.209 128.287  95.907  0.00  0.00    +0.000 OA
ATOM      2  O   UNL     1     145.648 126.718  94.276  0.00  0.00    +0.000 OA
ATOM      3  C   UNL     1     144.836 127.512  97.677  0.00  0.00    +0.000 C 
ATOM      4  C   UNL     1     144.662 126.665  96.521  0.00  0.00    +0.000 C 
ATOM      5  C   UNL     1     145.778 128.398  97.153  0.00  0.00    +0.000 C 
ATOM      6  C   UNL     1     145.539 127.181  95.397  0.00  0.00    +0.000 C 
ATOM      7  C   UNL     1     144.553 127.166  99.011  0.00  0.00    +0.000 C 
ATOM      8  C   UNL     1     144.253 126.801 100.356  0.00  0.00    +0.000 C 
ATOM      9  C   UNL     1     144.380 125.474 100.758  0.00  0.00    +0.000 C 
ATOM     10  C   UNL     1     144.074 125.129 102.071  0.00  0.00    +0.000 C 
ATOM     11  C   UNL     1     143.645 126.090 102.981  0.00  0.00    +0.000 C 
ATOM     12  C   UNL     1     143.520 127.416 102.573  0.00  0.00    +0.000 C 
ATOM     13  C   UNL     1     143.824 127.772 101.260  0.00  0.00    +0.000 C 
ATOM     14  C   UNL     1     143.871 125.495  96.466  0.00  0.00    +0.000 C 
ATOM     15  C   UNL     1     143.076 124.313  96.420  0.00  0.00    +0.000 C 
ATOM     16  C   UNL     1     141.851 124.277  97.080  0.00  0.00    +0.000 C 
ATOM     17  C   UNL     1     141.089 123.113  97.036  0.00  0.00    +0.000 C 
ATOM     18  C   UNL     1     141.535 121.992  96.345  0.00  0.00    +0.000 C 
ATOM     19  C   UNL     1     142.761 122.035  95.685  0.00  0.00    +0.000 C 
ATOM     20  C   UNL     1     143.533 123.196  95.722  0.00  0.00    +0.000 C 
ENDROOT
BRANCH  10  21
ATOM     21  O   UNL     1     144.187 123.838 102.498  0.00  0.00    +0.000 OA
ATOM     22  H   UNL     1     145.026 123.744 102.983  0.00  0.00    +0.000 HD
ENDBRANCH  10  21
BRANCH  17  23
ATOM     23  O   UNL     1     139.885 123.043  97.674  0.00  0.00    +0.000 OA
ATOM     24  H   UNL     1     139.362 123.829  97.434  0.00  0.00    +0.000 HD
ENDBRANCH  17  23
TORSDOF 2
ENDMDL
