MODEL 1
REMARK VINA RESULT:      -8.6      0.000      0.000
REMARK  Name = Estradiol.pdbqt.pdb
REMARK  2 active torsions:
REMARK  status: ('A' for Active; 'I' for Inactive)
REMARK    1  A    between atoms: C_5  and  O_19
REMARK    2  A    between atoms: C_18  and  O_21
REMARK                            x       y       z     vdW  Elec       q    Type
REMARK                         _______ _______ _______ _____ _____    ______ ____
ROOT
ATOM      1  C   UNL     1     134.440 129.999 112.728  0.00  0.00    +0.000 C 
ATOM      2  C   UNL     1     134.963 129.229 111.419  0.00  0.00    +0.000 C 
ATOM      3  C   UNL     1     136.173 128.392 111.451  0.00  0.00    +0.000 A 
ATOM      4  C   UNL     1     136.920 127.943 112.689  0.00  0.00    +0.000 A 
ATOM      5  C   UNL     1     132.920 129.739 112.690  0.00  0.00    +0.000 C 
ATOM      6  C   UNL     1     135.123 129.376 113.863  0.00  0.00    +0.000 C 
ATOM      7  C   UNL     1     133.803 128.785 110.706  0.00  0.00    +0.000 C 
ATOM      8  C   UNL     1     136.303 128.434 113.867  0.00  0.00    +0.000 C 
ATOM      9  C   UNL     1     132.549 129.066 111.496  0.00  0.00    +0.000 C 
ATOM     10  C   UNL     1     136.757 127.863 110.272  0.00  0.00    +0.000 A 
ATOM     11  C   UNL     1     134.740 131.513 112.568  0.00  0.00    +0.000 C 
ATOM     12  C   UNL     1     138.152 127.085 112.668  0.00  0.00    +0.000 A 
ATOM     13  C   UNL     1     137.987 126.990 110.256  0.00  0.00    +0.000 A 
ATOM     14  C   UNL     1     138.690 126.605 111.436  0.00  0.00    +0.000 A 
ATOM     15  C   UNL     1     138.803 126.740 113.853  0.00  0.00    +0.000 A 
ATOM     16  C   UNL     1     139.833 125.818 111.394  0.00  0.00    +0.000 A 
ATOM     17  C   UNL     1     139.952 125.950 113.818  0.00  0.00    +0.000 A 
ATOM     18  C   UNL     1     140.454 125.499 112.596  0.00  0.00    +0.000 A 
ENDROOT
BRANCH   5  19
ATOM     19  O   UNL     1     132.137 129.717 113.824  0.00  0.00    +0.000 OA
ATOM     20  H   UNL     1     131.577 128.921 113.860  0.00  0.00    +0.000 HD
ENDBRANCH   5  19
BRANCH  18  21
ATOM     21  O   UNL     1     141.581 124.729 112.554  0.00  0.00    +0.000 OA
ATOM     22  H   UNL     1     142.013 124.863 111.692  0.00  0.00    +0.000 HD
ENDBRANCH  18  21
TORSDOF 2
ENDMDL
MODEL 2
REMARK VINA RESULT:      -7.6     11.831     14.734
REMARK  Name = Estradiol.pdbqt.pdb
REMARK  2 active torsions:
REMARK  status: ('A' for Active; 'I' for Inactive)
REMARK    1  A    between atoms: C_5  and  O_19
REMARK    2  A    between atoms: C_18  and  O_21
REMARK                            x       y       z     vdW  Elec       q    Type
REMARK                         _______ _______ _______ _____ _____    ______ ____
ROOT
ATOM      1  C   UNL     1     144.515 126.633 103.374  0.00  0.00    +0.000 C 
ATOM      2  C   UNL     1     145.479 125.863 102.346  0.00  0.00    +0.000 C 
ATOM      3  C   UNL     1     144.937 125.058 101.240  0.00  0.00    +0.000 A 
ATOM      4  C   UNL     1     143.499 125.036 100.768  0.00  0.00    +0.000 A 
ATOM      5  C   UNL     1     145.193 128.013 103.505  0.00  0.00    +0.000 C 
ATOM      6  C   UNL     1     143.198 126.675 102.739  0.00  0.00    +0.000 C 
ATOM      7  C   UNL     1     146.615 126.707 102.129  0.00  0.00    +0.000 C 
ATOM      8  C   UNL     1     142.693 125.913 101.536  0.00  0.00    +0.000 C 
ATOM      9  C   UNL     1     146.431 128.039 102.810  0.00  0.00    +0.000 C 
ATOM     10  C   UNL     1     145.757 124.219 100.443  0.00  0.00    +0.000 A 
ATOM     11  C   UNL     1     144.535 125.884 104.732  0.00  0.00    +0.000 C 
ATOM     12  C   UNL     1     142.995 124.197  99.630  0.00  0.00    +0.000 A 
ATOM     13  C   UNL     1     145.250 123.387  99.291  0.00  0.00    +0.000 A 
ATOM     14  C   UNL     1     143.884 123.363  98.885  0.00  0.00    +0.000 A 
ATOM     15  C   UNL     1     141.646 124.208  99.275  0.00  0.00    +0.000 A 
ATOM     16  C   UNL     1     143.436 122.572  97.835  0.00  0.00    +0.000 A 
ATOM     17  C   UNL     1     141.189 123.416  98.221  0.00  0.00    +0.000 A 
ATOM     18  C   UNL     1     142.084 122.609  97.515  0.00  0.00    +0.000 A 
ENDROOT
BRANCH   5  19
ATOM     19  O   UNL     1     144.497 129.161 103.818  0.00  0.00    +0.000 OA
ATOM     20  H   UNL     1     145.083 129.851 104.177  0.00  0.00    +0.000 HD
ENDBRANCH   5  19
BRANCH  18  21
ATOM     21  O   UNL     1     141.644 121.828  96.485  0.00  0.00    +0.000 OA
ATOM     22  H   UNL     1     140.822 122.215  96.136  0.00  0.00    +0.000 HD
ENDBRANCH  18  21
TORSDOF 2
ENDMDL
MODEL 3
REMARK VINA RESULT:      -7.4     20.795     22.682
REMARK  Name = Estradiol.pdbqt.pdb
REMARK  2 active torsions:
REMARK  status: ('A' for Active; 'I' for Inactive)
REMARK    1  A    between atoms: C_5  and  O_19
REMARK    2  A    between atoms: C_18  and  O_21
REMARK                            x       y       z     vdW  Elec       q    Type
REMARK                         _______ _______ _______ _____ _____    ______ ____
ROOT
ATOM      1  C   UNL     1     136.315 122.102 134.415  0.00  0.00    +0.000 C 
ATOM      2  C   UNL     1     137.526 122.606 135.340  0.00  0.00    +0.000 C 
ATOM      3  C   UNL     1     138.437 123.675 134.901  0.00  0.00    +0.000 A 
ATOM      4  C   UNL     1     138.240 124.586 133.708  0.00  0.00    +0.000 A 
ATOM      5  C   UNL     1     135.146 121.991 135.416  0.00  0.00    +0.000 C 
ATOM      6  C   UNL     1     136.129 123.136 133.395  0.00  0.00    +0.000 C 
ATOM      7  C   UNL     1     137.057 122.575 136.693  0.00  0.00    +0.000 C 
ATOM      8  C   UNL     1     137.032 124.289 133.029  0.00  0.00    +0.000 C 
ATOM      9  C   UNL     1     135.590 122.230 136.743  0.00  0.00    +0.000 C 
ATOM     10  C   UNL     1     139.620 124.001 135.612  0.00  0.00    +0.000 A 
ATOM     11  C   UNL     1     136.675 120.708 133.838  0.00  0.00    +0.000 C 
ATOM     12  C   UNL     1     139.200 125.667 133.302  0.00  0.00    +0.000 A 
ATOM     13  C   UNL     1     140.575 125.096 135.209  0.00  0.00    +0.000 A 
ATOM     14  C   UNL     1     140.381 125.922 134.063  0.00  0.00    +0.000 A 
ATOM     15  C   UNL     1     138.964 126.444 132.168  0.00  0.00    +0.000 A 
ATOM     16  C   UNL     1     141.286 126.910 133.699  0.00  0.00    +0.000 A 
ATOM     17  C   UNL     1     139.869 127.439 131.796  0.00  0.00    +0.000 A 
ATOM     18  C   UNL     1     141.016 127.661 132.561  0.00  0.00    +0.000 A 
ENDROOT
BRANCH   5  19
ATOM     19  O   UNL     1     133.826 122.126 135.043  0.00  0.00    +0.000 OA
ATOM     20  H   UNL     1     133.735 122.641 134.220  0.00  0.00    +0.000 HD
ENDBRANCH   5  19
BRANCH  18  21
ATOM     21  O   UNL     1     141.909 128.629 132.201  0.00  0.00    +0.000 OA
ATOM     22  H   UNL     1     142.763 128.432 132.625  0.00  0.00    +0.000 HD
ENDBRANCH  18  21
TORSDOF 2
ENDMDL
MODEL 4
REMARK VINA RESULT:      -7.3     12.111     15.064
REMARK  Name = Estradiol.pdbqt.pdb
REMARK  2 active torsions:
REMARK  status: ('A' for Active; 'I' for Inactive)
REMARK    1  A    between atoms: C_5  and  O_19
REMARK    2  A    between atoms: C_18  and  O_21
REMARK                            x       y       z     vdW  Elec       q    Type
REMARK                         _______ _______ _______ _____ _____    ______ ____
ROOT
ATOM      1  C   UNL     1     146.095 126.658 102.375  0.00  0.00    +0.000 C 
ATOM      2  C   UNL     1     144.492 126.633 102.285  0.00  0.00    +0.000 C 
ATOM      3  C   UNL     1     143.792 125.849 101.256  0.00  0.00    +0.000 A 
ATOM      4  C   UNL     1     144.410 124.809 100.345  0.00  0.00    +0.000 A 
ATOM      5  C   UNL     1     146.352 126.510 103.889  0.00  0.00    +0.000 C 
ATOM      6  C   UNL     1     146.562 125.522 101.579  0.00  0.00    +0.000 C 
ATOM      7  C   UNL     1     143.999 126.653 103.630  0.00  0.00    +0.000 C 
ATOM      8  C   UNL     1     145.796 124.663 100.601  0.00  0.00    +0.000 C 
ATOM      9  C   UNL     1     145.133 126.545 104.617  0.00  0.00    +0.000 C 
ATOM     10  C   UNL     1     142.395 125.964 101.038  0.00  0.00    +0.000 A 
ATOM     11  C   UNL     1     146.602 128.033 101.866  0.00  0.00    +0.000 C 
ATOM     12  C   UNL     1     143.650 124.032  99.310  0.00  0.00    +0.000 A 
ATOM     13  C   UNL     1     141.632 125.172 100.005  0.00  0.00    +0.000 A 
ATOM     14  C   UNL     1     142.244 124.219  99.139  0.00  0.00    +0.000 A 
ATOM     15  C   UNL     1     144.299 123.113  98.485  0.00  0.00    +0.000 A 
ATOM     16  C   UNL     1     141.524 123.518  98.182  0.00  0.00    +0.000 A 
ATOM     17  C   UNL     1     143.582 122.405  97.521  0.00  0.00    +0.000 A 
ATOM     18  C   UNL     1     142.209 122.613  97.378  0.00  0.00    +0.000 A 
ENDROOT
BRANCH   5  19
ATOM     19  O   UNL     1     147.503 125.949 104.401  0.00  0.00    +0.000 OA
ATOM     20  H   UNL     1     148.300 126.296 103.962  0.00  0.00    +0.000 HD
ENDBRANCH   5  19
BRANCH  18  21
ATOM     21  O   UNL     1     141.501 121.927  96.433  0.00  0.00    +0.000 OA
ATOM     22  H   UNL     1     140.695 122.433  96.226  0.00  0.00    +0.000 HD
ENDBRANCH  18  21
TORSDOF 2
ENDMDL
MODEL 5
REMARK VINA RESULT:      -7.2     12.791     15.192
REMARK  Name = Estradiol.pdbqt.pdb
REMARK  2 active torsions:
REMARK  status: ('A' for Active; 'I' for Inactive)
REMARK    1  A    between atoms: C_5  and  O_19
REMARK    2  A    between atoms: C_18  and  O_21
REMARK                            x       y       z     vdW  Elec       q    Type
REMARK                         _______ _______ _______ _____ _____    ______ ____
ROOT
ATOM      1  C   UNL     1     141.967 126.289 100.572  0.00  0.00    +0.000 C 
ATOM      2  C   UNL     1     143.395 126.219 101.302  0.00  0.00    +0.000 C 
ATOM      3  C   UNL     1     144.589 126.849 100.717  0.00  0.00    +0.000 A 
ATOM      4  C   UNL     1     144.614 127.816  99.553  0.00  0.00    +0.000 A 
ATOM      5  C   UNL     1     141.006 126.614 101.735  0.00  0.00    +0.000 C 
ATOM      6  C   UNL     1     142.075 127.356  99.575  0.00  0.00    +0.000 C 
ATOM      7  C   UNL     1     143.149 126.318 102.710  0.00  0.00    +0.000 C 
ATOM      8  C   UNL     1     143.307 128.063  99.063  0.00  0.00    +0.000 C 
ATOM      9  C   UNL     1     141.691 126.592 102.980  0.00  0.00    +0.000 C 
ATOM     10  C   UNL     1     145.890 126.637 101.243  0.00  0.00    +0.000 A 
ATOM     11  C   UNL     1     141.646 124.896  99.970  0.00  0.00    +0.000 C 
ATOM     12  C   UNL     1     145.862 128.435  98.994  0.00  0.00    +0.000 A 
ATOM     13  C   UNL     1     147.141 127.271 100.687  0.00  0.00    +0.000 A 
ATOM     14  C   UNL     1     147.139 128.157  99.569  0.00  0.00    +0.000 A 
ATOM     15  C   UNL     1     145.805 129.293  97.895  0.00  0.00    +0.000 A 
ATOM     16  C   UNL     1     148.306 128.711  99.062  0.00  0.00    +0.000 A 
ATOM     17  C   UNL     1     146.974 129.854  97.380  0.00  0.00    +0.000 A 
ATOM     18  C   UNL     1     148.207 129.559  97.964  0.00  0.00    +0.000 A 
ENDROOT
BRANCH   5  19
ATOM     19  O   UNL     1     139.817 127.287 101.558  0.00  0.00    +0.000 OA
ATOM     20  H   UNL     1     139.211 127.152 102.309  0.00  0.00    +0.000 HD
ENDBRANCH   5  19
BRANCH  18  21
ATOM     21  O   UNL     1     149.356 130.101  97.463  0.00  0.00    +0.000 OA
ATOM     22  H   UNL     1     149.472 129.783  96.550  0.00  0.00    +0.000 HD
ENDBRANCH  18  21
TORSDOF 2
ENDMDL
MODEL 6
REMARK VINA RESULT:      -6.7     22.276     23.916
REMARK  Name = Estradiol.pdbqt.pdb
REMARK  2 active torsions:
REMARK  status: ('A' for Active; 'I' for Inactive)
REMARK    1  A    between atoms: C_5  and  O_19
REMARK    2  A    between atoms: C_18  and  O_21
REMARK                            x       y       z     vdW  Elec       q    Type
REMARK                         _______ _______ _______ _____ _____    ______ ____
ROOT
ATOM      1  C   UNL     1     134.550 120.491 136.684  0.00  0.00    +0.000 C 
ATOM      2  C   UNL     1     134.484 121.185 135.237  0.00  0.00    +0.000 C 
ATOM      3  C   UNL     1     135.533 122.108 134.778  0.00  0.00    +0.000 A 
ATOM      4  C   UNL     1     136.877 122.336 135.436  0.00  0.00    +0.000 A 
ATOM      5  C   UNL     1     134.154 119.031 136.379  0.00  0.00    +0.000 C 
ATOM      6  C   UNL     1     135.930 120.649 137.144  0.00  0.00    +0.000 C 
ATOM      7  C   UNL     1     133.936 120.216 134.336  0.00  0.00    +0.000 C 
ATOM      8  C   UNL     1     137.026 121.529 136.592  0.00  0.00    +0.000 C 
ATOM      9  C   UNL     1     133.763 118.884 135.022  0.00  0.00    +0.000 C 
ATOM     10  C   UNL     1     135.399 122.875 133.593  0.00  0.00    +0.000 A 
ATOM     11  C   UNL     1     133.499 121.161 137.607  0.00  0.00    +0.000 C 
ATOM     12  C   UNL     1     137.918 123.290 134.925  0.00  0.00    +0.000 A 
ATOM     13  C   UNL     1     136.453 123.823 133.076  0.00  0.00    +0.000 A 
ATOM     14  C   UNL     1     137.700 124.042 133.731  0.00  0.00    +0.000 A 
ATOM     15  C   UNL     1     139.122 123.468 135.608  0.00  0.00    +0.000 A 
ATOM     16  C   UNL     1     138.645 124.935 133.247  0.00  0.00    +0.000 A 
ATOM     17  C   UNL     1     140.076 124.365 135.127  0.00  0.00    +0.000 A 
ATOM     18  C   UNL     1     139.830 125.087 133.958  0.00  0.00    +0.000 A 
ENDROOT
BRANCH   5  19
ATOM     19  O   UNL     1     134.576 117.966 137.146  0.00  0.00    +0.000 OA
ATOM     20  H   UNL     1     134.091 117.150 136.926  0.00  0.00    +0.000 HD
ENDBRANCH   5  19
BRANCH  18  21
ATOM     21  O   UNL     1     140.758 125.970 133.484  0.00  0.00    +0.000 OA
ATOM     22  H   UNL     1     140.710 126.782 134.018  0.00  0.00    +0.000 HD
ENDBRANCH  18  21
TORSDOF 2
ENDMDL
MODEL 7
REMARK VINA RESULT:      -6.7     13.077     15.014
REMARK  Name = Estradiol.pdbqt.pdb
REMARK  2 active torsions:
REMARK  status: ('A' for Active; 'I' for Inactive)
REMARK    1  A    between atoms: C_5  and  O_19
REMARK    2  A    between atoms: C_18  and  O_21
REMARK                            x       y       z     vdW  Elec       q    Type
REMARK                         _______ _______ _______ _____ _____    ______ ____
ROOT
ATOM      1  C   UNL     1     141.980 124.772  98.174  0.00  0.00    +0.000 C 
ATOM      2  C   UNL     1     143.478 124.195  98.234  0.00  0.00    +0.000 C 
ATOM      3  C   UNL     1     144.420 124.609  99.286  0.00  0.00    +0.000 A 
ATOM      4  C   UNL     1     144.080 125.386 100.539  0.00  0.00    +0.000 A 
ATOM      5  C   UNL     1     141.142 123.510  97.879  0.00  0.00    +0.000 C 
ATOM      6  C   UNL     1     141.723 125.363  99.488  0.00  0.00    +0.000 C 
ATOM      7  C   UNL     1     143.411 122.821  97.831  0.00  0.00    +0.000 C 
ATOM      8  C   UNL     1     142.695 125.685 100.597  0.00  0.00    +0.000 C 
ATOM      9  C   UNL     1     141.980 122.387  97.643  0.00  0.00    +0.000 C 
ATOM     10  C   UNL     1     145.795 124.264  99.246  0.00  0.00    +0.000 A 
ATOM     11  C   UNL     1     141.881 125.781  97.001  0.00  0.00    +0.000 C 
ATOM     12  C   UNL     1     145.080 125.783 101.585  0.00  0.00    +0.000 A 
ATOM     13  C   UNL     1     146.795 124.653 100.307  0.00  0.00    +0.000 A 
ATOM     14  C   UNL     1     146.454 125.412 101.464  0.00  0.00    +0.000 A 
ATOM     15  C   UNL     1     144.693 126.529 102.699  0.00  0.00    +0.000 A 
ATOM     16  C   UNL     1     147.396 125.777 102.416  0.00  0.00    +0.000 A 
ATOM     17  C   UNL     1     145.635 126.900 103.659  0.00  0.00    +0.000 A 
ATOM     18  C   UNL     1     146.970 126.522 103.509  0.00  0.00    +0.000 A 
ENDROOT
BRANCH   5  19
ATOM     19  O   UNL     1     139.824 123.381  98.262  0.00  0.00    +0.000 OA
ATOM     20  H   UNL     1     139.313 122.855  97.621  0.00  0.00    +0.000 HD
ENDBRANCH   5  19
BRANCH  18  21
ATOM     21  O   UNL     1     147.899 126.885 104.443  0.00  0.00    +0.000 OA
ATOM     22  H   UNL     1     147.576 126.611 105.319  0.00  0.00    +0.000 HD
ENDBRANCH  18  21
TORSDOF 2
ENDMDL
MODEL 8
REMARK VINA RESULT:      -6.6     12.657     15.356
REMARK  Name = Estradiol.pdbqt.pdb
REMARK  2 active torsions:
REMARK  status: ('A' for Active; 'I' for Inactive)
REMARK    1  A    between atoms: C_5  and  O_19
REMARK    2  A    between atoms: C_18  and  O_21
REMARK                            x       y       z     vdW  Elec       q    Type
REMARK                         _______ _______ _______ _____ _____    ______ ____
ROOT
ATOM      1  C   UNL     1     142.030 126.886 101.996  0.00  0.00    +0.000 C 
ATOM      2  C   UNL     1     142.282 125.752 100.888  0.00  0.00    +0.000 C 
ATOM      3  C   UNL     1     142.103 126.025  99.453  0.00  0.00    +0.000 A 
ATOM      4  C   UNL     1     141.918 127.385  98.815  0.00  0.00    +0.000 A 
ATOM      5  C   UNL     1     143.235 126.710 102.943  0.00  0.00    +0.000 C 
ATOM      6  C   UNL     1     142.021 128.160 101.275  0.00  0.00    +0.000 C 
ATOM      7  C   UNL     1     143.398 124.973 101.336  0.00  0.00    +0.000 C 
ATOM      8  C   UNL     1     141.940 128.415  99.789  0.00  0.00    +0.000 C 
ATOM      9  C   UNL     1     144.007 125.575 102.577  0.00  0.00    +0.000 C 
ATOM     10  C   UNL     1     142.132 124.994  98.479  0.00  0.00    +0.000 A 
ATOM     11  C   UNL     1     140.703 126.574 102.736  0.00  0.00    +0.000 C 
ATOM     12  C   UNL     1     141.741 127.611  97.342  0.00  0.00    +0.000 A 
ATOM     13  C   UNL     1     141.967 125.227  96.997  0.00  0.00    +0.000 A 
ATOM     14  C   UNL     1     141.765 126.517  96.425  0.00  0.00    +0.000 A 
ATOM     15  C   UNL     1     141.544 128.895  96.834  0.00  0.00    +0.000 A 
ATOM     16  C   UNL     1     141.594 126.703  95.060  0.00  0.00    +0.000 A 
ATOM     17  C   UNL     1     141.371 129.090  95.463  0.00  0.00    +0.000 A 
ATOM     18  C   UNL     1     141.397 127.998  94.594  0.00  0.00    +0.000 A 
ENDROOT
BRANCH   5  19
ATOM     19  O   UNL     1     143.751 127.742 103.697  0.00  0.00    +0.000 OA
ATOM     20  H   UNL     1     144.229 128.387 103.145  0.00  0.00    +0.000 HD
ENDBRANCH   5  19
BRANCH  18  21
ATOM     21  O   UNL     1     141.224 128.180  93.251  0.00  0.00    +0.000 OA
ATOM     22  H   UNL     1     140.594 127.512  92.929  0.00  0.00    +0.000 HD
ENDBRANCH  18  21
TORSDOF 2
ENDMDL
MODEL 9
REMARK VINA RESULT:      -6.5     22.217     23.914
REMARK  Name = Estradiol.pdbqt.pdb
REMARK  2 active torsions:
REMARK  status: ('A' for Active; 'I' for Inactive)
REMARK    1  A    between atoms: C_5  and  O_19
REMARK    2  A    between atoms: C_18  and  O_21
REMARK                            x       y       z     vdW  Elec       q    Type
REMARK                         _______ _______ _______ _____ _____    ______ ____
ROOT
ATOM      1  C   UNL     1     133.574 120.035 135.024  0.00  0.00    +0.000 C 
ATOM      2  C   UNL     1     134.786 120.271 136.050  0.00  0.00    +0.000 C 
ATOM      3  C   UNL     1     135.886 121.198 135.742  0.00  0.00    +0.000 A 
ATOM      4  C   UNL     1     135.920 122.203 134.610  0.00  0.00    +0.000 A 
ATOM      5  C   UNL     1     132.338 120.057 135.948  0.00  0.00    +0.000 C 
ATOM      6  C   UNL     1     133.627 121.147 134.074  0.00  0.00    +0.000 C 
ATOM      7  C   UNL     1     134.229 120.233 137.369  0.00  0.00    +0.000 C 
ATOM      8  C   UNL     1     134.728 122.155 133.845  0.00  0.00    +0.000 C 
ATOM      9  C   UNL     1     132.725 120.135 137.312  0.00  0.00    +0.000 C 
ATOM     10  C   UNL     1     137.055 121.277 136.540  0.00  0.00    +0.000 A 
ATOM     11  C   UNL     1     133.741 118.639 134.368  0.00  0.00    +0.000 C 
ATOM     12  C   UNL     1     137.068 123.132 134.338  0.00  0.00    +0.000 A 
ATOM     13  C   UNL     1     138.201 122.221 136.272  0.00  0.00    +0.000 A 
ATOM     14  C   UNL     1     138.221 123.138 135.180  0.00  0.00    +0.000 A 
ATOM     15  C   UNL     1     137.037 124.008 133.253  0.00  0.00    +0.000 A 
ATOM     16  C   UNL     1     139.297 123.982 134.941  0.00  0.00    +0.000 A 
ATOM     17  C   UNL     1     138.115 124.859 133.006  0.00  0.00    +0.000 A 
ATOM     18  C   UNL     1     139.229 124.838 133.848  0.00  0.00    +0.000 A 
ENDROOT
BRANCH   5  19
ATOM     19  O   UNL     1     131.086 120.434 135.513  0.00  0.00    +0.000 OA
ATOM     20  H   UNL     1     130.420 119.746 135.693  0.00  0.00    +0.000 HD
ENDBRANCH   5  19
BRANCH  18  21
ATOM     21  O   UNL     1     140.289 125.665 133.610  0.00  0.00    +0.000 OA
ATOM     22  H   UNL     1     140.527 126.106 134.444  0.00  0.00    +0.000 HD
ENDBRANCH  18  21
TORSDOF 2
ENDMDL
