MODEL 1
REMARK VINA RESULT:      -8.5      0.000      0.000
REMARK  Name = 
REMARK  11 active torsions:
REMARK  status: ('A' for Active; 'I' for Inactive)
REMARK    1  A    between atoms: O_1  and  C_16
REMARK    2  A    between atoms: O_1  and  C_22
REMARK    3  A    between atoms: O_6  and  C_24
REMARK    4  A    between atoms: O_8  and  C_26
REMARK    5  A    between atoms: O_11  and  C_36
REMARK    6  A    between atoms: O_11  and  C_41
REMARK    7  A    between atoms: O_12  and  C_37
REMARK    8  A    between atoms: O_12  and  C_42
REMARK    9  A    between atoms: O_13  and  C_39
REMARK   10  A    between atoms: C_17  and  C_23
REMARK   11  A    between atoms: C_35  and  C_40
REMARK                            x       y       z     vdW  Elec       q    Type
REMARK                         _______ _______ _______ _____ _____    ______ ____
ROOT
ATOM      1  O   UNL     1     142.139 129.990  99.486  0.00  0.00    +0.000 OA
ATOM      2  O   UNL     1     141.720 128.763 101.377  0.00  0.00    +0.000 OA
ATOM      3  O   UNL     1     142.690 122.756  95.228  0.00  0.00    +0.000 OA
ATOM      4  O   UNL     1     142.733 121.858  97.466  0.00  0.00    +0.000 OA
ATOM      5  C   UNL     1     142.636 128.265  98.021  0.00  0.00    +0.000 C 
ATOM      6  C   UNL     1     141.894 127.680  99.207  0.00  0.00    +0.000 C 
ATOM      7  C   UNL     1     142.348 127.456  96.763  0.00  0.00    +0.000 C 
ATOM      8  C   UNL     1     142.488 126.330  99.608  0.00  0.00    +0.000 C 
ATOM      9  C   UNL     1     142.482 125.959  97.037  0.00  0.00    +0.000 A 
ATOM     10  C   UNL     1     142.509 125.423  98.367  0.00  0.00    +0.000 A 
ATOM     11  C   UNL     1     142.173 129.699  98.078  0.00  0.00    +0.000 C 
ATOM     12  C   UNL     1     141.932 128.822 100.177  0.00  0.00    +0.000 C 
ATOM     13  C   UNL     1     142.542 125.081  95.938  0.00  0.00    +0.000 A 
ATOM     14  C   UNL     1     142.594 124.029  98.561  0.00  0.00    +0.000 A 
ATOM     15  C   UNL     1     142.624 123.726  96.179  0.00  0.00    +0.000 A 
ATOM     16  C   UNL     1     142.649 123.215  97.452  0.00  0.00    +0.000 A 
ATOM     17  C   UNL     1     142.761 121.573  96.052  0.00  0.00    +0.000 C 
ENDROOT
BRANCH   8  18
ATOM     18  C   UNL     1     143.842 126.408 100.319  0.00  0.00    +0.000 A 
ATOM     19  C   UNL     1     145.037 126.731  99.652  0.00  0.00    +0.000 A 
ATOM     20  C   UNL     1     143.905 126.160 101.701  0.00  0.00    +0.000 A 
ATOM     21  C   UNL     1     145.114 126.257 102.391  0.00  0.00    +0.000 A 
ATOM     22  C   UNL     1     146.267 126.813 100.320  0.00  0.00    +0.000 A 
ATOM     23  C   UNL     1     146.292 126.574 101.694  0.00  0.00    +0.000 A 
BRANCH  21  24
ATOM     24  O   UNL     1     145.279 126.057 103.742  0.00  0.00    +0.000 OA
ATOM     25  C   UNL     1     144.089 125.860 104.501  0.00  0.00    +0.000 C 
ENDBRANCH  21  24
BRANCH  22  26
ATOM     26  O   UNL     1     147.304 127.141  99.489  0.00  0.00    +0.000 OA
ATOM     27  C   UNL     1     147.546 128.518  99.237  0.00  0.00    +0.000 C 
ENDBRANCH  22  26
BRANCH  23  28
ATOM     28  O   UNL     1     147.452 126.649 102.424  0.00  0.00    +0.000 OA
ATOM     29  H   UNL     1     148.073 127.150 101.861  0.00  0.00    +0.000 HD
ENDBRANCH  23  28
ENDBRANCH   8  18
BRANCH   7  30
ATOM     30  O   UNL     1     140.998 127.677  96.354  0.00  0.00    +0.000 OA
BRANCH  30  34
ATOM     31  O   UNL     1     142.172 128.241  94.412  0.00  0.00    +0.000 OA
ATOM     32  O   UNL     1     141.284 130.286  91.487  0.00  0.00    +0.000 OA
ATOM     33  O   UNL     1     143.345 129.210  91.065  0.00  0.00    +0.000 OA
ATOM     34  C   UNL     1     140.877 127.985  94.959  0.00  0.00    +0.000 C 
ATOM     35  C   UNL     1     139.945 129.214  94.851  0.00  0.00    +0.000 C 
ATOM     36  C   UNL     1     141.330 129.914  92.869  0.00  0.00    +0.000 C 
ATOM     37  C   UNL     1     139.911 129.758  93.416  0.00  0.00    +0.000 C 
ATOM     38  C   UNL     1     142.085 128.598  93.035  0.00  0.00    +0.000 C 
ATOM     39  C   UNL     1     143.468 128.781  92.420  0.00  0.00    +0.000 C 
ATOM     40  C   UNL     1     142.609 130.429  90.968  0.00  0.00    +0.000 C 
ATOM     41  C   UNL     1     142.497 130.795  89.499  0.00  0.00    +0.000 C 
BRANCH  35  42
ATOM     42  O   UNL     1     138.621 128.839  95.267  0.00  0.00    +0.000 OA
ATOM     43  H   UNL     1     138.018 129.170  94.574  0.00  0.00    +0.000 HD
ENDBRANCH  35  42
BRANCH  37  44
ATOM     44  O   UNL     1     139.269 131.044  93.388  0.00  0.00    +0.000 OA
ATOM     45  H   UNL     1     139.418 131.436  94.269  0.00  0.00    +0.000 HD
ENDBRANCH  37  44
ENDBRANCH  30  34
ENDBRANCH   7  30
TORSDOF 8
ENDMDL
MODEL 2
REMARK VINA RESULT:      -8.1      3.678      6.463
REMARK  Name = 
REMARK  11 active torsions:
REMARK  status: ('A' for Active; 'I' for Inactive)
REMARK    1  A    between atoms: O_1  and  C_16
REMARK    2  A    between atoms: O_1  and  C_22
REMARK    3  A    between atoms: O_6  and  C_24
REMARK    4  A    between atoms: O_8  and  C_26
REMARK    5  A    between atoms: O_11  and  C_36
REMARK    6  A    between atoms: O_11  and  C_41
REMARK    7  A    between atoms: O_12  and  C_37
REMARK    8  A    between atoms: O_12  and  C_42
REMARK    9  A    between atoms: O_13  and  C_39
REMARK   10  A    between atoms: C_17  and  C_23
REMARK   11  A    between atoms: C_35  and  C_40
REMARK                            x       y       z     vdW  Elec       q    Type
REMARK                         _______ _______ _______ _____ _____    ______ ____
ROOT
ATOM      1  O   UNL     1     146.237 125.904  99.673  0.00  0.00    +0.000 OA
ATOM      2  O   UNL     1     144.838 127.146 100.998  0.00  0.00    +0.000 OA
ATOM      3  O   UNL     1     141.937 128.665  92.991  0.00  0.00    +0.000 OA
ATOM      4  O   UNL     1     140.419 129.392  94.718  0.00  0.00    +0.000 OA
ATOM      5  C   UNL     1     145.180 126.195  97.632  0.00  0.00    +0.000 C 
ATOM      6  C   UNL     1     144.698 127.282  98.574  0.00  0.00    +0.000 C 
ATOM      7  C   UNL     1     145.166 126.696  96.193  0.00  0.00    +0.000 C 
ATOM      8  C   UNL     1     143.203 127.539  98.388  0.00  0.00    +0.000 C 
ATOM      9  C   UNL     1     143.849 127.402  95.876  0.00  0.00    +0.000 A 
ATOM     10  C   UNL     1     142.944 127.834  96.901  0.00  0.00    +0.000 A 
ATOM     11  C   UNL     1     146.504 125.843  98.261  0.00  0.00    +0.000 C 
ATOM     12  C   UNL     1     145.203 126.780  99.893  0.00  0.00    +0.000 C 
ATOM     13  C   UNL     1     143.541 127.667  94.528  0.00  0.00    +0.000 A 
ATOM     14  C   UNL     1     141.761 128.516  96.553  0.00  0.00    +0.000 A 
ATOM     15  C   UNL     1     142.372 128.337  94.237  0.00  0.00    +0.000 A 
ATOM     16  C   UNL     1     141.509 128.751  95.220  0.00  0.00    +0.000 A 
ATOM     17  C   UNL     1     140.696 129.332  93.304  0.00  0.00    +0.000 C 
ENDROOT
BRANCH   8  18
ATOM     18  C   UNL     1     142.286 126.452  98.954  0.00  0.00    +0.000 A 
ATOM     19  C   UNL     1     141.576 126.603 100.158  0.00  0.00    +0.000 A 
ATOM     20  C   UNL     1     142.129 125.250  98.243  0.00  0.00    +0.000 A 
ATOM     21  C   UNL     1     141.274 124.250  98.707  0.00  0.00    +0.000 A 
ATOM     22  C   UNL     1     140.727 125.603 100.656  0.00  0.00    +0.000 A 
ATOM     23  C   UNL     1     140.584 124.428  99.918  0.00  0.00    +0.000 A 
BRANCH  21  24
ATOM     24  O   UNL     1     141.033 123.051  98.077  0.00  0.00    +0.000 OA
ATOM     25  C   UNL     1     142.137 122.464  97.393  0.00  0.00    +0.000 C 
ENDBRANCH  21  24
BRANCH  22  26
ATOM     26  O   UNL     1     140.131 125.950 101.838  0.00  0.00    +0.000 OA
ATOM     27  C   UNL     1     140.862 126.768 102.739  0.00  0.00    +0.000 C 
ENDBRANCH  22  26
BRANCH  23  28
ATOM     28  O   UNL     1     139.762 123.407 100.327  0.00  0.00    +0.000 OA
ATOM     29  H   UNL     1     140.204 122.591 100.023  0.00  0.00    +0.000 HD
ENDBRANCH  23  28
ENDBRANCH   8  18
BRANCH   7  30
ATOM     30  O   UNL     1     146.201 127.665  96.017  0.00  0.00    +0.000 OA
BRANCH  30  34
ATOM     31  O   UNL     1     146.698 126.308  94.179  0.00  0.00    +0.000 OA
ATOM     32  O   UNL     1     149.423 126.384  91.710  0.00  0.00    +0.000 OA
ATOM     33  O   UNL     1     147.830 124.775  91.035  0.00  0.00    +0.000 OA
ATOM     34  C   UNL     1     146.783 127.632  94.708  0.00  0.00    +0.000 C 
ATOM     35  C   UNL     1     148.247 128.108  94.857  0.00  0.00    +0.000 C 
ATOM     36  C   UNL     1     148.808 126.507  92.997  0.00  0.00    +0.000 C 
ATOM     37  C   UNL     1     149.027 127.917  93.548  0.00  0.00    +0.000 C 
ATOM     38  C   UNL     1     147.311 126.229  92.895  0.00  0.00    +0.000 C 
ATOM     39  C   UNL     1     147.142 124.843  92.283  0.00  0.00    +0.000 C 
ATOM     40  C   UNL     1     149.218 125.069  91.187  0.00  0.00    +0.000 C 
ATOM     41  C   UNL     1     149.865 125.007  89.815  0.00  0.00    +0.000 C 
BRANCH  35  42
ATOM     42  O   UNL     1     148.255 129.495  95.235  0.00  0.00    +0.000 OA
ATOM     43  H   UNL     1     148.183 129.509  96.210  0.00  0.00    +0.000 HD
ENDBRANCH  35  42
BRANCH  37  44
ATOM     44  O   UNL     1     150.433 128.102  93.778  0.00  0.00    +0.000 OA
ATOM     45  H   UNL     1     150.812 128.366  92.918  0.00  0.00    +0.000 HD
ENDBRANCH  37  44
ENDBRANCH  30  34
ENDBRANCH   7  30
TORSDOF 8
ENDMDL
MODEL 3
REMARK VINA RESULT:      -7.8      3.712      6.900
REMARK  Name = 
REMARK  11 active torsions:
REMARK  status: ('A' for Active; 'I' for Inactive)
REMARK    1  A    between atoms: O_1  and  C_16
REMARK    2  A    between atoms: O_1  and  C_22
REMARK    3  A    between atoms: O_6  and  C_24
REMARK    4  A    between atoms: O_8  and  C_26
REMARK    5  A    between atoms: O_11  and  C_36
REMARK    6  A    between atoms: O_11  and  C_41
REMARK    7  A    between atoms: O_12  and  C_37
REMARK    8  A    between atoms: O_12  and  C_42
REMARK    9  A    between atoms: O_13  and  C_39
REMARK   10  A    between atoms: C_17  and  C_23
REMARK   11  A    between atoms: C_35  and  C_40
REMARK                            x       y       z     vdW  Elec       q    Type
REMARK                         _______ _______ _______ _____ _____    ______ ____
ROOT
ATOM      1  O   UNL     1     145.792 124.758 100.011  0.00  0.00    +0.000 OA
ATOM      2  O   UNL     1     144.660 126.288 101.290  0.00  0.00    +0.000 OA
ATOM      3  O   UNL     1     142.359 128.300  93.198  0.00  0.00    +0.000 OA
ATOM      4  O   UNL     1     140.990 129.357  94.878  0.00  0.00    +0.000 OA
ATOM      5  C   UNL     1     144.875 125.246  97.941  0.00  0.00    +0.000 C 
ATOM      6  C   UNL     1     144.615 126.422  98.863  0.00  0.00    +0.000 C 
ATOM      7  C   UNL     1     145.006 125.721  96.499  0.00  0.00    +0.000 C 
ATOM      8  C   UNL     1     143.216 126.993  98.635  0.00  0.00    +0.000 C 
ATOM      9  C   UNL     1     143.880 126.690  96.142  0.00  0.00    +0.000 A 
ATOM     10  C   UNL     1     143.064 127.318  97.139  0.00  0.00    +0.000 A 
ATOM     11  C   UNL     1     146.075 124.624  98.608  0.00  0.00    +0.000 C 
ATOM     12  C   UNL     1     144.966 125.839 100.198  0.00  0.00    +0.000 C 
ATOM     13  C   UNL     1     143.671 126.998  94.784  0.00  0.00    +0.000 A 
ATOM     14  C   UNL     1     142.065 128.235  96.754  0.00  0.00    +0.000 A 
ATOM     15  C   UNL     1     142.682 127.901  94.457  0.00  0.00    +0.000 A 
ATOM     16  C   UNL     1     141.903 128.503  95.413  0.00  0.00    +0.000 A 
ATOM     17  C   UNL     1     141.284 129.222  93.472  0.00  0.00    +0.000 C 
ENDROOT
BRANCH   8  18
ATOM     18  C   UNL     1     142.072 126.135  99.182  0.00  0.00    +0.000 A 
ATOM     19  C   UNL     1     141.606 124.980  98.530  0.00  0.00    +0.000 A 
ATOM     20  C   UNL     1     141.461 126.500 100.393  0.00  0.00    +0.000 A 
ATOM     21  C   UNL     1     140.441 125.723 100.943  0.00  0.00    +0.000 A 
ATOM     22  C   UNL     1     140.567 124.195  99.052  0.00  0.00    +0.000 A 
ATOM     23  C   UNL     1     139.991 124.578 100.263  0.00  0.00    +0.000 A 
BRANCH  21  24
ATOM     24  O   UNL     1     139.795 125.979 102.130  0.00  0.00    +0.000 OA
ATOM     25  C   UNL     1     140.597 126.506 103.184  0.00  0.00    +0.000 C 
ENDBRANCH  21  24
BRANCH  22  26
ATOM     26  O   UNL     1     140.268 123.116  98.265  0.00  0.00    +0.000 OA
ATOM     27  C   UNL     1     140.949 122.984  97.026  0.00  0.00    +0.000 C 
ENDBRANCH  22  26
BRANCH  23  28
ATOM     28  O   UNL     1     138.981 123.857 100.849  0.00  0.00    +0.000 OA
ATOM     29  H   UNL     1     139.079 122.952 100.495  0.00  0.00    +0.000 HD
ENDBRANCH  23  28
ENDBRANCH   8  18
BRANCH   7  30
ATOM     30  O   UNL     1     146.230 126.441  96.345  0.00  0.00    +0.000 OA
BRANCH  30  34
ATOM     31  O   UNL     1     146.328 124.985  94.519  0.00  0.00    +0.000 OA
ATOM     32  O   UNL     1     149.041 122.916  93.146  0.00  0.00    +0.000 OA
ATOM     33  O   UNL     1     147.206 122.849  91.658  0.00  0.00    +0.000 OA
ATOM     34  C   UNL     1     147.075 125.901  95.322  0.00  0.00    +0.000 C 
ATOM     35  C   UNL     1     148.263 125.217  96.036  0.00  0.00    +0.000 C 
ATOM     36  C   UNL     1     148.245 123.541  94.159  0.00  0.00    +0.000 C 
ATOM     37  C   UNL     1     149.125 124.425  95.043  0.00  0.00    +0.000 C 
ATOM     38  C   UNL     1     147.151 124.392  93.519  0.00  0.00    +0.000 C 
ATOM     39  C   UNL     1     146.342 123.484  92.599  0.00  0.00    +0.000 C 
ATOM     40  C   UNL     1     148.222 122.090  92.311  0.00  0.00    +0.000 C 
ATOM     41  C   UNL     1     149.112 121.478  91.244  0.00  0.00    +0.000 C 
BRANCH  35  42
ATOM     42  O   UNL     1     149.060 126.219  96.689  0.00  0.00    +0.000 OA
ATOM     43  H   UNL     1     148.523 127.035  96.686  0.00  0.00    +0.000 HD
ENDBRANCH  35  42
BRANCH  37  44
ATOM     44  O   UNL     1     150.050 123.583  95.750  0.00  0.00    +0.000 OA
ATOM     45  H   UNL     1     150.171 123.995  96.626  0.00  0.00    +0.000 HD
ENDBRANCH  37  44
ENDBRANCH  30  34
ENDBRANCH   7  30
TORSDOF 8
ENDMDL
MODEL 4
REMARK VINA RESULT:      -7.7      3.865      5.531
REMARK  Name = 
REMARK  11 active torsions:
REMARK  status: ('A' for Active; 'I' for Inactive)
REMARK    1  A    between atoms: O_1  and  C_16
REMARK    2  A    between atoms: O_1  and  C_22
REMARK    3  A    between atoms: O_6  and  C_24
REMARK    4  A    between atoms: O_8  and  C_26
REMARK    5  A    between atoms: O_11  and  C_36
REMARK    6  A    between atoms: O_11  and  C_41
REMARK    7  A    between atoms: O_12  and  C_37
REMARK    8  A    between atoms: O_12  and  C_42
REMARK    9  A    between atoms: O_13  and  C_39
REMARK   10  A    between atoms: C_17  and  C_23
REMARK   11  A    between atoms: C_35  and  C_40
REMARK                            x       y       z     vdW  Elec       q    Type
REMARK                         _______ _______ _______ _____ _____    ______ ____
ROOT
ATOM      1  O   UNL     1     145.720 130.049  97.968  0.00  0.00    +0.000 OA
ATOM      2  O   UNL     1     143.482 130.421  98.296  0.00  0.00    +0.000 OA
ATOM      3  O   UNL     1     143.830 122.130  95.852  0.00  0.00    +0.000 OA
ATOM      4  O   UNL     1     141.697 122.771  96.778  0.00  0.00    +0.000 OA
ATOM      5  C   UNL     1     145.671 127.763  97.593  0.00  0.00    +0.000 C 
ATOM      6  C   UNL     1     144.269 128.306  97.389  0.00  0.00    +0.000 C 
ATOM      7  C   UNL     1     145.904 126.550  96.702  0.00  0.00    +0.000 C 
ATOM      8  C   UNL     1     143.226 127.346  97.958  0.00  0.00    +0.000 C 
ATOM      9  C   UNL     1     144.728 125.578  96.788  0.00  0.00    +0.000 A 
ATOM     10  C   UNL     1     143.460 125.957  97.339  0.00  0.00    +0.000 A 
ATOM     11  C   UNL     1     146.492 129.004  97.352  0.00  0.00    +0.000 C 
ATOM     12  C   UNL     1     144.396 129.684  97.965  0.00  0.00    +0.000 C 
ATOM     13  C   UNL     1     144.895 124.280  96.270  0.00  0.00    +0.000 A 
ATOM     14  C   UNL     1     142.397 125.031  97.357  0.00  0.00    +0.000 A 
ATOM     15  C   UNL     1     143.826 123.410  96.310  0.00  0.00    +0.000 A 
ATOM     16  C   UNL     1     142.613 123.775  96.836  0.00  0.00    +0.000 A 
ATOM     17  C   UNL     1     142.477 121.730  96.155  0.00  0.00    +0.000 C 
ENDROOT
BRANCH   8  18
ATOM     18  C   UNL     1     143.140 127.316  99.486  0.00  0.00    +0.000 A 
ATOM     19  C   UNL     1     141.919 127.330 100.182  0.00  0.00    +0.000 A 
ATOM     20  C   UNL     1     144.326 127.260 100.237  0.00  0.00    +0.000 A 
ATOM     21  C   UNL     1     144.288 127.195 101.631  0.00  0.00    +0.000 A 
ATOM     22  C   UNL     1     141.856 127.287 101.582  0.00  0.00    +0.000 A 
ATOM     23  C   UNL     1     143.052 127.219 102.297  0.00  0.00    +0.000 A 
BRANCH  21  24
ATOM     24  O   UNL     1     145.387 127.115 102.455  0.00  0.00    +0.000 OA
ATOM     25  C   UNL     1     146.338 126.101 102.143  0.00  0.00    +0.000 C 
ENDBRANCH  21  24
BRANCH  22  26
ATOM     26  O   UNL     1     140.573 127.308 102.059  0.00  0.00    +0.000 OA
ATOM     27  C   UNL     1     139.763 126.161 101.845  0.00  0.00    +0.000 C 
ENDBRANCH  22  26
BRANCH  23  28
ATOM     28  O   UNL     1     143.077 127.159 103.668  0.00  0.00    +0.000 OA
ATOM     29  H   UNL     1     143.878 126.642 103.883  0.00  0.00    +0.000 HD
ENDBRANCH  23  28
ENDBRANCH   8  18
BRANCH   7  30
ATOM     30  O   UNL     1     145.988 126.969  95.339  0.00  0.00    +0.000 OA
BRANCH  30  34
ATOM     31  O   UNL     1     147.961 127.990  94.609  0.00  0.00    +0.000 OA
ATOM     32  O   UNL     1     150.346 127.141  91.941  0.00  0.00    +0.000 OA
ATOM     33  O   UNL     1     151.237 128.916  93.222  0.00  0.00    +0.000 OA
ATOM     34  C   UNL     1     147.280 126.743  94.761  0.00  0.00    +0.000 C 
ATOM     35  C   UNL     1     147.046 126.036  93.406  0.00  0.00    +0.000 C 
ATOM     36  C   UNL     1     149.067 127.282  92.568  0.00  0.00    +0.000 C 
ATOM     37  C   UNL     1     148.352 125.931  92.604  0.00  0.00    +0.000 C 
ATOM     38  C   UNL     1     149.232 127.806  93.991  0.00  0.00    +0.000 C 
ATOM     39  C   UNL     1     150.004 129.119  93.911  0.00  0.00    +0.000 C 
ATOM     40  C   UNL     1     151.024 128.401  91.908  0.00  0.00    +0.000 C 
ATOM     41  C   UNL     1     152.380 128.185  91.261  0.00  0.00    +0.000 C 
BRANCH  35  42
ATOM     42  O   UNL     1     146.509 124.725  93.645  0.00  0.00    +0.000 OA
ATOM     43  H   UNL     1     147.091 124.313  94.312  0.00  0.00    +0.000 HD
ENDBRANCH  35  42
BRANCH  37  44
ATOM     44  O   UNL     1     148.073 125.528  91.253  0.00  0.00    +0.000 OA
ATOM     45  H   UNL     1     147.206 125.080  91.281  0.00  0.00    +0.000 HD
ENDBRANCH  37  44
ENDBRANCH  30  34
ENDBRANCH   7  30
TORSDOF 8
ENDMDL
MODEL 5
REMARK VINA RESULT:      -7.5      3.612      5.979
REMARK  Name = 
REMARK  11 active torsions:
REMARK  status: ('A' for Active; 'I' for Inactive)
REMARK    1  A    between atoms: O_1  and  C_16
REMARK    2  A    between atoms: O_1  and  C_22
REMARK    3  A    between atoms: O_6  and  C_24
REMARK    4  A    between atoms: O_8  and  C_26
REMARK    5  A    between atoms: O_11  and  C_36
REMARK    6  A    between atoms: O_11  and  C_41
REMARK    7  A    between atoms: O_12  and  C_37
REMARK    8  A    between atoms: O_12  and  C_42
REMARK    9  A    between atoms: O_13  and  C_39
REMARK   10  A    between atoms: C_17  and  C_23
REMARK   11  A    between atoms: C_35  and  C_40
REMARK                            x       y       z     vdW  Elec       q    Type
REMARK                         _______ _______ _______ _____ _____    ______ ____
ROOT
ATOM      1  O   UNL     1     145.851 130.012  97.934  0.00  0.00    +0.000 OA
ATOM      2  O   UNL     1     143.635 130.427  98.350  0.00  0.00    +0.000 OA
ATOM      3  O   UNL     1     143.735 122.110  95.974  0.00  0.00    +0.000 OA
ATOM      4  O   UNL     1     141.654 122.798  96.980  0.00  0.00    +0.000 OA
ATOM      5  C   UNL     1     145.746 127.725  97.583  0.00  0.00    +0.000 C 
ATOM      6  C   UNL     1     144.347 128.291  97.432  0.00  0.00    +0.000 C 
ATOM      7  C   UNL     1     145.921 126.499  96.695  0.00  0.00    +0.000 C 
ATOM      8  C   UNL     1     143.311 127.355  98.052  0.00  0.00    +0.000 C 
ATOM      9  C   UNL     1     144.732 125.550  96.839  0.00  0.00    +0.000 A 
ATOM     10  C   UNL     1     143.495 125.956  97.438  0.00  0.00    +0.000 A 
ATOM     11  C   UNL     1     146.579 128.949  97.297  0.00  0.00    +0.000 C 
ATOM     12  C   UNL     1     144.522 129.672  97.989  0.00  0.00    +0.000 C 
ATOM     13  C   UNL     1     144.855 124.244  96.326  0.00  0.00    +0.000 A 
ATOM     14  C   UNL     1     142.417 125.050  97.509  0.00  0.00    +0.000 A 
ATOM     15  C   UNL     1     143.773 123.395  96.418  0.00  0.00    +0.000 A 
ATOM     16  C   UNL     1     142.589 123.786  96.991  0.00  0.00    +0.000 A 
ATOM     17  C   UNL     1     142.389 121.737  96.335  0.00  0.00    +0.000 C 
ENDROOT
BRANCH   8  18
ATOM     18  C   UNL     1     143.288 127.340  99.582  0.00  0.00    +0.000 A 
ATOM     19  C   UNL     1     142.098 127.400 100.328  0.00  0.00    +0.000 A 
ATOM     20  C   UNL     1     144.502 127.251 100.285  0.00  0.00    +0.000 A 
ATOM     21  C   UNL     1     144.520 127.199 101.679  0.00  0.00    +0.000 A 
ATOM     22  C   UNL     1     142.092 127.371 101.730  0.00  0.00    +0.000 A 
ATOM     23  C   UNL     1     143.314 127.268 102.396  0.00  0.00    +0.000 A 
BRANCH  21  24
ATOM     24  O   UNL     1     145.648 127.089 102.458  0.00  0.00    +0.000 OA
ATOM     25  C   UNL     1     146.617 128.124 102.316  0.00  0.00    +0.000 C 
ENDBRANCH  21  24
BRANCH  22  26
ATOM     26  O   UNL     1     140.831 127.437 102.260  0.00  0.00    +0.000 OA
ATOM     27  C   UNL     1     139.892 126.446 101.872  0.00  0.00    +0.000 C 
ENDBRANCH  22  26
BRANCH  23  28
ATOM     28  O   UNL     1     143.394 127.218 103.766  0.00  0.00    +0.000 OA
ATOM     29  H   UNL     1     144.215 127.699 103.987  0.00  0.00    +0.000 HD
ENDBRANCH  23  28
ENDBRANCH   8  18
BRANCH   7  30
ATOM     30  O   UNL     1     145.956 126.905  95.326  0.00  0.00    +0.000 OA
BRANCH  30  34
ATOM     31  O   UNL     1     146.282 125.071  93.914  0.00  0.00    +0.000 OA
ATOM     32  O   UNL     1     149.170 122.864  93.349  0.00  0.00    +0.000 OA
ATOM     33  O   UNL     1     147.511 122.372  91.740  0.00  0.00    +0.000 OA
ATOM     34  C   UNL     1     146.918 126.181  94.550  0.00  0.00    +0.000 C 
ATOM     35  C   UNL     1     148.035 125.736  95.522  0.00  0.00    +0.000 C 
ATOM     36  C   UNL     1     148.256 123.671  94.100  0.00  0.00    +0.000 C 
ATOM     37  C   UNL     1     149.016 124.774  94.836  0.00  0.00    +0.000 C 
ATOM     38  C   UNL     1     147.223 124.300  93.170  0.00  0.00    +0.000 C 
ATOM     39  C   UNL     1     146.537 123.169  92.412  0.00  0.00    +0.000 C 
ATOM     40  C   UNL     1     148.465 121.832  92.654  0.00  0.00    +0.000 C 
ATOM     41  C   UNL     1     149.478 121.030  91.857  0.00  0.00    +0.000 C 
BRANCH  35  42
ATOM     42  O   UNL     1     148.736 126.897  95.998  0.00  0.00    +0.000 OA
ATOM     43  H   UNL     1     148.228 127.221  96.767  0.00  0.00    +0.000 HD
ENDBRANCH  35  42
BRANCH  37  44
ATOM     44  O   UNL     1     149.874 124.162  95.812  0.00  0.00    +0.000 OA
ATOM     45  H   UNL     1     150.499 123.606  95.308  0.00  0.00    +0.000 HD
ENDBRANCH  37  44
ENDBRANCH  30  34
ENDBRANCH   7  30
TORSDOF 8
ENDMDL
MODEL 6
REMARK VINA RESULT:      -7.4      3.660      5.828
REMARK  Name = 
REMARK  11 active torsions:
REMARK  status: ('A' for Active; 'I' for Inactive)
REMARK    1  A    between atoms: O_1  and  C_16
REMARK    2  A    between atoms: O_1  and  C_22
REMARK    3  A    between atoms: O_6  and  C_24
REMARK    4  A    between atoms: O_8  and  C_26
REMARK    5  A    between atoms: O_11  and  C_36
REMARK    6  A    between atoms: O_11  and  C_41
REMARK    7  A    between atoms: O_12  and  C_37
REMARK    8  A    between atoms: O_12  and  C_42
REMARK    9  A    between atoms: O_13  and  C_39
REMARK   10  A    between atoms: C_17  and  C_23
REMARK   11  A    between atoms: C_35  and  C_40
REMARK                            x       y       z     vdW  Elec       q    Type
REMARK                         _______ _______ _______ _____ _____    ______ ____
ROOT
ATOM      1  O   UNL     1     145.843 129.985  97.910  0.00  0.00    +0.000 OA
ATOM      2  O   UNL     1     143.624 130.411  98.300  0.00  0.00    +0.000 OA
ATOM      3  O   UNL     1     143.703 122.118  95.840  0.00  0.00    +0.000 OA
ATOM      4  O   UNL     1     141.613 122.810  96.824  0.00  0.00    +0.000 OA
ATOM      5  C   UNL     1     145.728 127.702  97.534  0.00  0.00    +0.000 C 
ATOM      6  C   UNL     1     144.335 128.280  97.370  0.00  0.00    +0.000 C 
ATOM      7  C   UNL     1     145.907 126.485  96.636  0.00  0.00    +0.000 C 
ATOM      8  C   UNL     1     143.284 127.344  97.966  0.00  0.00    +0.000 C 
ATOM      9  C   UNL     1     144.710 125.542  96.754  0.00  0.00    +0.000 A 
ATOM     10  C   UNL     1     143.467 125.950  97.340  0.00  0.00    +0.000 A 
ATOM     11  C   UNL     1     146.573 128.923  97.272  0.00  0.00    +0.000 C 
ATOM     12  C   UNL     1     144.511 129.653  97.944  0.00  0.00    +0.000 C 
ATOM     13  C   UNL     1     144.831 124.241  96.230  0.00  0.00    +0.000 A 
ATOM     14  C   UNL     1     142.383 125.051  97.386  0.00  0.00    +0.000 A 
ATOM     15  C   UNL     1     143.743 123.397  96.298  0.00  0.00    +0.000 A 
ATOM     16  C   UNL     1     142.554 123.791  96.858  0.00  0.00    +0.000 A 
ATOM     17  C   UNL     1     142.349 121.750  96.178  0.00  0.00    +0.000 C 
ENDROOT
BRANCH   8  18
ATOM     18  C   UNL     1     143.240 127.314  99.495  0.00  0.00    +0.000 A 
ATOM     19  C   UNL     1     144.398 127.266 100.291  0.00  0.00    +0.000 A 
ATOM     20  C   UNL     1     141.995 127.349 100.145  0.00  0.00    +0.000 A 
ATOM     21  C   UNL     1     141.914 127.360 101.538  0.00  0.00    +0.000 A 
ATOM     22  C   UNL     1     144.342 127.255 101.693  0.00  0.00    +0.000 A 
ATOM     23  C   UNL     1     143.090 127.304 102.306  0.00  0.00    +0.000 A 
BRANCH  21  24
ATOM     24  O   UNL     1     140.750 127.416 102.269  0.00  0.00    +0.000 OA
ATOM     25  C   UNL     1     139.899 126.276 102.189  0.00  0.00    +0.000 C 
ENDBRANCH  21  24
BRANCH  22  26
ATOM     26  O   UNL     1     145.579 127.208 102.275  0.00  0.00    +0.000 OA
ATOM     27  C   UNL     1     146.591 128.062 101.762  0.00  0.00    +0.000 C 
ENDBRANCH  22  26
BRANCH  23  28
ATOM     28  O   UNL     1     142.948 127.312 103.671  0.00  0.00    +0.000 OA
ATOM     29  H   UNL     1     143.306 126.452 103.967  0.00  0.00    +0.000 HD
ENDBRANCH  23  28
ENDBRANCH   8  18
BRANCH   7  30
ATOM     30  O   UNL     1     145.964 126.904  95.272  0.00  0.00    +0.000 OA
BRANCH  30  34
ATOM     31  O   UNL     1     146.330 125.106  93.824  0.00  0.00    +0.000 OA
ATOM     32  O   UNL     1     149.229 122.906  93.292  0.00  0.00    +0.000 OA
ATOM     33  O   UNL     1     147.620 122.460  91.620  0.00  0.00    +0.000 OA
ATOM     34  C   UNL     1     146.949 126.198  94.508  0.00  0.00    +0.000 C 
ATOM     35  C   UNL     1     148.033 125.724  95.503  0.00  0.00    +0.000 C 
ATOM     36  C   UNL     1     148.294 123.696  94.035  0.00  0.00    +0.000 C 
ATOM     37  C   UNL     1     149.033 124.778  94.822  0.00  0.00    +0.000 C 
ATOM     38  C   UNL     1     147.291 124.352  93.090  0.00  0.00    +0.000 C 
ATOM     39  C   UNL     1     146.627 123.242  92.283  0.00  0.00    +0.000 C 
ATOM     40  C   UNL     1     148.544 121.894  92.549  0.00  0.00    +0.000 C 
ATOM     41  C   UNL     1     149.579 121.110  91.763  0.00  0.00    +0.000 C 
BRANCH  35  42
ATOM     42  O   UNL     1     148.722 126.870  96.030  0.00  0.00    +0.000 OA
ATOM     43  H   UNL     1     148.191 127.177  96.791  0.00  0.00    +0.000 HD
ENDBRANCH  35  42
BRANCH  37  44
ATOM     44  O   UNL     1     149.860 124.138  95.808  0.00  0.00    +0.000 OA
ATOM     45  H   UNL     1     150.014 124.806  96.503  0.00  0.00    +0.000 HD
ENDBRANCH  37  44
ENDBRANCH  30  34
ENDBRANCH   7  30
TORSDOF 8
ENDMDL
MODEL 7
REMARK VINA RESULT:      -7.3      3.668      6.094
REMARK  Name = 
REMARK  11 active torsions:
REMARK  status: ('A' for Active; 'I' for Inactive)
REMARK    1  A    between atoms: O_1  and  C_16
REMARK    2  A    between atoms: O_1  and  C_22
REMARK    3  A    between atoms: O_6  and  C_24
REMARK    4  A    between atoms: O_8  and  C_26
REMARK    5  A    between atoms: O_11  and  C_36
REMARK    6  A    between atoms: O_11  and  C_41
REMARK    7  A    between atoms: O_12  and  C_37
REMARK    8  A    between atoms: O_12  and  C_42
REMARK    9  A    between atoms: O_13  and  C_39
REMARK   10  A    between atoms: C_17  and  C_23
REMARK   11  A    between atoms: C_35  and  C_40
REMARK                            x       y       z     vdW  Elec       q    Type
REMARK                         _______ _______ _______ _____ _____    ______ ____
ROOT
ATOM      1  O   UNL     1     148.719 126.383  97.532  0.00  0.00    +0.000 OA
ATOM      2  O   UNL     1     148.347 127.910  99.202  0.00  0.00    +0.000 OA
ATOM      3  O   UNL     1     140.961 127.979  94.700  0.00  0.00    +0.000 OA
ATOM      4  O   UNL     1     140.795 129.083  96.838  0.00  0.00    +0.000 OA
ATOM      5  C   UNL     1     146.598 126.320  96.602  0.00  0.00    +0.000 C 
ATOM      6  C   UNL     1     146.714 127.585  97.430  0.00  0.00    +0.000 C 
ATOM      7  C   UNL     1     145.644 126.536  95.434  0.00  0.00    +0.000 C 
ATOM      8  C   UNL     1     145.414 127.860  98.186  0.00  0.00    +0.000 C 
ATOM      9  C   UNL     1     144.360 127.219  95.900  0.00  0.00    +0.000 A 
ATOM     10  C   UNL     1     144.258 127.874  97.171  0.00  0.00    +0.000 A 
ATOM     11  C   UNL     1     148.050 126.043  96.306  0.00  0.00    +0.000 C 
ATOM     12  C   UNL     1     147.974 127.325  98.198  0.00  0.00    +0.000 C 
ATOM     13  C   UNL     1     143.255 127.232  95.027  0.00  0.00    +0.000 A 
ATOM     14  C   UNL     1     143.061 128.523  97.534  0.00  0.00    +0.000 A 
ATOM     15  C   UNL     1     142.106 127.880  95.426  0.00  0.00    +0.000 A 
ATOM     16  C   UNL     1     142.012 128.508  96.643  0.00  0.00    +0.000 A 
ATOM     17  C   UNL     1     140.132 128.742  95.603  0.00  0.00    +0.000 C 
ENDROOT
BRANCH   8  18
ATOM     18  C   UNL     1     145.155 126.938  99.380  0.00  0.00    +0.000 A 
ATOM     19  C   UNL     1     145.197 127.386 100.713  0.00  0.00    +0.000 A 
ATOM     20  C   UNL     1     144.847 125.587  99.148  0.00  0.00    +0.000 A 
ATOM     21  C   UNL     1     144.569 124.724 100.209  0.00  0.00    +0.000 A 
ATOM     22  C   UNL     1     144.942 126.532 101.796  0.00  0.00    +0.000 A 
ATOM     23  C   UNL     1     144.627 125.199 101.530  0.00  0.00    +0.000 A 
BRANCH  21  24
ATOM     24  O   UNL     1     144.235 123.395 100.088  0.00  0.00    +0.000 OA
ATOM     25  C   UNL     1     143.891 122.946  98.780  0.00  0.00    +0.000 C 
ENDBRANCH  21  24
BRANCH  22  26
ATOM     26  O   UNL     1     145.032 127.165 103.006  0.00  0.00    +0.000 OA
ATOM     27  C   UNL     1     146.307 127.635 103.419  0.00  0.00    +0.000 C 
ENDBRANCH  22  26
BRANCH  23  28
ATOM     28  O   UNL     1     144.349 124.303 102.532  0.00  0.00    +0.000 OA
ATOM     29  H   UNL     1     143.958 123.532 102.078  0.00  0.00    +0.000 HD
ENDBRANCH  23  28
ENDBRANCH   8  18
BRANCH   7  30
ATOM     30  O   UNL     1     146.249 127.411  94.481  0.00  0.00    +0.000 OA
BRANCH  30  34
ATOM     31  O   UNL     1     145.844 125.498  93.199  0.00  0.00    +0.000 OA
ATOM     32  O   UNL     1     147.532 124.092  90.249  0.00  0.00    +0.000 OA
ATOM     33  O   UNL     1     145.550 122.869  90.646  0.00  0.00    +0.000 OA
ATOM     34  C   UNL     1     146.335 126.840  93.169  0.00  0.00    +0.000 C 
ATOM     35  C   UNL     1     147.820 126.909  92.746  0.00  0.00    +0.000 C 
ATOM     36  C   UNL     1     147.425 124.749  91.517  0.00  0.00    +0.000 C 
ATOM     37  C   UNL     1     148.061 126.137  91.441  0.00  0.00    +0.000 C 
ATOM     38  C   UNL     1     145.959 124.883  91.918  0.00  0.00    +0.000 C 
ATOM     39  C   UNL     1     145.352 123.484  91.918  0.00  0.00    +0.000 C 
ATOM     40  C   UNL     1     146.935 122.793  90.311  0.00  0.00    +0.000 C 
ATOM     41  C   UNL     1     147.053 122.159  88.937  0.00  0.00    +0.000 C 
BRANCH  35  42
ATOM     42  O   UNL     1     148.199 128.286  92.580  0.00  0.00    +0.000 OA
ATOM     43  H   UNL     1     149.122 128.274  92.261  0.00  0.00    +0.000 HD
ENDBRANCH  35  42
BRANCH  37  44
ATOM     44  O   UNL     1     149.470 125.980  91.211  0.00  0.00    +0.000 OA
ATOM     45  H   UNL     1     149.651 126.409  90.353  0.00  0.00    +0.000 HD
ENDBRANCH  37  44
ENDBRANCH  30  34
ENDBRANCH   7  30
TORSDOF 8
ENDMDL
MODEL 8
REMARK VINA RESULT:      -7.1      3.695      6.068
REMARK  Name = 
REMARK  11 active torsions:
REMARK  status: ('A' for Active; 'I' for Inactive)
REMARK    1  A    between atoms: O_1  and  C_16
REMARK    2  A    between atoms: O_1  and  C_22
REMARK    3  A    between atoms: O_6  and  C_24
REMARK    4  A    between atoms: O_8  and  C_26
REMARK    5  A    between atoms: O_11  and  C_36
REMARK    6  A    between atoms: O_11  and  C_41
REMARK    7  A    between atoms: O_12  and  C_37
REMARK    8  A    between atoms: O_12  and  C_42
REMARK    9  A    between atoms: O_13  and  C_39
REMARK   10  A    between atoms: C_17  and  C_23
REMARK   11  A    between atoms: C_35  and  C_40
REMARK                            x       y       z     vdW  Elec       q    Type
REMARK                         _______ _______ _______ _____ _____    ______ ____
ROOT
ATOM      1  O   UNL     1     148.673 126.159  97.225  0.00  0.00    +0.000 OA
ATOM      2  O   UNL     1     148.400 127.683  98.917  0.00  0.00    +0.000 OA
ATOM      3  O   UNL     1     140.899 128.040  94.623  0.00  0.00    +0.000 OA
ATOM      4  O   UNL     1     140.829 129.129  96.773  0.00  0.00    +0.000 OA
ATOM      5  C   UNL     1     146.527 126.175  96.354  0.00  0.00    +0.000 C 
ATOM      6  C   UNL     1     146.708 127.428  97.189  0.00  0.00    +0.000 C 
ATOM      7  C   UNL     1     145.549 126.433  95.214  0.00  0.00    +0.000 C 
ATOM      8  C   UNL     1     145.440 127.740  97.983  0.00  0.00    +0.000 C 
ATOM      9  C   UNL     1     144.302 127.155  95.722  0.00  0.00    +0.000 A 
ATOM     10  C   UNL     1     144.258 127.802  97.000  0.00  0.00    +0.000 A 
ATOM     11  C   UNL     1     147.960 125.852  96.015  0.00  0.00    +0.000 C 
ATOM     12  C   UNL     1     147.980 127.119  97.919  0.00  0.00    +0.000 C 
ATOM     13  C   UNL     1     143.175 127.213  94.880  0.00  0.00    +0.000 A 
ATOM     14  C   UNL     1     143.093 128.487  97.402  0.00  0.00    +0.000 A 
ATOM     15  C   UNL     1     142.059 127.895  95.316  0.00  0.00    +0.000 A 
ATOM     16  C   UNL     1     142.020 128.515  96.539  0.00  0.00    +0.000 A 
ATOM     17  C   UNL     1     140.122 128.822  95.554  0.00  0.00    +0.000 C 
ENDROOT
BRANCH   8  18
ATOM     18  C   UNL     1     145.182 126.817  99.176  0.00  0.00    +0.000 A 
ATOM     19  C   UNL     1     144.975 125.433  99.039  0.00  0.00    +0.000 A 
ATOM     20  C   UNL     1     145.162 127.361 100.471  0.00  0.00    +0.000 A 
ATOM     21  C   UNL     1     144.966 126.546 101.587  0.00  0.00    +0.000 A 
ATOM     22  C   UNL     1     144.756 124.597 100.143  0.00  0.00    +0.000 A 
ATOM     23  C   UNL     1     144.755 125.167 101.416  0.00  0.00    +0.000 A 
BRANCH  21  24
ATOM     24  O   UNL     1     144.951 126.974 102.894  0.00  0.00    +0.000 OA
ATOM     25  C   UNL     1     146.178 127.492 103.403  0.00  0.00    +0.000 C 
ENDBRANCH  21  24
BRANCH  22  26
ATOM     26  O   UNL     1     144.580 123.286  99.793  0.00  0.00    +0.000 OA
ATOM     27  C   UNL     1     143.689 122.994  98.726  0.00  0.00    +0.000 C 
ENDBRANCH  22  26
BRANCH  23  28
ATOM     28  O   UNL     1     144.562 124.417 102.550  0.00  0.00    +0.000 OA
ATOM     29  H   UNL     1     144.822 125.004 103.287  0.00  0.00    +0.000 HD
ENDBRANCH  23  28
ENDBRANCH   8  18
BRANCH   7  30
ATOM     30  O   UNL     1     146.157 127.296  94.252  0.00  0.00    +0.000 OA
BRANCH  30  34
ATOM     31  O   UNL     1     145.709 125.386  92.980  0.00  0.00    +0.000 OA
ATOM     32  O   UNL     1     147.339 123.949  90.013  0.00  0.00    +0.000 OA
ATOM     33  O   UNL     1     145.344 122.755  90.439  0.00  0.00    +0.000 OA
ATOM     34  C   UNL     1     146.218 126.721  92.941  0.00  0.00    +0.000 C 
ATOM     35  C   UNL     1     147.698 126.768  92.499  0.00  0.00    +0.000 C 
ATOM     36  C   UNL     1     147.257 124.610  91.280  0.00  0.00    +0.000 C 
ATOM     37  C   UNL     1     147.911 125.990  91.192  0.00  0.00    +0.000 C 
ATOM     38  C   UNL     1     145.798 124.767  91.700  0.00  0.00    +0.000 C 
ATOM     39  C   UNL     1     145.172 123.376  91.711  0.00  0.00    +0.000 C 
ATOM     40  C   UNL     1     146.724 122.659  90.086  0.00  0.00    +0.000 C 
ATOM     41  C   UNL     1     146.816 122.020  88.713  0.00  0.00    +0.000 C 
BRANCH  35  42
ATOM     42  O   UNL     1     148.094 128.139  92.324  0.00  0.00    +0.000 OA
ATOM     43  H   UNL     1     149.013 128.114  91.993  0.00  0.00    +0.000 HD
ENDBRANCH  35  42
BRANCH  37  44
ATOM     44  O   UNL     1     149.315 125.812  90.944  0.00  0.00    +0.000 OA
ATOM     45  H   UNL     1     149.491 126.237  90.083  0.00  0.00    +0.000 HD
ENDBRANCH  37  44
ENDBRANCH  30  34
ENDBRANCH   7  30
TORSDOF 8
ENDMDL
MODEL 9
REMARK VINA RESULT:      -7.0      2.809      8.558
REMARK  Name = 
REMARK  11 active torsions:
REMARK  status: ('A' for Active; 'I' for Inactive)
REMARK    1  A    between atoms: O_1  and  C_16
REMARK    2  A    between atoms: O_1  and  C_22
REMARK    3  A    between atoms: O_6  and  C_24
REMARK    4  A    between atoms: O_8  and  C_26
REMARK    5  A    between atoms: O_11  and  C_36
REMARK    6  A    between atoms: O_11  and  C_41
REMARK    7  A    between atoms: O_12  and  C_37
REMARK    8  A    between atoms: O_12  and  C_42
REMARK    9  A    between atoms: O_13  and  C_39
REMARK   10  A    between atoms: C_17  and  C_23
REMARK   11  A    between atoms: C_35  and  C_40
REMARK                            x       y       z     vdW  Elec       q    Type
REMARK                         _______ _______ _______ _____ _____    ______ ____
ROOT
ATOM      1  O   UNL     1     141.074 125.405  96.534  0.00  0.00    +0.000 OA
ATOM      2  O   UNL     1     141.265 126.300  94.432  0.00  0.00    +0.000 OA
ATOM      3  O   UNL     1     148.336 129.162  98.513  0.00  0.00    +0.000 OA
ATOM      4  O   UNL     1     148.414 129.470  96.122  0.00  0.00    +0.000 OA
ATOM      5  C   UNL     1     143.134 126.025  97.395  0.00  0.00    +0.000 C 
ATOM      6  C   UNL     1     142.850 126.887  96.180  0.00  0.00    +0.000 C 
ATOM      7  C   UNL     1     143.987 126.788  98.400  0.00  0.00    +0.000 C 
ATOM      8  C   UNL     1     144.120 127.098  95.356  0.00  0.00    +0.000 C 
ATOM      9  C   UNL     1     145.163 127.473  97.705  0.00  0.00    +0.000 A 
ATOM     10  C   UNL     1     145.212 127.656  96.284  0.00  0.00    +0.000 A 
ATOM     11  C   UNL     1     141.734 125.627  97.791  0.00  0.00    +0.000 C 
ATOM     12  C   UNL     1     141.684 126.170  95.570  0.00  0.00    +0.000 C 
ATOM     13  C   UNL     1     146.210 127.973  98.502  0.00  0.00    +0.000 A 
ATOM     14  C   UNL     1     146.303 128.331  95.699  0.00  0.00    +0.000 A 
ATOM     15  C   UNL     1     147.255 128.627  97.884  0.00  0.00    +0.000 A 
ATOM     16  C   UNL     1     147.300 128.802  96.524  0.00  0.00    +0.000 A 
ATOM     17  C   UNL     1     149.068 129.693  97.388  0.00  0.00    +0.000 C 
ENDROOT
BRANCH   8  18
ATOM     18  C   UNL     1     144.578 125.878  94.553  0.00  0.00    +0.000 A 
ATOM     19  C   UNL     1     145.023 125.964  93.222  0.00  0.00    +0.000 A 
ATOM     20  C   UNL     1     144.572 124.614  95.166  0.00  0.00    +0.000 A 
ATOM     21  C   UNL     1     145.017 123.483  94.479  0.00  0.00    +0.000 A 
ATOM     22  C   UNL     1     145.456 124.839  92.505  0.00  0.00    +0.000 A 
ATOM     23  C   UNL     1     145.449 123.600  93.147  0.00  0.00    +0.000 A 
BRANCH  21  24
ATOM     24  O   UNL     1     145.072 122.208  94.993  0.00  0.00    +0.000 OA
ATOM     25  C   UNL     1     143.822 121.599  95.305  0.00  0.00    +0.000 C 
ENDBRANCH  21  24
BRANCH  22  26
ATOM     26  O   UNL     1     145.848 125.139  91.229  0.00  0.00    +0.000 OA
ATOM     27  C   UNL     1     145.334 126.321  90.633  0.00  0.00    +0.000 C 
ENDBRANCH  22  26
BRANCH  23  28
ATOM     28  O   UNL     1     145.869 122.453  92.521  0.00  0.00    +0.000 OA
ATOM     29  H   UNL     1     146.823 122.392  92.723  0.00  0.00    +0.000 HD
ENDBRANCH  23  28
ENDBRANCH   8  18
BRANCH   7  30
ATOM     30  O   UNL     1     143.206 127.823  98.998  0.00  0.00    +0.000 OA
BRANCH  30  34
ATOM     31  O   UNL     1     144.379 126.974 100.833  0.00  0.00    +0.000 OA
ATOM     32  O   UNL     1     143.492 126.607 104.384  0.00  0.00    +0.000 OA
ATOM     33  O   UNL     1     145.780 126.081 104.113  0.00  0.00    +0.000 OA
ATOM     34  C   UNL     1     143.401 127.927 100.414  0.00  0.00    +0.000 C 
ATOM     35  C   UNL     1     142.025 127.682 101.075  0.00  0.00    +0.000 C 
ATOM     36  C   UNL     1     143.285 126.601 102.967  0.00  0.00    +0.000 C 
ATOM     37  C   UNL     1     142.157 127.566 102.601  0.00  0.00    +0.000 C 
ATOM     38  C   UNL     1     144.563 127.018 102.246  0.00  0.00    +0.000 C 
ATOM     39  C   UNL     1     145.672 126.069 102.691  0.00  0.00    +0.000 C 
ATOM     40  C   UNL     1     144.550 125.710 104.734  0.00  0.00    +0.000 C 
ATOM     41  C   UNL     1     144.742 125.779 106.238  0.00  0.00    +0.000 C 
BRANCH  35  42
ATOM     42  O   UNL     1     141.141 128.765 100.739  0.00  0.00    +0.000 OA
ATOM     43  H   UNL     1     140.377 128.686 101.343  0.00  0.00    +0.000 HD
ENDBRANCH  35  42
BRANCH  37  44
ATOM     44  O   UNL     1     140.933 127.071 103.168  0.00  0.00    +0.000 OA
ATOM     45  H   UNL     1     141.185 126.313 103.728  0.00  0.00    +0.000 HD
ENDBRANCH  37  44
ENDBRANCH  30  34
ENDBRANCH   7  30
TORSDOF 8
ENDMDL
