MODEL 1
REMARK VINA RESULT:      -7.9      0.000      0.000
REMARK  Name = Foretinib.pdbqt.pdb
REMARK  11 active torsions:
REMARK  status: ('A' for Active; 'I' for Inactive)
REMARK    1  A    between atoms: C_2  and  N_31
REMARK    2  A    between atoms: C_7  and  O_8
REMARK    3  A    between atoms: O_8  and  C_9
REMARK    4  A    between atoms: C_17  and  O_19
REMARK    5  A    between atoms: C_18  and  O_29
REMARK    6  A    between atoms: O_19  and  C_20
REMARK    7  A    between atoms: C_21  and  C_22
REMARK    8  A    between atoms: C_22  and  N_23
REMARK    9  A    between atoms: C_32  and  C_35
REMARK   10  A    between atoms: C_35  and  C_38
REMARK   11  A    between atoms: N_40  and  C_42
REMARK                            x       y       z     vdW  Elec       q    Type
REMARK                         _______ _______ _______ _____ _____    ______ ____
ROOT
ATOM      1  F   UNL     1     133.050 120.902 140.499  0.00  0.00    +0.000 F 
ATOM      2  C   UNL     1     135.403 121.995 137.963  0.00  0.00    +0.000 A 
ATOM      3  C   UNL     1     134.384 121.284 138.597  0.00  0.00    +0.000 A 
ATOM      4  C   UNL     1     136.040 123.037 138.641  0.00  0.00    +0.000 A 
ATOM      5  C   UNL     1     134.008 121.619 139.894  0.00  0.00    +0.000 A 
ATOM      6  C   UNL     1     135.664 123.371 139.940  0.00  0.00    +0.000 A 
ATOM      7  C   UNL     1     134.628 122.676 140.560  0.00  0.00    +0.000 A 
ENDROOT
BRANCH   2   8
ATOM      8  N   UNL     1     135.834 121.709 136.654  0.00  0.00    +0.000 N 
ATOM      9  C   UNL     1     135.493 122.428 135.520  0.00  0.00    +0.000 C 
ATOM     10  O   UNL     1     134.750 123.400 135.476  0.00  0.00    +0.000 OA
ATOM     11  H   UNL     1     136.410 120.880 136.535  0.00  0.00    +0.000 HD
BRANCH   9  12
ATOM     12  C   UNL     1     136.072 121.890 134.245  0.00  0.00    +0.000 C 
ATOM     13  C   UNL     1     135.332 120.841 133.552  0.00  0.00    +0.000 C 
ATOM     14  C   UNL     1     136.598 120.530 134.266  0.00  0.00    +0.000 C 
BRANCH  12  15
ATOM     15  C   UNL     1     136.776 122.908 133.397  0.00  0.00    +0.000 C 
ATOM     16  O   UNL     1     136.199 123.356 132.413  0.00  0.00    +0.000 OA
ATOM     17  N   UNL     1     138.025 123.285 133.860  0.00  0.00    +0.000 N 
ATOM     18  H   UNL     1     138.356 122.871 134.725  0.00  0.00    +0.000 HD
BRANCH  17  19
ATOM     19  C   UNL     1     138.870 124.230 133.249  0.00  0.00    +0.000 A 
ATOM     20  C   UNL     1     138.504 125.575 133.327  0.00  0.00    +0.000 A 
ATOM     21  C   UNL     1     139.299 126.558 132.743  0.00  0.00    +0.000 A 
ATOM     22  C   UNL     1     140.464 126.185 132.081  0.00  0.00    +0.000 A 
ATOM     23  F   UNL     1     141.232 127.129 131.520  0.00  0.00    +0.000 F 
ATOM     24  C   UNL     1     140.845 124.852 131.995  0.00  0.00    +0.000 A 
ATOM     25  C   UNL     1     140.044 123.876 132.582  0.00  0.00    +0.000 A 
ENDBRANCH  17  19
ENDBRANCH  12  15
ENDBRANCH   9  12
ENDBRANCH   2   8
BRANCH   7  26
ATOM     26  O   UNL     1     134.344 123.006 141.863  0.00  0.00    +0.000 OA
BRANCH  26  27
ATOM     27  C   UNL     1     135.280 122.665 142.819  0.00  0.00    +0.000 A 
ATOM     28  C   UNL     1     135.914 123.701 143.522  0.00  0.00    +0.000 A 
ATOM     29  C   UNL     1     136.824 123.346 144.533  0.00  0.00    +0.000 A 
ATOM     30  C   UNL     1     135.675 125.056 143.246  0.00  0.00    +0.000 A 
ATOM     31  N   UNL     1     137.088 122.067 144.845  0.00  0.00    +0.000 NA
ATOM     32  C   UNL     1     137.459 124.365 145.227  0.00  0.00    +0.000 A 
ATOM     33  C   UNL     1     136.447 121.099 144.153  0.00  0.00    +0.000 A 
ATOM     34  C   UNL     1     135.534 121.337 143.146  0.00  0.00    +0.000 A 
ATOM     35  C   UNL     1     137.223 125.719 144.957  0.00  0.00    +0.000 A 
ATOM     36  C   UNL     1     136.320 126.071 143.952  0.00  0.00    +0.000 A 
BRANCH  36  37
ATOM     37  O   UNL     1     136.130 127.413 143.721  0.00  0.00    +0.000 OA
ATOM     38  C   UNL     1     134.842 127.898 143.987  0.00  0.00    +0.000 C 
ENDBRANCH  36  37
BRANCH  35  39
ATOM     39  O   UNL     1     137.848 126.742 145.632  0.00  0.00    +0.000 OA
BRANCH  39  40
ATOM     40  C   UNL     1     139.108 126.498 145.982  0.00  0.00    +0.000 C 
ATOM     41  C   UNL     1     140.565 126.226 146.372  0.00  0.00    +0.000 C 
BRANCH  41  42
ATOM     42  C   UNL     1     142.023 125.960 146.761  0.00  0.00    +0.000 C 
BRANCH  42  43
ATOM     43  N   UNL     1     143.409 125.708 147.131  0.00  0.00    +0.000 N 
ATOM     44  C   UNL     1     144.249 126.630 146.307  0.00  0.00    +0.000 C 
ATOM     45  C   UNL     1     145.070 127.879 146.763  0.00  0.00    +0.000 C 
ATOM     46  O   UNL     1     145.277 128.501 147.945  0.00  0.00    +0.000 OA
ATOM     47  C   UNL     1     144.515 127.674 148.688  0.00  0.00    +0.000 C 
ATOM     48  C   UNL     1     143.641 126.408 148.430  0.00  0.00    +0.000 C 
ENDBRANCH  42  43
ENDBRANCH  41  42
ENDBRANCH  39  40
ENDBRANCH  35  39
ENDBRANCH  26  27
ENDBRANCH   7  26
TORSDOF 11
ENDMDL
MODEL 2
REMARK VINA RESULT:      -7.8      2.908      3.392
REMARK  Name = Foretinib.pdbqt.pdb
REMARK  11 active torsions:
REMARK  status: ('A' for Active; 'I' for Inactive)
REMARK    1  A    between atoms: C_2  and  N_31
REMARK    2  A    between atoms: C_7  and  O_8
REMARK    3  A    between atoms: O_8  and  C_9
REMARK    4  A    between atoms: C_17  and  O_19
REMARK    5  A    between atoms: C_18  and  O_29
REMARK    6  A    between atoms: O_19  and  C_20
REMARK    7  A    between atoms: C_21  and  C_22
REMARK    8  A    between atoms: C_22  and  N_23
REMARK    9  A    between atoms: C_32  and  C_35
REMARK   10  A    between atoms: C_35  and  C_38
REMARK   11  A    between atoms: N_40  and  C_42
REMARK                            x       y       z     vdW  Elec       q    Type
REMARK                         _______ _______ _______ _____ _____    ______ ____
ROOT
ATOM      1  F   UNL     1     132.652 121.524 140.464  0.00  0.00    +0.000 F 
ATOM      2  C   UNL     1     135.336 122.113 138.094  0.00  0.00    +0.000 A 
ATOM      3  C   UNL     1     134.146 121.638 138.647  0.00  0.00    +0.000 A 
ATOM      4  C   UNL     1     136.154 122.962 138.843  0.00  0.00    +0.000 A 
ATOM      5  C   UNL     1     133.782 122.017 139.935  0.00  0.00    +0.000 A 
ATOM      6  C   UNL     1     135.789 123.339 140.133  0.00  0.00    +0.000 A 
ATOM      7  C   UNL     1     134.587 122.885 140.672  0.00  0.00    +0.000 A 
ENDROOT
BRANCH   2   8
ATOM      8  N   UNL     1     135.765 121.769 136.798  0.00  0.00    +0.000 N 
ATOM      9  C   UNL     1     135.683 122.584 135.681  0.00  0.00    +0.000 C 
ATOM     10  O   UNL     1     135.206 123.711 135.642  0.00  0.00    +0.000 OA
ATOM     11  H   UNL     1     136.127 120.828 136.672  0.00  0.00    +0.000 HD
BRANCH   9  12
ATOM     12  C   UNL     1     136.193 121.960 134.416  0.00  0.00    +0.000 C 
ATOM     13  C   UNL     1     135.405 120.884 133.824  0.00  0.00    +0.000 C 
ATOM     14  C   UNL     1     136.698 120.594 134.496  0.00  0.00    +0.000 C 
BRANCH  12  15
ATOM     15  C   UNL     1     136.870 122.912 133.475  0.00  0.00    +0.000 C 
ATOM     16  O   UNL     1     136.355 123.130 132.384  0.00  0.00    +0.000 OA
ATOM     17  N   UNL     1     138.018 123.503 133.974  0.00  0.00    +0.000 N 
ATOM     18  H   UNL     1     138.299 123.270 134.921  0.00  0.00    +0.000 HD
BRANCH  17  19
ATOM     19  C   UNL     1     138.818 124.436 133.290  0.00  0.00    +0.000 A 
ATOM     20  C   UNL     1     139.901 123.949 132.555  0.00  0.00    +0.000 A 
ATOM     21  C   UNL     1     140.731 124.823 131.857  0.00  0.00    +0.000 A 
ATOM     22  C   UNL     1     140.469 126.188 131.898  0.00  0.00    +0.000 A 
ATOM     23  F   UNL     1     141.264 127.030 131.226  0.00  0.00    +0.000 F 
ATOM     24  C   UNL     1     139.394 126.691 132.622  0.00  0.00    +0.000 A 
ATOM     25  C   UNL     1     138.571 125.810 133.318  0.00  0.00    +0.000 A 
ENDBRANCH  17  19
ENDBRANCH  12  15
ENDBRANCH   9  12
ENDBRANCH   2   8
BRANCH   7  26
ATOM     26  O   UNL     1     134.311 123.237 141.971  0.00  0.00    +0.000 OA
BRANCH  26  27
ATOM     27  C   UNL     1     135.351 123.174 142.877  0.00  0.00    +0.000 A 
ATOM     28  C   UNL     1     135.793 124.372 143.459  0.00  0.00    +0.000 A 
ATOM     29  C   UNL     1     136.814 124.295 144.423  0.00  0.00    +0.000 A 
ATOM     30  C   UNL     1     135.261 125.623 143.108  0.00  0.00    +0.000 A 
ATOM     31  N   UNL     1     137.356 123.127 144.802  0.00  0.00    +0.000 NA
ATOM     32  C   UNL     1     137.261 125.476 144.996  0.00  0.00    +0.000 A 
ATOM     33  C   UNL     1     136.893 121.995 144.228  0.00  0.00    +0.000 A 
ATOM     34  C   UNL     1     135.894 121.958 143.276  0.00  0.00    +0.000 A 
ATOM     35  C   UNL     1     136.733 126.727 144.651  0.00  0.00    +0.000 A 
ATOM     36  C   UNL     1     135.720 126.803 143.693  0.00  0.00    +0.000 A 
BRANCH  36  37
ATOM     37  O   UNL     1     135.241 128.055 143.384  0.00  0.00    +0.000 OA
ATOM     38  C   UNL     1     133.938 128.330 143.822  0.00  0.00    +0.000 C 
ENDBRANCH  36  37
BRANCH  35  39
ATOM     39  O   UNL     1     137.168 127.908 145.206  0.00  0.00    +0.000 OA
BRANCH  39  40
ATOM     40  C   UNL     1     137.067 127.977 146.531  0.00  0.00    +0.000 C 
ATOM     41  C   UNL     1     136.951 128.040 148.058  0.00  0.00    +0.000 C 
BRANCH  41  42
ATOM     42  C   UNL     1     136.839 128.098 149.585  0.00  0.00    +0.000 C 
BRANCH  42  43
ATOM     43  N   UNL     1     136.732 128.154 151.036  0.00  0.00    +0.000 N 
ATOM     44  C   UNL     1     138.125 128.271 151.567  0.00  0.00    +0.000 C 
ATOM     45  C   UNL     1     138.812 129.496 152.254  0.00  0.00    +0.000 C 
ATOM     46  O   UNL     1     138.423 130.750 152.569  0.00  0.00    +0.000 OA
ATOM     47  C   UNL     1     137.168 130.648 152.085  0.00  0.00    +0.000 C 
ATOM     48  C   UNL     1     136.317 129.546 151.384  0.00  0.00    +0.000 C 
ENDBRANCH  42  43
ENDBRANCH  41  42
ENDBRANCH  39  40
ENDBRANCH  35  39
ENDBRANCH  26  27
ENDBRANCH   7  26
TORSDOF 11
ENDMDL
MODEL 3
REMARK VINA RESULT:      -7.3      3.227      4.108
REMARK  Name = Foretinib.pdbqt.pdb
REMARK  11 active torsions:
REMARK  status: ('A' for Active; 'I' for Inactive)
REMARK    1  A    between atoms: C_2  and  N_31
REMARK    2  A    between atoms: C_7  and  O_8
REMARK    3  A    between atoms: O_8  and  C_9
REMARK    4  A    between atoms: C_17  and  O_19
REMARK    5  A    between atoms: C_18  and  O_29
REMARK    6  A    between atoms: O_19  and  C_20
REMARK    7  A    between atoms: C_21  and  C_22
REMARK    8  A    between atoms: C_22  and  N_23
REMARK    9  A    between atoms: C_32  and  C_35
REMARK   10  A    between atoms: C_35  and  C_38
REMARK   11  A    between atoms: N_40  and  C_42
REMARK                            x       y       z     vdW  Elec       q    Type
REMARK                         _______ _______ _______ _____ _____    ______ ____
ROOT
ATOM      1  F   UNL     1     133.374 120.914 142.223  0.00  0.00    +0.000 F 
ATOM      2  C   UNL     1     135.117 121.677 139.134  0.00  0.00    +0.000 A 
ATOM      3  C   UNL     1     134.323 121.014 140.071  0.00  0.00    +0.000 A 
ATOM      4  C   UNL     1     135.697 122.903 139.466  0.00  0.00    +0.000 A 
ATOM      5  C   UNL     1     134.112 121.581 141.324  0.00  0.00    +0.000 A 
ATOM      6  C   UNL     1     135.486 123.469 140.722  0.00  0.00    +0.000 A 
ATOM      7  C   UNL     1     134.671 122.818 141.645  0.00  0.00    +0.000 A 
ENDROOT
BRANCH   2   8
ATOM      8  N   UNL     1     135.373 121.161 137.850  0.00  0.00    +0.000 N 
ATOM      9  C   UNL     1     134.773 121.589 136.677  0.00  0.00    +0.000 C 
ATOM     10  O   UNL     1     133.916 122.458 136.578  0.00  0.00    +0.000 OA
ATOM     11  H   UNL     1     136.023 120.382 137.792  0.00  0.00    +0.000 HD
BRANCH   9  12
ATOM     12  C   UNL     1     135.211 120.850 135.447  0.00  0.00    +0.000 C 
ATOM     13  C   UNL     1     134.187 120.168 134.663  0.00  0.00    +0.000 C 
ATOM     14  C   UNL     1     135.155 119.393 135.482  0.00  0.00    +0.000 C 
BRANCH  12  15
ATOM     15  C   UNL     1     136.335 121.496 134.693  0.00  0.00    +0.000 C 
ATOM     16  O   UNL     1     136.800 120.919 133.717  0.00  0.00    +0.000 OA
ATOM     17  N   UNL     1     136.709 122.743 135.164  0.00  0.00    +0.000 N 
ATOM     18  H   UNL     1     136.196 123.127 135.953  0.00  0.00    +0.000 HD
BRANCH  17  19
ATOM     19  C   UNL     1     137.723 123.552 134.620  0.00  0.00    +0.000 A 
ATOM     20  C   UNL     1     137.374 124.423 133.586  0.00  0.00    +0.000 A 
ATOM     21  C   UNL     1     138.333 125.249 133.005  0.00  0.00    +0.000 A 
ATOM     22  C   UNL     1     139.644 125.198 133.467  0.00  0.00    +0.000 A 
ATOM     23  F   UNL     1     140.568 125.993 132.912  0.00  0.00    +0.000 F 
ATOM     24  C   UNL     1     140.009 124.338 134.496  0.00  0.00    +0.000 A 
ATOM     25  C   UNL     1     139.044 123.515 135.070  0.00  0.00    +0.000 A 
ENDBRANCH  17  19
ENDBRANCH  12  15
ENDBRANCH   9  12
ENDBRANCH   2   8
BRANCH   7  26
ATOM     26  O   UNL     1     134.551 123.390 142.888  0.00  0.00    +0.000 OA
BRANCH  26  27
ATOM     27  C   UNL     1     135.677 123.405 143.687  0.00  0.00    +0.000 A 
ATOM     28  C   UNL     1     136.096 124.637 144.215  0.00  0.00    +0.000 A 
ATOM     29  C   UNL     1     137.210 124.637 145.073  0.00  0.00    +0.000 A 
ATOM     30  C   UNL     1     135.452 125.846 143.909  0.00  0.00    +0.000 A 
ATOM     31  N   UNL     1     137.862 123.512 145.404  0.00  0.00    +0.000 NA
ATOM     32  C   UNL     1     137.633 125.852 145.591  0.00  0.00    +0.000 A 
ATOM     33  C   UNL     1     137.419 122.344 144.885  0.00  0.00    +0.000 A 
ATOM     34  C   UNL     1     136.336 122.232 144.038  0.00  0.00    +0.000 A 
ATOM     35  C   UNL     1     136.993 127.062 145.292  0.00  0.00    +0.000 A 
ATOM     36  C   UNL     1     135.889 127.061 144.439  0.00  0.00    +0.000 A 
BRANCH  36  37
ATOM     37  O   UNL     1     135.301 128.275 144.171  0.00  0.00    +0.000 OA
ATOM     38  C   UNL     1     133.921 128.240 143.926  0.00  0.00    +0.000 C 
ENDBRANCH  36  37
BRANCH  35  39
ATOM     39  O   UNL     1     137.403 128.275 145.793  0.00  0.00    +0.000 OA
BRANCH  39  40
ATOM     40  C   UNL     1     137.274 128.412 147.110  0.00  0.00    +0.000 C 
ATOM     41  C   UNL     1     137.136 128.584 148.627  0.00  0.00    +0.000 C 
BRANCH  41  42
ATOM     42  C   UNL     1     136.998 128.762 150.143  0.00  0.00    +0.000 C 
BRANCH  42  43
ATOM     43  N   UNL     1     136.869 128.932 151.583  0.00  0.00    +0.000 N 
ATOM     44  C   UNL     1     135.431 128.692 151.918  0.00  0.00    +0.000 C 
ATOM     45  C   UNL     1     134.791 127.493 152.690  0.00  0.00    +0.000 C 
ATOM     46  O   UNL     1     135.271 126.366 153.260  0.00  0.00    +0.000 OA
ATOM     47  C   UNL     1     136.567 126.578 152.954  0.00  0.00    +0.000 C 
ATOM     48  C   UNL     1     137.385 127.679 152.212  0.00  0.00    +0.000 C 
ENDBRANCH  42  43
ENDBRANCH  41  42
ENDBRANCH  39  40
ENDBRANCH  35  39
ENDBRANCH  26  27
ENDBRANCH   7  26
TORSDOF 11
ENDMDL
MODEL 4
REMARK VINA RESULT:      -7.2      4.405      7.839
REMARK  Name = Foretinib.pdbqt.pdb
REMARK  11 active torsions:
REMARK  status: ('A' for Active; 'I' for Inactive)
REMARK    1  A    between atoms: C_2  and  N_31
REMARK    2  A    between atoms: C_7  and  O_8
REMARK    3  A    between atoms: O_8  and  C_9
REMARK    4  A    between atoms: C_17  and  O_19
REMARK    5  A    between atoms: C_18  and  O_29
REMARK    6  A    between atoms: O_19  and  C_20
REMARK    7  A    between atoms: C_21  and  C_22
REMARK    8  A    between atoms: C_22  and  N_23
REMARK    9  A    between atoms: C_32  and  C_35
REMARK   10  A    between atoms: C_35  and  C_38
REMARK   11  A    between atoms: N_40  and  C_42
REMARK                            x       y       z     vdW  Elec       q    Type
REMARK                         _______ _______ _______ _____ _____    ______ ____
ROOT
ATOM      1  F   UNL     1     132.330 123.093 141.740  0.00  0.00    +0.000 F 
ATOM      2  C   UNL     1     134.999 122.192 139.453  0.00  0.00    +0.000 A 
ATOM      3  C   UNL     1     133.721 122.368 139.983  0.00  0.00    +0.000 A 
ATOM      4  C   UNL     1     136.112 122.611 140.185  0.00  0.00    +0.000 A 
ATOM      5  C   UNL     1     133.564 122.962 141.231  0.00  0.00    +0.000 A 
ATOM      6  C   UNL     1     135.955 123.205 141.436  0.00  0.00    +0.000 A 
ATOM      7  C   UNL     1     134.675 123.403 141.950  0.00  0.00    +0.000 A 
ENDROOT
BRANCH   2   8
ATOM      8  N   UNL     1     135.230 121.597 138.198  0.00  0.00    +0.000 N 
ATOM      9  C   UNL     1     135.295 122.271 136.990  0.00  0.00    +0.000 C 
ATOM     10  O   UNL     1     135.138 123.474 136.822  0.00  0.00    +0.000 OA
ATOM     11  H   UNL     1     135.314 120.585 138.182  0.00  0.00    +0.000 HD
BRANCH   9  12
ATOM     12  C   UNL     1     135.529 121.390 135.798  0.00  0.00    +0.000 C 
ATOM     13  C   UNL     1     134.493 120.420 135.457  0.00  0.00    +0.000 C 
ATOM     14  C   UNL     1     135.783 119.976 136.046  0.00  0.00    +0.000 C 
BRANCH  12  15
ATOM     15  C   UNL     1     136.251 122.050 134.662  0.00  0.00    +0.000 C 
ATOM     16  O   UNL     1     135.813 121.916 133.525  0.00  0.00    +0.000 OA
ATOM     17  N   UNL     1     137.347 122.810 135.034  0.00  0.00    +0.000 N 
ATOM     18  H   UNL     1     137.564 122.878 136.024  0.00  0.00    +0.000 HD
BRANCH  17  19
ATOM     19  C   UNL     1     138.175 123.534 134.156  0.00  0.00    +0.000 A 
ATOM     20  C   UNL     1     139.501 123.117 134.022  0.00  0.00    +0.000 A 
ATOM     21  C   UNL     1     140.370 123.793 133.169  0.00  0.00    +0.000 A 
ATOM     22  C   UNL     1     139.903 124.887 132.450  0.00  0.00    +0.000 A 
ATOM     23  F   UNL     1     140.736 125.537 131.626  0.00  0.00    +0.000 F 
ATOM     24  C   UNL     1     138.586 125.315 132.569  0.00  0.00    +0.000 A 
ATOM     25  C   UNL     1     137.724 124.634 133.425  0.00  0.00    +0.000 A 
ENDBRANCH  17  19
ENDBRANCH  12  15
ENDBRANCH   9  12
ENDBRANCH   2   8
BRANCH   7  26
ATOM     26  O   UNL     1     134.583 123.934 143.214  0.00  0.00    +0.000 OA
BRANCH  26  27
ATOM     27  C   UNL     1     134.853 125.281 143.354  0.00  0.00    +0.000 A 
ATOM     28  C   UNL     1     133.780 126.146 143.619  0.00  0.00    +0.000 A 
ATOM     29  C   UNL     1     134.069 127.507 143.817  0.00  0.00    +0.000 A 
ATOM     30  C   UNL     1     132.451 125.700 143.684  0.00  0.00    +0.000 A 
ATOM     31  N   UNL     1     135.321 127.990 143.772  0.00  0.00    +0.000 NA
ATOM     32  C   UNL     1     133.012 128.368 144.072  0.00  0.00    +0.000 A 
ATOM     33  C   UNL     1     136.328 127.122 143.527  0.00  0.00    +0.000 A 
ATOM     34  C   UNL     1     136.155 125.768 143.322  0.00  0.00    +0.000 A 
ATOM     35  C   UNL     1     131.683 127.929 144.140  0.00  0.00    +0.000 A 
ATOM     36  C   UNL     1     131.397 126.578 143.943  0.00  0.00    +0.000 A 
BRANCH  36  37
ATOM     37  O   UNL     1     130.077 126.198 144.012  0.00  0.00    +0.000 OA
ATOM     38  C   UNL     1     129.828 124.986 144.670  0.00  0.00    +0.000 C 
ENDBRANCH  36  37
BRANCH  35  39
ATOM     39  O   UNL     1     130.624 128.770 144.388  0.00  0.00    +0.000 OA
BRANCH  39  40
ATOM     40  C   UNL     1     130.288 129.565 143.375  0.00  0.00    +0.000 C 
ATOM     41  C   UNL     1     129.888 130.486 142.217  0.00  0.00    +0.000 C 
BRANCH  41  42
ATOM     42  C   UNL     1     129.485 131.412 141.064  0.00  0.00    +0.000 C 
BRANCH  42  43
ATOM     43  N   UNL     1     129.102 132.292 139.969  0.00  0.00    +0.000 N 
ATOM     44  C   UNL     1     130.353 132.961 139.496  0.00  0.00    +0.000 C 
ATOM     45  C   UNL     1     131.127 132.756 138.154  0.00  0.00    +0.000 C 
ATOM     46  O   UNL     1     130.953 131.974 137.067  0.00  0.00    +0.000 OA
ATOM     47  C   UNL     1     129.828 131.365 137.495  0.00  0.00    +0.000 C 
ATOM     48  C   UNL     1     128.925 131.428 138.764  0.00  0.00    +0.000 C 
ENDBRANCH  42  43
ENDBRANCH  41  42
ENDBRANCH  39  40
ENDBRANCH  35  39
ENDBRANCH  26  27
ENDBRANCH   7  26
TORSDOF 11
ENDMDL
MODEL 5
REMARK VINA RESULT:      -7.0     11.801     19.839
REMARK  Name = Foretinib.pdbqt.pdb
REMARK  11 active torsions:
REMARK  status: ('A' for Active; 'I' for Inactive)
REMARK    1  A    between atoms: C_2  and  N_31
REMARK    2  A    between atoms: C_7  and  O_8
REMARK    3  A    between atoms: O_8  and  C_9
REMARK    4  A    between atoms: C_17  and  O_19
REMARK    5  A    between atoms: C_18  and  O_29
REMARK    6  A    between atoms: O_19  and  C_20
REMARK    7  A    between atoms: C_21  and  C_22
REMARK    8  A    between atoms: C_22  and  N_23
REMARK    9  A    between atoms: C_32  and  C_35
REMARK   10  A    between atoms: C_35  and  C_38
REMARK   11  A    between atoms: N_40  and  C_42
REMARK                            x       y       z     vdW  Elec       q    Type
REMARK                         _______ _______ _______ _____ _____    ______ ____
ROOT
ATOM      1  F   UNL     1     135.449 135.842 127.887  0.00  0.00    +0.000 F 
ATOM      2  C   UNL     1     136.019 135.029 131.377  0.00  0.00    +0.000 A 
ATOM      3  C   UNL     1     136.255 135.425 130.060  0.00  0.00    +0.000 A 
ATOM      4  C   UNL     1     134.722 134.698 131.775  0.00  0.00    +0.000 A 
ATOM      5  C   UNL     1     135.198 135.492 129.157  0.00  0.00    +0.000 A 
ATOM      6  C   UNL     1     133.664 134.764 130.870  0.00  0.00    +0.000 A 
ATOM      7  C   UNL     1     133.899 135.186 129.563  0.00  0.00    +0.000 A 
ENDROOT
BRANCH   2   8
ATOM      8  N   UNL     1     137.040 134.937 132.341  0.00  0.00    +0.000 N 
ATOM      9  C   UNL     1     137.701 133.775 132.705  0.00  0.00    +0.000 C 
ATOM     10  O   UNL     1     137.483 132.652 132.268  0.00  0.00    +0.000 OA
ATOM     11  H   UNL     1     137.280 135.793 132.834  0.00  0.00    +0.000 HD
BRANCH   9  12
ATOM     12  C   UNL     1     138.734 133.956 133.778  0.00  0.00    +0.000 C 
ATOM     13  C   UNL     1     139.933 134.716 133.445  0.00  0.00    +0.000 C 
ATOM     14  C   UNL     1     139.996 133.242 133.623  0.00  0.00    +0.000 C 
BRANCH  12  15
ATOM     15  C   UNL     1     138.179 134.121 135.162  0.00  0.00    +0.000 C 
ATOM     16  O   UNL     1     136.991 133.886 135.353  0.00  0.00    +0.000 OA
ATOM     17  N   UNL     1     139.108 134.484 136.121  0.00  0.00    +0.000 N 
ATOM     18  H   UNL     1     140.075 134.591 135.829  0.00  0.00    +0.000 HD
BRANCH  17  19
ATOM     19  C   UNL     1     138.837 134.685 137.486  0.00  0.00    +0.000 A 
ATOM     20  C   UNL     1     138.881 133.572 138.328  0.00  0.00    +0.000 A 
ATOM     21  C   UNL     1     138.621 133.706 139.690  0.00  0.00    +0.000 A 
ATOM     22  C   UNL     1     138.318 134.962 140.204  0.00  0.00    +0.000 A 
ATOM     23  F   UNL     1     138.070 135.095 141.513  0.00  0.00    +0.000 F 
ATOM     24  C   UNL     1     138.271 136.082 139.381  0.00  0.00    +0.000 A 
ATOM     25  C   UNL     1     138.531 135.938 138.021  0.00  0.00    +0.000 A 
ENDBRANCH  17  19
ENDBRANCH  12  15
ENDBRANCH   9  12
ENDBRANCH   2   8
BRANCH   7  26
ATOM     26  O   UNL     1     132.833 135.170 128.698  0.00  0.00    +0.000 OA
BRANCH  26  27
ATOM     27  C   UNL     1     132.489 133.954 128.141  0.00  0.00    +0.000 A 
ATOM     28  C   UNL     1     132.558 133.823 126.746  0.00  0.00    +0.000 A 
ATOM     29  C   UNL     1     132.262 132.566 126.190  0.00  0.00    +0.000 A 
ATOM     30  C   UNL     1     132.900 134.893 125.904  0.00  0.00    +0.000 A 
ATOM     31  N   UNL     1     131.934 131.506 126.945  0.00  0.00    +0.000 NA
ATOM     32  C   UNL     1     132.321 132.433 124.811  0.00  0.00    +0.000 A 
ATOM     33  C   UNL     1     131.893 131.670 128.287  0.00  0.00    +0.000 A 
ATOM     34  C   UNL     1     132.168 132.857 128.933  0.00  0.00    +0.000 A 
ATOM     35  C   UNL     1     132.663 133.496 123.966  0.00  0.00    +0.000 A 
ATOM     36  C   UNL     1     132.956 134.744 124.518  0.00  0.00    +0.000 A 
BRANCH  36  37
ATOM     37  O   UNL     1     133.278 135.757 123.646  0.00  0.00    +0.000 OA
ATOM     38  C   UNL     1     132.220 136.597 123.273  0.00  0.00    +0.000 C 
ENDBRANCH  36  37
BRANCH  35  39
ATOM     39  O   UNL     1     132.721 133.382 122.596  0.00  0.00    +0.000 OA
BRANCH  39  40
ATOM     40  C   UNL     1     132.019 132.374 122.085  0.00  0.00    +0.000 C 
ATOM     41  C   UNL     1     131.219 131.213 121.482  0.00  0.00    +0.000 C 
BRANCH  41  42
ATOM     42  C   UNL     1     130.426 130.050 120.877  0.00  0.00    +0.000 C 
BRANCH  42  43
ATOM     43  N   UNL     1     129.671 128.945 120.304  0.00  0.00    +0.000 N 
ATOM     44  C   UNL     1     130.399 127.691 120.668  0.00  0.00    +0.000 C 
ATOM     45  C   UNL     1     129.974 126.566 121.666  0.00  0.00    +0.000 C 
ATOM     46  O   UNL     1     128.908 126.362 122.471  0.00  0.00    +0.000 OA
ATOM     47  C   UNL     1     128.253 127.495 122.147  0.00  0.00    +0.000 C 
ATOM     48  C   UNL     1     128.501 128.710 121.202  0.00  0.00    +0.000 C 
ENDBRANCH  42  43
ENDBRANCH  41  42
ENDBRANCH  39  40
ENDBRANCH  35  39
ENDBRANCH  26  27
ENDBRANCH   7  26
TORSDOF 11
ENDMDL
MODEL 6
REMARK VINA RESULT:      -6.8     14.430     17.712
REMARK  Name = Foretinib.pdbqt.pdb
REMARK  11 active torsions:
REMARK  status: ('A' for Active; 'I' for Inactive)
REMARK    1  A    between atoms: C_2  and  N_31
REMARK    2  A    between atoms: C_7  and  O_8
REMARK    3  A    between atoms: O_8  and  C_9
REMARK    4  A    between atoms: C_17  and  O_19
REMARK    5  A    between atoms: C_18  and  O_29
REMARK    6  A    between atoms: O_19  and  C_20
REMARK    7  A    between atoms: C_21  and  C_22
REMARK    8  A    between atoms: C_22  and  N_23
REMARK    9  A    between atoms: C_32  and  C_35
REMARK   10  A    between atoms: C_35  and  C_38
REMARK   11  A    between atoms: N_40  and  C_42
REMARK                            x       y       z     vdW  Elec       q    Type
REMARK                         _______ _______ _______ _____ _____    ______ ____
ROOT
ATOM      1  F   UNL     1     151.701 134.854 133.617  0.00  0.00    +0.000 F 
ATOM      2  C   UNL     1     152.498 132.128 131.358  0.00  0.00    +0.000 A 
ATOM      3  C   UNL     1     152.083 133.376 131.823  0.00  0.00    +0.000 A 
ATOM      4  C   UNL     1     152.957 131.172 132.267  0.00  0.00    +0.000 A 
ATOM      5  C   UNL     1     152.135 133.661 133.184  0.00  0.00    +0.000 A 
ATOM      6  C   UNL     1     153.007 131.457 133.630  0.00  0.00    +0.000 A 
ATOM      7  C   UNL     1     152.618 132.714 134.088  0.00  0.00    +0.000 A 
ENDROOT
BRANCH   2   8
ATOM      8  N   UNL     1     152.470 131.774 129.996  0.00  0.00    +0.000 N 
ATOM      9  C   UNL     1     153.364 132.214 129.033  0.00  0.00    +0.000 C 
ATOM     10  O   UNL     1     154.292 132.993 129.209  0.00  0.00    +0.000 OA
ATOM     11  H   UNL     1     151.705 131.177 129.695  0.00  0.00    +0.000 HD
BRANCH   9  12
ATOM     12  C   UNL     1     153.091 131.700 127.650  0.00  0.00    +0.000 C 
ATOM     13  C   UNL     1     153.637 130.396 127.290  0.00  0.00    +0.000 C 
ATOM     14  C   UNL     1     154.215 131.641 126.721  0.00  0.00    +0.000 C 
BRANCH  12  15
ATOM     15  C   UNL     1     151.740 132.053 127.105  0.00  0.00    +0.000 C 
ATOM     16  O   UNL     1     150.759 131.443 127.515  0.00  0.00    +0.000 OA
ATOM     17  N   UNL     1     151.734 133.102 126.200  0.00  0.00    +0.000 N 
ATOM     18  H   UNL     1     152.619 133.555 125.992  0.00  0.00    +0.000 HD
BRANCH  17  19
ATOM     19  C   UNL     1     150.594 133.624 125.564  0.00  0.00    +0.000 A 
ATOM     20  C   UNL     1     150.237 133.087 124.325  0.00  0.00    +0.000 A 
ATOM     21  C   UNL     1     149.119 133.562 123.645  0.00  0.00    +0.000 A 
ATOM     22  C   UNL     1     148.358 134.578 124.214  0.00  0.00    +0.000 A 
ATOM     23  F   UNL     1     147.280 135.035 123.563  0.00  0.00    +0.000 F 
ATOM     24  C   UNL     1     148.696 135.123 125.447  0.00  0.00    +0.000 A 
ATOM     25  C   UNL     1     149.816 134.643 126.119  0.00  0.00    +0.000 A 
ENDBRANCH  17  19
ENDBRANCH  12  15
ENDBRANCH   9  12
ENDBRANCH   2   8
BRANCH   7  26
ATOM     26  O   UNL     1     152.628 132.917 135.446  0.00  0.00    +0.000 OA
BRANCH  26  27
ATOM     27  C   UNL     1     151.696 132.224 136.194  0.00  0.00    +0.000 A 
ATOM     28  C   UNL     1     152.101 131.697 137.431  0.00  0.00    +0.000 A 
ATOM     29  C   UNL     1     151.134 131.042 138.212  0.00  0.00    +0.000 A 
ATOM     30  C   UNL     1     153.421 131.798 137.897  0.00  0.00    +0.000 A 
ATOM     31  N   UNL     1     149.856 130.920 137.820  0.00  0.00    +0.000 NA
ATOM     32  C   UNL     1     151.530 130.513 139.432  0.00  0.00    +0.000 A 
ATOM     33  C   UNL     1     149.503 131.453 136.629  0.00  0.00    +0.000 A 
ATOM     34  C   UNL     1     150.371 132.118 135.788  0.00  0.00    +0.000 A 
ATOM     35  C   UNL     1     152.845 130.612 139.903  0.00  0.00    +0.000 A 
ATOM     36  C   UNL     1     153.805 131.261 139.126  0.00  0.00    +0.000 A 
BRANCH  36  37
ATOM     37  O   UNL     1     155.083 131.325 139.630  0.00  0.00    +0.000 OA
ATOM     38  C   UNL     1     155.670 132.597 139.637  0.00  0.00    +0.000 C 
ENDBRANCH  36  37
BRANCH  35  39
ATOM     39  O   UNL     1     153.255 130.089 141.107  0.00  0.00    +0.000 OA
BRANCH  39  40
ATOM     40  C   UNL     1     152.446 130.338 142.134  0.00  0.00    +0.000 C 
ATOM     41  C   UNL     1     151.525 130.617 143.327  0.00  0.00    +0.000 C 
BRANCH  41  42
ATOM     42  C   UNL     1     150.610 130.898 144.524  0.00  0.00    +0.000 C 
BRANCH  42  43
ATOM     43  N   UNL     1     149.741 131.165 145.661  0.00  0.00    +0.000 N 
ATOM     44  C   UNL     1     149.111 129.863 146.037  0.00  0.00    +0.000 C 
ATOM     45  C   UNL     1     149.359 128.983 147.305  0.00  0.00    +0.000 C 
ATOM     46  O   UNL     1     150.158 129.084 148.390  0.00  0.00    +0.000 OA
ATOM     47  C   UNL     1     150.731 130.256 148.050  0.00  0.00    +0.000 C 
ATOM     48  C   UNL     1     150.623 131.262 146.863  0.00  0.00    +0.000 C 
ENDBRANCH  42  43
ENDBRANCH  41  42
ENDBRANCH  39  40
ENDBRANCH  35  39
ENDBRANCH  26  27
ENDBRANCH   7  26
TORSDOF 11
ENDMDL
MODEL 7
REMARK VINA RESULT:      -6.8     26.827     32.223
REMARK  Name = Foretinib.pdbqt.pdb
REMARK  11 active torsions:
REMARK  status: ('A' for Active; 'I' for Inactive)
REMARK    1  A    between atoms: C_2  and  N_31
REMARK    2  A    between atoms: C_7  and  O_8
REMARK    3  A    between atoms: O_8  and  C_9
REMARK    4  A    between atoms: C_17  and  O_19
REMARK    5  A    between atoms: C_18  and  O_29
REMARK    6  A    between atoms: O_19  and  C_20
REMARK    7  A    between atoms: C_21  and  C_22
REMARK    8  A    between atoms: C_22  and  N_23
REMARK    9  A    between atoms: C_32  and  C_35
REMARK   10  A    between atoms: C_35  and  C_38
REMARK   11  A    between atoms: N_40  and  C_42
REMARK                            x       y       z     vdW  Elec       q    Type
REMARK                         _______ _______ _______ _____ _____    ______ ____
ROOT
ATOM      1  F   UNL     1     136.984 113.610 114.547  0.00  0.00    +0.000 F 
ATOM      2  C   UNL     1     135.827 116.953 113.740  0.00  0.00    +0.000 A 
ATOM      3  C   UNL     1     135.834 115.635 114.198  0.00  0.00    +0.000 A 
ATOM      4  C   UNL     1     136.997 117.505 113.213  0.00  0.00    +0.000 A 
ATOM      5  C   UNL     1     137.005 114.885 114.132  0.00  0.00    +0.000 A 
ATOM      6  C   UNL     1     138.168 116.753 113.146  0.00  0.00    +0.000 A 
ATOM      7  C   UNL     1     138.178 115.447 113.629  0.00  0.00    +0.000 A 
ENDROOT
BRANCH   2   8
ATOM      8  N   UNL     1     134.679 117.767 113.776  0.00  0.00    +0.000 N 
ATOM      9  C   UNL     1     133.869 117.964 114.881  0.00  0.00    +0.000 C 
ATOM     10  O   UNL     1     134.007 117.447 115.982  0.00  0.00    +0.000 OA
ATOM     11  H   UNL     1     134.407 118.211 112.903  0.00  0.00    +0.000 HD
BRANCH   9  12
ATOM     12  C   UNL     1     132.693 118.864 114.638  0.00  0.00    +0.000 C 
ATOM     13  C   UNL     1     132.585 120.074 115.447  0.00  0.00    +0.000 C 
ATOM     14  C   UNL     1     131.668 118.926 115.675  0.00  0.00    +0.000 C 
BRANCH  12  15
ATOM     15  C   UNL     1     132.258 118.955 113.206  0.00  0.00    +0.000 C 
ATOM     16  O   UNL     1     132.180 117.925 112.546  0.00  0.00    +0.000 OA
ATOM     17  N   UNL     1     131.929 120.230 112.779  0.00  0.00    +0.000 N 
ATOM     18  H   UNL     1     131.988 120.987 113.453  0.00  0.00    +0.000 HD
BRANCH  17  19
ATOM     19  C   UNL     1     131.482 120.569 111.489  0.00  0.00    +0.000 A 
ATOM     20  C   UNL     1     132.061 121.680 110.872  0.00  0.00    +0.000 A 
ATOM     21  C   UNL     1     131.660 122.066 109.595  0.00  0.00    +0.000 A 
ATOM     22  C   UNL     1     130.679 121.332 108.939  0.00  0.00    +0.000 A 
ATOM     23  F   UNL     1     130.294 121.699 107.709  0.00  0.00    +0.000 F 
ATOM     24  C   UNL     1     130.094 120.221 109.536  0.00  0.00    +0.000 A 
ATOM     25  C   UNL     1     130.499 119.843 110.813  0.00  0.00    +0.000 A 
ENDBRANCH  17  19
ENDBRANCH  12  15
ENDBRANCH   9  12
ENDBRANCH   2   8
BRANCH   7  26
ATOM     26  O   UNL     1     139.341 114.732 113.479  0.00  0.00    +0.000 OA
BRANCH  26  27
ATOM     27  C   UNL     1     139.597 114.197 112.231  0.00  0.00    +0.000 A 
ATOM     28  C   UNL     1     140.640 114.753 111.474  0.00  0.00    +0.000 A 
ATOM     29  C   UNL     1     140.931 114.168 110.230  0.00  0.00    +0.000 A 
ATOM     30  C   UNL     1     141.382 115.861 111.913  0.00  0.00    +0.000 A 
ATOM     31  N   UNL     1     140.259 113.105 109.762  0.00  0.00    +0.000 NA
ATOM     32  C   UNL     1     141.956 114.718 109.475  0.00  0.00    +0.000 A 
ATOM     33  C   UNL     1     139.270 112.590 110.527  0.00  0.00    +0.000 A 
ATOM     34  C   UNL     1     138.906 113.085 111.763  0.00  0.00    +0.000 A 
ATOM     35  C   UNL     1     142.701 115.822 109.907  0.00  0.00    +0.000 A 
ATOM     36  C   UNL     1     142.411 116.404 111.142  0.00  0.00    +0.000 A 
BRANCH  36  37
ATOM     37  O   UNL     1     143.166 117.489 111.518  0.00  0.00    +0.000 OA
ATOM     38  C   UNL     1     142.502 118.724 111.505  0.00  0.00    +0.000 C 
ENDBRANCH  36  37
BRANCH  35  39
ATOM     39  O   UNL     1     143.717 116.382 109.168  0.00  0.00    +0.000 OA
BRANCH  39  40
ATOM     40  C   UNL     1     144.053 115.707 108.072  0.00  0.00    +0.000 C 
ATOM     41  C   UNL     1     144.431 114.916 106.814  0.00  0.00    +0.000 C 
BRANCH  41  42
ATOM     42  C   UNL     1     144.803 114.123 105.557  0.00  0.00    +0.000 C 
BRANCH  42  43
ATOM     43  N   UNL     1     145.155 113.370 104.362  0.00  0.00    +0.000 N 
ATOM     44  C   UNL     1     145.699 114.355 103.377  0.00  0.00    +0.000 C 
ATOM     45  C   UNL     1     147.169 114.526 102.872  0.00  0.00    +0.000 C 
ATOM     46  O   UNL     1     148.341 113.907 103.132  0.00  0.00    +0.000 OA
ATOM     47  C   UNL     1     147.853 113.022 104.025  0.00  0.00    +0.000 C 
ATOM     48  C   UNL     1     146.459 112.698 104.645  0.00  0.00    +0.000 C 
ENDBRANCH  42  43
ENDBRANCH  41  42
ENDBRANCH  39  40
ENDBRANCH  35  39
ENDBRANCH  26  27
ENDBRANCH   7  26
TORSDOF 11
ENDMDL
MODEL 8
REMARK VINA RESULT:      -6.7      4.666      7.469
REMARK  Name = Foretinib.pdbqt.pdb
REMARK  11 active torsions:
REMARK  status: ('A' for Active; 'I' for Inactive)
REMARK    1  A    between atoms: C_2  and  N_31
REMARK    2  A    between atoms: C_7  and  O_8
REMARK    3  A    between atoms: O_8  and  C_9
REMARK    4  A    between atoms: C_17  and  O_19
REMARK    5  A    between atoms: C_18  and  O_29
REMARK    6  A    between atoms: O_19  and  C_20
REMARK    7  A    between atoms: C_21  and  C_22
REMARK    8  A    between atoms: C_22  and  N_23
REMARK    9  A    between atoms: C_32  and  C_35
REMARK   10  A    between atoms: C_35  and  C_38
REMARK   11  A    between atoms: N_40  and  C_42
REMARK                            x       y       z     vdW  Elec       q    Type
REMARK                         _______ _______ _______ _____ _____    ______ ____
ROOT
ATOM      1  F   UNL     1     132.334 123.018 141.711  0.00  0.00    +0.000 F 
ATOM      2  C   UNL     1     135.089 122.203 139.494  0.00  0.00    +0.000 A 
ATOM      3  C   UNL     1     133.792 122.337 139.991  0.00  0.00    +0.000 A 
ATOM      4  C   UNL     1     136.168 122.659 140.254  0.00  0.00    +0.000 A 
ATOM      5  C   UNL     1     133.584 122.928 141.234  0.00  0.00    +0.000 A 
ATOM      6  C   UNL     1     135.959 123.249 141.499  0.00  0.00    +0.000 A 
ATOM      7  C   UNL     1     134.662 123.406 141.980  0.00  0.00    +0.000 A 
ENDROOT
BRANCH   2   8
ATOM      8  N   UNL     1     135.370 121.615 138.247  0.00  0.00    +0.000 N 
ATOM      9  C   UNL     1     135.349 122.270 137.027  0.00  0.00    +0.000 C 
ATOM     10  O   UNL     1     135.060 123.445 136.841  0.00  0.00    +0.000 OA
ATOM     11  H   UNL     1     135.565 120.618 138.246  0.00  0.00    +0.000 HD
BRANCH   9  12
ATOM     12  C   UNL     1     135.666 121.399 135.847  0.00  0.00    +0.000 C 
ATOM     13  C   UNL     1     134.696 120.373 135.480  0.00  0.00    +0.000 C 
ATOM     14  C   UNL     1     135.989 120.001 136.111  0.00  0.00    +0.000 C 
BRANCH  12  15
ATOM     15  C   UNL     1     136.387 122.093 134.730  0.00  0.00    +0.000 C 
ATOM     16  O   UNL     1     135.954 121.982 133.589  0.00  0.00    +0.000 OA
ATOM     17  N   UNL     1     137.474 122.854 135.125  0.00  0.00    +0.000 N 
ATOM     18  H   UNL     1     137.686 122.901 136.117  0.00  0.00    +0.000 HD
BRANCH  17  19
ATOM     19  C   UNL     1     138.297 123.607 134.268  0.00  0.00    +0.000 A 
ATOM     20  C   UNL     1     139.621 123.191 134.109  0.00  0.00    +0.000 A 
ATOM     21  C   UNL     1     140.487 123.894 133.274  0.00  0.00    +0.000 A 
ATOM     22  C   UNL     1     140.018 125.016 132.599  0.00  0.00    +0.000 A 
ATOM     23  F   UNL     1     140.847 125.693 131.794  0.00  0.00    +0.000 F 
ATOM     24  C   UNL     1     138.703 125.443 132.743  0.00  0.00    +0.000 A 
ATOM     25  C   UNL     1     137.845 124.734 133.580  0.00  0.00    +0.000 A 
ENDBRANCH  17  19
ENDBRANCH  12  15
ENDBRANCH   9  12
ENDBRANCH   2   8
BRANCH   7  26
ATOM     26  O   UNL     1     134.520 123.935 143.240  0.00  0.00    +0.000 OA
BRANCH  26  27
ATOM     27  C   UNL     1     134.821 125.273 143.400  0.00  0.00    +0.000 A 
ATOM     28  C   UNL     1     133.757 126.182 143.508  0.00  0.00    +0.000 A 
ATOM     29  C   UNL     1     134.070 127.535 143.728  0.00  0.00    +0.000 A 
ATOM     30  C   UNL     1     132.414 125.787 143.397  0.00  0.00    +0.000 A 
ATOM     31  N   UNL     1     135.334 127.969 143.847  0.00  0.00    +0.000 NA
ATOM     32  C   UNL     1     133.022 128.438 143.827  0.00  0.00    +0.000 A 
ATOM     33  C   UNL     1     136.330 127.060 143.751  0.00  0.00    +0.000 A 
ATOM     34  C   UNL     1     136.133 125.711 143.540  0.00  0.00    +0.000 A 
ATOM     35  C   UNL     1     131.681 128.050 143.719  0.00  0.00    +0.000 A 
ATOM     36  C   UNL     1     131.371 126.707 143.500  0.00  0.00    +0.000 A 
BRANCH  36  37
ATOM     37  O   UNL     1     130.040 126.379 143.393  0.00  0.00    +0.000 OA
ATOM     38  C   UNL     1     129.512 125.633 144.456  0.00  0.00    +0.000 C 
ENDBRANCH  36  37
BRANCH  35  39
ATOM     39  O   UNL     1     130.631 128.934 143.811  0.00  0.00    +0.000 OA
BRANCH  39  40
ATOM     40  C   UNL     1     130.503 129.535 144.991  0.00  0.00    +0.000 C 
ATOM     41  C   UNL     1     130.343 130.239 146.343  0.00  0.00    +0.000 C 
BRANCH  41  42
ATOM     42  C   UNL     1     130.177 130.942 147.695  0.00  0.00    +0.000 C 
BRANCH  42  43
ATOM     43  N   UNL     1     130.021 131.611 148.979  0.00  0.00    +0.000 N 
ATOM     44  C   UNL     1     129.250 132.865 148.720  0.00  0.00    +0.000 C 
ATOM     45  C   UNL     1     127.783 133.217 149.131  0.00  0.00    +0.000 C 
ATOM     46  O   UNL     1     126.800 132.568 149.792  0.00  0.00    +0.000 OA
ATOM     47  C   UNL     1     127.493 131.433 150.021  0.00  0.00    +0.000 C 
ATOM     48  C   UNL     1     128.923 130.902 149.703  0.00  0.00    +0.000 C 
ENDBRANCH  42  43
ENDBRANCH  41  42
ENDBRANCH  39  40
ENDBRANCH  35  39
ENDBRANCH  26  27
ENDBRANCH   7  26
TORSDOF 11
ENDMDL
MODEL 9
REMARK VINA RESULT:      -6.7     38.106     44.716
REMARK  Name = Foretinib.pdbqt.pdb
REMARK  11 active torsions:
REMARK  status: ('A' for Active; 'I' for Inactive)
REMARK    1  A    between atoms: C_2  and  N_31
REMARK    2  A    between atoms: C_7  and  O_8
REMARK    3  A    between atoms: O_8  and  C_9
REMARK    4  A    between atoms: C_17  and  O_19
REMARK    5  A    between atoms: C_18  and  O_29
REMARK    6  A    between atoms: O_19  and  C_20
REMARK    7  A    between atoms: C_21  and  C_22
REMARK    8  A    between atoms: C_22  and  N_23
REMARK    9  A    between atoms: C_32  and  C_35
REMARK   10  A    between atoms: C_35  and  C_38
REMARK   11  A    between atoms: N_40  and  C_42
REMARK                            x       y       z     vdW  Elec       q    Type
REMARK                         _______ _______ _______ _____ _____    ______ ____
ROOT
ATOM      1  F   UNL     1     136.455 112.512  94.933  0.00  0.00    +0.000 F 
ATOM      2  C   UNL     1     137.469 113.607  98.240  0.00  0.00    +0.000 A 
ATOM      3  C   UNL     1     136.697 113.077  97.206  0.00  0.00    +0.000 A 
ATOM      4  C   UNL     1     138.766 114.052  97.973  0.00  0.00    +0.000 A 
ATOM      5  C   UNL     1     137.224 112.992  95.921  0.00  0.00    +0.000 A 
ATOM      6  C   UNL     1     139.292 113.967  96.686  0.00  0.00    +0.000 A 
ATOM      7  C   UNL     1     138.528 113.413  95.661  0.00  0.00    +0.000 A 
ENDROOT
BRANCH   2   8
ATOM      8  N   UNL     1     136.998 113.723  99.561  0.00  0.00    +0.000 N 
ATOM      9  C   UNL     1     136.194 114.744 100.041  0.00  0.00    +0.000 C 
ATOM     10  O   UNL     1     135.792 115.709  99.403  0.00  0.00    +0.000 OA
ATOM     11  H   UNL     1     137.312 113.017 100.221  0.00  0.00    +0.000 HD
BRANCH   9  12
ATOM     12  C   UNL     1     135.857 114.638 101.499  0.00  0.00    +0.000 C 
ATOM     13  C   UNL     1     136.791 113.925 102.362  0.00  0.00    +0.000 C 
ATOM     14  C   UNL     1     135.479 113.325 102.008  0.00  0.00    +0.000 C 
BRANCH  12  15
ATOM     15  C   UNL     1     135.174 115.843 102.074  0.00  0.00    +0.000 C 
ATOM     16  O   UNL     1     135.861 116.773 102.482  0.00  0.00    +0.000 OA
ATOM     17  N   UNL     1     133.791 115.800 102.037  0.00  0.00    +0.000 N 
ATOM     18  H   UNL     1     133.352 114.986 101.618  0.00  0.00    +0.000 HD
BRANCH  17  19
ATOM     19  C   UNL     1     132.930 116.811 102.501  0.00  0.00    +0.000 A 
ATOM     20  C   UNL     1     132.337 117.646 101.552  0.00  0.00    +0.000 A 
ATOM     21  C   UNL     1     131.475 118.666 101.949  0.00  0.00    +0.000 A 
ATOM     22  C   UNL     1     131.210 118.844 103.302  0.00  0.00    +0.000 A 
ATOM     23  F   UNL     1     130.380 119.822 103.687  0.00  0.00    +0.000 F 
ATOM     24  C   UNL     1     131.789 118.021 104.261  0.00  0.00    +0.000 A 
ATOM     25  C   UNL     1     132.651 117.005 103.856  0.00  0.00    +0.000 A 
ENDBRANCH  17  19
ENDBRANCH  12  15
ENDBRANCH   9  12
ENDBRANCH   2   8
BRANCH   7  26
ATOM     26  O   UNL     1     139.074 113.415  94.401  0.00  0.00    +0.000 OA
BRANCH  26  27
ATOM     27  C   UNL     1     138.999 114.592  93.682  0.00  0.00    +0.000 A 
ATOM     28  C   UNL     1     140.175 115.338  93.511  0.00  0.00    +0.000 A 
ATOM     29  C   UNL     1     140.103 116.505  92.731  0.00  0.00    +0.000 A 
ATOM     30  C   UNL     1     141.397 114.964  94.092  0.00  0.00    +0.000 A 
ATOM     31  N   UNL     1     138.964 116.910  92.147  0.00  0.00    +0.000 NA
ATOM     32  C   UNL     1     141.261 117.251  92.565  0.00  0.00    +0.000 A 
ATOM     33  C   UNL     1     137.856 116.156  92.325  0.00  0.00    +0.000 A 
ATOM     34  C   UNL     1     137.818 114.993  93.067  0.00  0.00    +0.000 A 
ATOM     35  C   UNL     1     142.483 116.882  93.140  0.00  0.00    +0.000 A 
ATOM     36  C   UNL     1     142.554 115.723  93.916  0.00  0.00    +0.000 A 
BRANCH  36  37
ATOM     37  O   UNL     1     143.774 115.408  94.465  0.00  0.00    +0.000 OA
ATOM     38  C   UNL     1     144.444 114.327  93.875  0.00  0.00    +0.000 C 
ENDBRANCH  36  37
BRANCH  35  39
ATOM     39  O   UNL     1     143.638 117.612  92.989  0.00  0.00    +0.000 OA
BRANCH  39  40
ATOM     40  C   UNL     1     143.657 118.775  93.635  0.00  0.00    +0.000 C 
ATOM     41  C   UNL     1     143.697 120.114  94.381  0.00  0.00    +0.000 C 
BRANCH  41  42
ATOM     42  C   UNL     1     143.741 121.454  95.122  0.00  0.00    +0.000 C 
BRANCH  42  43
ATOM     43  N   UNL     1     143.783 122.727  95.828  0.00  0.00    +0.000 N 
ATOM     44  C   UNL     1     142.435 123.353  95.668  0.00  0.00    +0.000 C 
ATOM     45  C   UNL     1     141.321 123.573  96.743  0.00  0.00    +0.000 C 
ATOM     46  O   UNL     1     141.204 123.293  98.060  0.00  0.00    +0.000 OA
ATOM     47  C   UNL     1     142.417 122.723  98.204  0.00  0.00    +0.000 C 
ATOM     48  C   UNL     1     143.637 122.418  97.282  0.00  0.00    +0.000 C 
ENDBRANCH  42  43
ENDBRANCH  41  42
ENDBRANCH  39  40
ENDBRANCH  35  39
ENDBRANCH  26  27
ENDBRANCH   7  26
TORSDOF 11
ENDMDL
