MODEL 1
REMARK VINA RESULT:      -5.7      0.000      0.000
REMARK  Name = 
REMARK  7 active torsions:
REMARK  status: ('A' for Active; 'I' for Inactive)
REMARK    1  A    between atoms: S_1  and  O_3
REMARK    2  A    between atoms: S_1  and  O_6
REMARK    3  A    between atoms: O_3  and  C_9
REMARK    4  A    between atoms: O_4  and  C_10
REMARK    5  A    between atoms: O_5  and  C_11
REMARK    6  A    between atoms: C_12  and  C_14
REMARK    7  A    between atoms: C_13  and  C_15
REMARK                            x       y       z     vdW  Elec       q    Type
REMARK                         _______ _______ _______ _____ _____    ______ ____
ROOT
ATOM      1  O   UNL     1     134.739 122.553 137.133  0.00  0.00    +0.000 OA
ATOM      2  C   UNL     1     136.418 121.723 135.551  0.00  0.00    +0.000 C 
ATOM      3  C   UNL     1     137.355 121.420 136.729  0.00  0.00    +0.000 C 
ATOM      4  C   UNL     1     137.042 122.324 137.930  0.00  0.00    +0.000 C 
ATOM      5  C   UNL     1     134.958 121.657 136.036  0.00  0.00    +0.000 C 
ATOM      6  C   UNL     1     135.549 122.246 138.276  0.00  0.00    +0.000 C 
ATOM      7  C   UNL     1     133.974 122.041 134.936  0.00  0.00    +0.000 C 
ATOM      8  C   UNL     1     135.179 123.231 139.379  0.00  0.00    +0.000 C 
ENDROOT
BRANCH   3   9
ATOM      9  O   UNL     1     138.743 121.592 136.401  0.00  0.00    +0.000 OA
ATOM     10  H   UNL     1     139.034 120.844 135.840  0.00  0.00    +0.000 HD
ENDBRANCH   3   9
BRANCH   4  11
ATOM     11  O   UNL     1     137.848 121.909 139.038  0.00  0.00    +0.000 OA
ATOM     12  H   UNL     1     137.511 121.020 139.274  0.00  0.00    +0.000 HD
ENDBRANCH   4  11
BRANCH   2  13
ATOM     13  O   UNL     1     136.696 123.029 135.043  0.00  0.00    +0.000 OA
BRANCH  13  14
ATOM     14  S   UNL     1     137.434 123.160 133.606  0.00  0.00    +0.000 S 
ATOM     15  O   UNL     1     136.653 124.045 132.775  0.00  0.00    +0.000 OA
ATOM     16  O   UNL     1     138.853 123.346 133.823  0.00  0.00    +0.000 OA
BRANCH  14  17
ATOM     17  O   UNL     1     137.218 121.690 132.992  0.00  0.00    +0.000 OA
ATOM     18  H   UNL     1     137.445 121.740 132.040  0.00  0.00    +0.000 HD
ENDBRANCH  14  17
ENDBRANCH  13  14
ENDBRANCH   2  13
TORSDOF 5
ENDMDL
MODEL 2
REMARK VINA RESULT:      -5.6      4.152      5.624
REMARK  Name = 
REMARK  7 active torsions:
REMARK  status: ('A' for Active; 'I' for Inactive)
REMARK    1  A    between atoms: S_1  and  O_3
REMARK    2  A    between atoms: S_1  and  O_6
REMARK    3  A    between atoms: O_3  and  C_9
REMARK    4  A    between atoms: O_4  and  C_10
REMARK    5  A    between atoms: O_5  and  C_11
REMARK    6  A    between atoms: C_12  and  C_14
REMARK    7  A    between atoms: C_13  and  C_15
REMARK                            x       y       z     vdW  Elec       q    Type
REMARK                         _______ _______ _______ _____ _____    ______ ____
ROOT
ATOM      1  O   UNL     1     138.580 124.713 132.869  0.00  0.00    +0.000 OA
ATOM      2  C   UNL     1     140.662 124.179 134.049  0.00  0.00    +0.000 C 
ATOM      3  C   UNL     1     140.121 122.771 134.336  0.00  0.00    +0.000 C 
ATOM      4  C   UNL     1     138.586 122.763 134.349  0.00  0.00    +0.000 C 
ATOM      5  C   UNL     1     140.010 124.721 132.764  0.00  0.00    +0.000 C 
ATOM      6  C   UNL     1     138.041 123.397 133.062  0.00  0.00    +0.000 C 
ATOM      7  C   UNL     1     140.433 126.156 132.471  0.00  0.00    +0.000 C 
ATOM      8  C   UNL     1     136.522 123.526 133.101  0.00  0.00    +0.000 C 
ENDROOT
BRANCH   3   9
ATOM      9  O   UNL     1     140.573 122.240 135.591  0.00  0.00    +0.000 OA
ATOM     10  H   UNL     1     139.816 121.825 136.055  0.00  0.00    +0.000 HD
ENDBRANCH   3   9
BRANCH   4  11
ATOM     11  O   UNL     1     138.136 121.410 134.484  0.00  0.00    +0.000 OA
ATOM     12  H   UNL     1     137.540 121.267 133.720  0.00  0.00    +0.000 HD
ENDBRANCH   4  11
BRANCH   2  13
ATOM     13  O   UNL     1     140.352 125.042 135.145  0.00  0.00    +0.000 OA
BRANCH  13  14
ATOM     14  S   UNL     1     141.566 125.577 136.076  0.00  0.00    +0.000 S 
ATOM     15  O   UNL     1     142.557 124.532 136.172  0.00  0.00    +0.000 OA
ATOM     16  O   UNL     1     141.895 126.930 135.685  0.00  0.00    +0.000 OA
BRANCH  14  17
ATOM     17  O   UNL     1     140.866 125.639 137.523  0.00  0.00    +0.000 OA
ATOM     18  H   UNL     1     140.276 126.423 137.523  0.00  0.00    +0.000 HD
ENDBRANCH  14  17
ENDBRANCH  13  14
ENDBRANCH   2  13
TORSDOF 5
ENDMDL
MODEL 3
REMARK VINA RESULT:      -5.4      3.607      5.162
REMARK  Name = 
REMARK  7 active torsions:
REMARK  status: ('A' for Active; 'I' for Inactive)
REMARK    1  A    between atoms: S_1  and  O_3
REMARK    2  A    between atoms: S_1  and  O_6
REMARK    3  A    between atoms: O_3  and  C_9
REMARK    4  A    between atoms: O_4  and  C_10
REMARK    5  A    between atoms: O_5  and  C_11
REMARK    6  A    between atoms: C_12  and  C_14
REMARK    7  A    between atoms: C_13  and  C_15
REMARK                            x       y       z     vdW  Elec       q    Type
REMARK                         _______ _______ _______ _____ _____    ______ ____
ROOT
ATOM      1  O   UNL     1     141.258 123.862 133.121  0.00  0.00    +0.000 OA
ATOM      2  C   UNL     1     139.086 123.826 134.259  0.00  0.00    +0.000 C 
ATOM      3  C   UNL     1     139.700 122.962 135.369  0.00  0.00    +0.000 C 
ATOM      4  C   UNL     1     140.901 122.162 134.846  0.00  0.00    +0.000 C 
ATOM      5  C   UNL     1     140.192 124.683 133.614  0.00  0.00    +0.000 C 
ATOM      6  C   UNL     1     141.900 123.098 134.152  0.00  0.00    +0.000 C 
ATOM      7  C   UNL     1     139.669 125.499 132.438  0.00  0.00    +0.000 C 
ATOM      8  C   UNL     1     143.039 122.319 133.504  0.00  0.00    +0.000 C 
ENDROOT
BRANCH   3   9
ATOM      9  O   UNL     1     138.766 122.030 135.936  0.00  0.00    +0.000 OA
ATOM     10  H   UNL     1     138.364 121.501 135.216  0.00  0.00    +0.000 HD
ENDBRANCH   3   9
BRANCH   4  11
ATOM     11  O   UNL     1     141.515 121.483 135.947  0.00  0.00    +0.000 OA
ATOM     12  H   UNL     1     141.186 121.949 136.743  0.00  0.00    +0.000 HD
ENDBRANCH   4  11
BRANCH   2  13
ATOM     13  O   UNL     1     138.495 122.983 133.268  0.00  0.00    +0.000 OA
BRANCH  13  14
ATOM     14  S   UNL     1     136.883 122.993 133.106  0.00  0.00    +0.000 S 
ATOM     15  O   UNL     1     136.397 124.296 133.493  0.00  0.00    +0.000 OA
ATOM     16  O   UNL     1     136.536 122.376 131.844  0.00  0.00    +0.000 OA
BRANCH  14  17
ATOM     17  O   UNL     1     136.428 121.997 134.284  0.00  0.00    +0.000 OA
ATOM     18  H   UNL     1     136.638 122.440 135.132  0.00  0.00    +0.000 HD
ENDBRANCH  14  17
ENDBRANCH  13  14
ENDBRANCH   2  13
TORSDOF 5
ENDMDL
MODEL 4
REMARK VINA RESULT:      -5.4      2.735      3.837
REMARK  Name = 
REMARK  7 active torsions:
REMARK  status: ('A' for Active; 'I' for Inactive)
REMARK    1  A    between atoms: S_1  and  O_3
REMARK    2  A    between atoms: S_1  and  O_6
REMARK    3  A    between atoms: O_3  and  C_9
REMARK    4  A    between atoms: O_4  and  C_10
REMARK    5  A    between atoms: O_5  and  C_11
REMARK    6  A    between atoms: C_12  and  C_14
REMARK    7  A    between atoms: C_13  and  C_15
REMARK                            x       y       z     vdW  Elec       q    Type
REMARK                         _______ _______ _______ _____ _____    ______ ____
ROOT
ATOM      1  O   UNL     1     136.489 124.192 134.099  0.00  0.00    +0.000 OA
ATOM      2  C   UNL     1     138.725 123.231 134.394  0.00  0.00    +0.000 C 
ATOM      3  C   UNL     1     138.124 122.150 135.303  0.00  0.00    +0.000 C 
ATOM      4  C   UNL     1     136.828 122.642 135.963  0.00  0.00    +0.000 C 
ATOM      5  C   UNL     1     137.649 123.718 133.405  0.00  0.00    +0.000 C 
ATOM      6  C   UNL     1     135.862 123.180 134.899  0.00  0.00    +0.000 C 
ATOM      7  C   UNL     1     138.152 124.862 132.532  0.00  0.00    +0.000 C 
ATOM      8  C   UNL     1     134.621 123.798 135.532  0.00  0.00    +0.000 C 
ENDROOT
BRANCH   3   9
ATOM      9  O   UNL     1     139.017 121.733 136.347  0.00  0.00    +0.000 OA
ATOM     10  H   UNL     1     138.658 120.927 136.772  0.00  0.00    +0.000 HD
ENDBRANCH   3   9
BRANCH   4  11
ATOM     11  O   UNL     1     136.241 121.556 136.687  0.00  0.00    +0.000 OA
ATOM     12  H   UNL     1     135.295 121.793 136.773  0.00  0.00    +0.000 HD
ENDBRANCH   4  11
BRANCH   2  13
ATOM     13  O   UNL     1     139.176 124.328 135.191  0.00  0.00    +0.000 OA
BRANCH  13  14
ATOM     14  S   UNL     1     140.764 124.644 135.246  0.00  0.00    +0.000 S 
ATOM     15  O   UNL     1     141.478 123.396 135.115  0.00  0.00    +0.000 OA
ATOM     16  O   UNL     1     141.043 125.793 134.412  0.00  0.00    +0.000 OA
BRANCH  14  17
ATOM     17  O   UNL     1     140.956 125.090 136.780  0.00  0.00    +0.000 OA
ATOM     18  H   UNL     1     140.371 125.861 136.930  0.00  0.00    +0.000 HD
ENDBRANCH  14  17
ENDBRANCH  13  14
ENDBRANCH   2  13
TORSDOF 5
ENDMDL
MODEL 5
REMARK VINA RESULT:      -5.3      2.918      4.384
REMARK  Name = 
REMARK  7 active torsions:
REMARK  status: ('A' for Active; 'I' for Inactive)
REMARK    1  A    between atoms: S_1  and  O_3
REMARK    2  A    between atoms: S_1  and  O_6
REMARK    3  A    between atoms: O_3  and  C_9
REMARK    4  A    between atoms: O_4  and  C_10
REMARK    5  A    between atoms: O_5  and  C_11
REMARK    6  A    between atoms: C_12  and  C_14
REMARK    7  A    between atoms: C_13  and  C_15
REMARK                            x       y       z     vdW  Elec       q    Type
REMARK                         _______ _______ _______ _____ _____    ______ ____
ROOT
ATOM      1  O   UNL     1     137.931 123.466 132.998  0.00  0.00    +0.000 OA
ATOM      2  C   UNL     1     137.042 122.336 134.985  0.00  0.00    +0.000 C 
ATOM      3  C   UNL     1     138.347 122.650 135.729  0.00  0.00    +0.000 C 
ATOM      4  C   UNL     1     139.516 122.816 134.747  0.00  0.00    +0.000 C 
ATOM      5  C   UNL     1     136.813 123.397 133.893  0.00  0.00    +0.000 C 
ATOM      6  C   UNL     1     139.152 123.832 133.656  0.00  0.00    +0.000 C 
ATOM      7  C   UNL     1     135.579 123.093 133.050  0.00  0.00    +0.000 C 
ATOM      8  C   UNL     1     140.238 123.921 132.590  0.00  0.00    +0.000 C 
ENDROOT
BRANCH   3   9
ATOM      9  O   UNL     1     138.712 121.636 136.677  0.00  0.00    +0.000 OA
ATOM     10  H   UNL     1     138.432 121.918 137.572  0.00  0.00    +0.000 HD
ENDBRANCH   3   9
BRANCH   4  11
ATOM     11  O   UNL     1     140.672 123.240 135.477  0.00  0.00    +0.000 OA
ATOM     12  H   UNL     1     141.254 123.654 134.808  0.00  0.00    +0.000 HD
ENDBRANCH   4  11
BRANCH   2  13
ATOM     13  O   UNL     1     137.134 121.043 134.384  0.00  0.00    +0.000 OA
BRANCH  13  14
ATOM     14  S   UNL     1     136.193 119.855 134.957  0.00  0.00    +0.000 S 
ATOM     15  O   UNL     1     136.216 119.914 136.400  0.00  0.00    +0.000 OA
ATOM     16  O   UNL     1     134.961 119.826 134.199  0.00  0.00    +0.000 OA
BRANCH  14  17
ATOM     17  O   UNL     1     137.042 118.546 134.567  0.00  0.00    +0.000 OA
ATOM     18  H   UNL     1     136.800 117.845 135.207  0.00  0.00    +0.000 HD
ENDBRANCH  14  17
ENDBRANCH  13  14
ENDBRANCH   2  13
TORSDOF 5
ENDMDL
MODEL 6
REMARK VINA RESULT:      -5.2     35.867     36.587
REMARK  Name = 
REMARK  7 active torsions:
REMARK  status: ('A' for Active; 'I' for Inactive)
REMARK    1  A    between atoms: S_1  and  O_3
REMARK    2  A    between atoms: S_1  and  O_6
REMARK    3  A    between atoms: O_3  and  C_9
REMARK    4  A    between atoms: O_4  and  C_10
REMARK    5  A    between atoms: O_5  and  C_11
REMARK    6  A    between atoms: C_12  and  C_14
REMARK    7  A    between atoms: C_13  and  C_15
REMARK                            x       y       z     vdW  Elec       q    Type
REMARK                         _______ _______ _______ _____ _____    ______ ____
ROOT
ATOM      1  O   UNL     1     143.611 126.916 100.758  0.00  0.00    +0.000 OA
ATOM      2  C   UNL     1     142.745 124.622 100.769  0.00  0.00    +0.000 C 
ATOM      3  C   UNL     1     144.092 124.133 101.319  0.00  0.00    +0.000 C 
ATOM      4  C   UNL     1     145.229 125.086 100.923  0.00  0.00    +0.000 C 
ATOM      5  C   UNL     1     142.527 126.087 101.194  0.00  0.00    +0.000 C 
ATOM      6  C   UNL     1     144.874 126.526 101.317  0.00  0.00    +0.000 C 
ATOM      7  C   UNL     1     141.248 126.668 100.601  0.00  0.00    +0.000 C 
ATOM      8  C   UNL     1     145.921 127.516 100.820  0.00  0.00    +0.000 C 
ENDROOT
BRANCH   3   9
ATOM      9  O   UNL     1     144.443 122.819 100.859  0.00  0.00    +0.000 OA
ATOM     10  H   UNL     1     144.182 122.728  99.918  0.00  0.00    +0.000 HD
ENDBRANCH   3   9
BRANCH   4  11
ATOM     11  O   UNL     1     146.432 124.660 101.572  0.00  0.00    +0.000 OA
ATOM     12  H   UNL     1     147.090 125.354 101.362  0.00  0.00    +0.000 HD
ENDBRANCH   4  11
BRANCH   2  13
ATOM     13  O   UNL     1     142.750 124.532  99.343  0.00  0.00    +0.000 OA
BRANCH  13  14
ATOM     14  S   UNL     1     141.769 123.455  98.633  0.00  0.00    +0.000 S 
ATOM     15  O   UNL     1     140.659 123.199  99.520  0.00  0.00    +0.000 OA
ATOM     16  O   UNL     1     141.588 123.829  97.247  0.00  0.00    +0.000 OA
BRANCH  14  17
ATOM     17  O   UNL     1     142.666 122.120  98.670  0.00  0.00    +0.000 OA
ATOM     18  H   UNL     1     143.580 122.382  98.433  0.00  0.00    +0.000 HD
ENDBRANCH  14  17
ENDBRANCH  13  14
ENDBRANCH   2  13
TORSDOF 5
ENDMDL
MODEL 7
REMARK VINA RESULT:      -5.0      2.136      4.107
REMARK  Name = 
REMARK  7 active torsions:
REMARK  status: ('A' for Active; 'I' for Inactive)
REMARK    1  A    between atoms: S_1  and  O_3
REMARK    2  A    between atoms: S_1  and  O_6
REMARK    3  A    between atoms: O_3  and  C_9
REMARK    4  A    between atoms: O_4  and  C_10
REMARK    5  A    between atoms: O_5  and  C_11
REMARK    6  A    between atoms: C_12  and  C_14
REMARK    7  A    between atoms: C_13  and  C_15
REMARK                            x       y       z     vdW  Elec       q    Type
REMARK                         _______ _______ _______ _____ _____    ______ ____
ROOT
ATOM      1  O   UNL     1     135.994 121.483 135.285  0.00  0.00    +0.000 OA
ATOM      2  C   UNL     1     137.271 123.479 134.656  0.00  0.00    +0.000 C 
ATOM      3  C   UNL     1     136.393 123.628 133.406  0.00  0.00    +0.000 C 
ATOM      4  C   UNL     1     135.811 122.274 132.976  0.00  0.00    +0.000 C 
ATOM      5  C   UNL     1     136.473 122.751 135.753  0.00  0.00    +0.000 C 
ATOM      6  C   UNL     1     135.109 121.598 134.162  0.00  0.00    +0.000 C 
ATOM      7  C   UNL     1     137.318 122.485 136.993  0.00  0.00    +0.000 C 
ATOM      8  C   UNL     1     134.636 120.194 133.805  0.00  0.00    +0.000 C 
ENDROOT
BRANCH   3   9
ATOM      9  O   UNL     1     137.101 124.176 132.284  0.00  0.00    +0.000 OA
ATOM     10  H   UNL     1     137.055 125.154 132.323  0.00  0.00    +0.000 HD
ENDBRANCH   3   9
BRANCH   4  11
ATOM     11  O   UNL     1     134.897 122.490 131.896  0.00  0.00    +0.000 OA
ATOM     12  H   UNL     1     135.273 123.243 131.395  0.00  0.00    +0.000 HD
ENDBRANCH   4  11
BRANCH   2  13
ATOM     13  O   UNL     1     138.440 122.723 134.331  0.00  0.00    +0.000 OA
BRANCH  13  14
ATOM     14  S   UNL     1     139.796 123.522 133.947  0.00  0.00    +0.000 S 
ATOM     15  O   UNL     1     139.559 124.934 134.134  0.00  0.00    +0.000 OA
ATOM     16  O   UNL     1     140.926 122.837 134.538  0.00  0.00    +0.000 OA
BRANCH  14  17
ATOM     17  O   UNL     1     139.865 123.304 132.355  0.00  0.00    +0.000 OA
ATOM     18  H   UNL     1     139.176 123.876 131.957  0.00  0.00    +0.000 HD
ENDBRANCH  14  17
ENDBRANCH  13  14
ENDBRANCH   2  13
TORSDOF 5
ENDMDL
MODEL 8
REMARK VINA RESULT:      -4.9      2.207      2.693
REMARK  Name = 
REMARK  7 active torsions:
REMARK  status: ('A' for Active; 'I' for Inactive)
REMARK    1  A    between atoms: S_1  and  O_3
REMARK    2  A    between atoms: S_1  and  O_6
REMARK    3  A    between atoms: O_3  and  C_9
REMARK    4  A    between atoms: O_4  and  C_10
REMARK    5  A    between atoms: O_5  and  C_11
REMARK    6  A    between atoms: C_12  and  C_14
REMARK    7  A    between atoms: C_13  and  C_15
REMARK                            x       y       z     vdW  Elec       q    Type
REMARK                         _______ _______ _______ _____ _____    ______ ____
ROOT
ATOM      1  O   UNL     1     134.824 121.947 136.319  0.00  0.00    +0.000 OA
ATOM      2  C   UNL     1     136.381 121.978 134.425  0.00  0.00    +0.000 C 
ATOM      3  C   UNL     1     136.308 120.445 134.360  0.00  0.00    +0.000 C 
ATOM      4  C   UNL     1     135.943 119.852 135.728  0.00  0.00    +0.000 C 
ATOM      5  C   UNL     1     135.074 122.522 135.030  0.00  0.00    +0.000 C 
ATOM      6  C   UNL     1     134.675 120.521 136.275  0.00  0.00    +0.000 C 
ATOM      7  C   UNL     1     135.116 124.035 135.211  0.00  0.00    +0.000 C 
ATOM      8  C   UNL     1     134.361 120.049 137.691  0.00  0.00    +0.000 C 
ENDROOT
BRANCH   3   9
ATOM      9  O   UNL     1     137.538 119.842 133.934  0.00  0.00    +0.000 OA
ATOM     10  H   UNL     1     137.573 118.919 134.262  0.00  0.00    +0.000 HD
ENDBRANCH   3   9
BRANCH   4  11
ATOM     11  O   UNL     1     135.755 118.441 135.580  0.00  0.00    +0.000 OA
ATOM     12  H   UNL     1     135.116 118.348 134.844  0.00  0.00    +0.000 HD
ENDBRANCH   4  11
BRANCH   2  13
ATOM     13  O   UNL     1     137.487 122.368 135.242  0.00  0.00    +0.000 OA
BRANCH  13  14
ATOM     14  S   UNL     1     138.762 123.073 134.533  0.00  0.00    +0.000 S 
ATOM     15  O   UNL     1     138.385 123.444 133.189  0.00  0.00    +0.000 OA
ATOM     16  O   UNL     1     139.355 124.011 135.462  0.00  0.00    +0.000 OA
BRANCH  14  17
ATOM     17  O   UNL     1     139.774 121.834 134.370  0.00  0.00    +0.000 OA
ATOM     18  H   UNL     1     140.173 121.904 133.478  0.00  0.00    +0.000 HD
ENDBRANCH  14  17
ENDBRANCH  13  14
ENDBRANCH   2  13
TORSDOF 5
ENDMDL
MODEL 9
REMARK VINA RESULT:      -4.9      2.161      4.138
REMARK  Name = 
REMARK  7 active torsions:
REMARK  status: ('A' for Active; 'I' for Inactive)
REMARK    1  A    between atoms: S_1  and  O_3
REMARK    2  A    between atoms: S_1  and  O_6
REMARK    3  A    between atoms: O_3  and  C_9
REMARK    4  A    between atoms: O_4  and  C_10
REMARK    5  A    between atoms: O_5  and  C_11
REMARK    6  A    between atoms: C_12  and  C_14
REMARK    7  A    between atoms: C_13  and  C_15
REMARK                            x       y       z     vdW  Elec       q    Type
REMARK                         _______ _______ _______ _____ _____    ______ ____
ROOT
ATOM      1  O   UNL     1     134.104 121.459 135.094  0.00  0.00    +0.000 OA
ATOM      2  C   UNL     1     135.756 122.930 134.036  0.00  0.00    +0.000 C 
ATOM      3  C   UNL     1     135.399 122.324 132.671  0.00  0.00    +0.000 C 
ATOM      4  C   UNL     1     134.843 120.901 132.828  0.00  0.00    +0.000 C 
ATOM      5  C   UNL     1     134.540 122.819 134.974  0.00  0.00    +0.000 C 
ATOM      6  C   UNL     1     133.692 120.891 133.843  0.00  0.00    +0.000 C 
ATOM      7  C   UNL     1     134.856 123.318 136.379  0.00  0.00    +0.000 C 
ATOM      8  C   UNL     1     133.205 119.473 134.121  0.00  0.00    +0.000 C 
ENDROOT
BRANCH   3   9
ATOM      9  O   UNL     1     136.518 122.260 131.774  0.00  0.00    +0.000 OA
ATOM     10  H   UNL     1     136.556 123.087 131.250  0.00  0.00    +0.000 HD
ENDBRANCH   3   9
BRANCH   4  11
ATOM     11  O   UNL     1     134.401 120.438 131.547  0.00  0.00    +0.000 OA
ATOM     12  H   UNL     1     135.213 120.398 131.001  0.00  0.00    +0.000 HD
ENDBRANCH   4  11
BRANCH   2  13
ATOM     13  O   UNL     1     136.862 122.220 134.599  0.00  0.00    +0.000 OA
BRANCH  13  14
ATOM     14  S   UNL     1     138.289 122.977 134.716  0.00  0.00    +0.000 S 
ATOM     15  O   UNL     1     138.396 123.914 133.622  0.00  0.00    +0.000 OA
ATOM     16  O   UNL     1     138.503 123.362 136.094  0.00  0.00    +0.000 OA
BRANCH  14  17
ATOM     17  O   UNL     1     139.319 121.792 134.370  0.00  0.00    +0.000 OA
ATOM     18  H   UNL     1     138.824 121.124 133.851  0.00  0.00    +0.000 HD
ENDBRANCH  14  17
ENDBRANCH  13  14
ENDBRANCH   2  13
TORSDOF 5
ENDMDL
