MODEL 1
REMARK VINA RESULT:      -7.4      0.000      0.000
REMARK  Name = Fulvestrant.pdbqt.pdb
REMARK  12 active torsions:
REMARK  status: ('A' for Active; 'I' for Inactive)
REMARK    1  A    between atoms: C_6  and  O_40
REMARK    2  A    between atoms: C_8  and  C_19
REMARK    3  A    between atoms: C_18  and  O_42
REMARK    4  A    between atoms: C_20  and  C_21
REMARK    5  A    between atoms: C_22  and  C_23
REMARK    6  A    between atoms: C_23  and  C_24
REMARK    7  A    between atoms: C_25  and  C_26
REMARK    8  A    between atoms: C_27  and  S_28
REMARK    9  A    between atoms: S_28  and  C_30
REMARK   10  A    between atoms: C_30  and  C_31
REMARK   11  A    between atoms: C_32  and  C_33
REMARK   12  A    between atoms: C_33  and  C_36
REMARK                            x       y       z     vdW  Elec       q    Type
REMARK                         _______ _______ _______ _____ _____    ______ ____
ROOT
ATOM      1  C   UNL     1     136.945 122.797 135.024  0.00  0.00    +0.000 C 
ATOM      2  C   UNL     1     137.639 123.427 133.722  0.00  0.00    +0.000 C 
ATOM      3  C   UNL     1     135.675 122.001 134.988  0.00  0.00    +0.000 A 
ATOM      4  C   UNL     1     135.154 121.379 133.675  0.00  0.00    +0.000 A 
ATOM      5  C   UNL     1     137.111 122.676 132.588  0.00  0.00    +0.000 C 
ATOM      6  C   UNL     1     139.142 123.178 133.979  0.00  0.00    +0.000 C 
ATOM      7  C   UNL     1     138.004 122.398 135.902  0.00  0.00    +0.000 C 
ATOM      8  C   UNL     1     134.865 121.756 136.210  0.00  0.00    +0.000 A 
ATOM      9  C   UNL     1     135.946 121.727 132.555  0.00  0.00    +0.000 C 
ATOM     10  C   UNL     1     139.352 122.605 135.262  0.00  0.00    +0.000 C 
ATOM     11  C   UNL     1     137.334 124.946 133.682  0.00  0.00    +0.000 C 
ATOM     12  C   UNL     1     133.922 120.546 133.592  0.00  0.00    +0.000 A 
ATOM     13  C   UNL     1     133.744 120.939 135.923  0.00  0.00    +0.000 A 
ATOM     14  C   UNL     1     133.185 120.316 134.779  0.00  0.00    +0.000 A 
ATOM     15  C   UNL     1     133.464 119.987 132.401  0.00  0.00    +0.000 A 
ATOM     16  C   UNL     1     132.026 119.557 134.793  0.00  0.00    +0.000 A 
ATOM     17  C   UNL     1     132.298 119.218 132.400  0.00  0.00    +0.000 A 
ATOM     18  C   UNL     1     131.594 119.012 133.588  0.00  0.00    +0.000 A 
ENDROOT
BRANCH   8  19
ATOM     19  C   UNL     1     135.088 122.411 137.444  0.00  0.00    +0.000 C 
ATOM     20  C   UNL     1     135.327 123.102 138.791  0.00  0.00    +0.000 C 
BRANCH  20  21
ATOM     21  C   UNL     1     135.559 123.767 140.150  0.00  0.00    +0.000 C 
ATOM     22  C   UNL     1     135.816 124.449 141.498  0.00  0.00    +0.000 C 
BRANCH  22  23
ATOM     23  C   UNL     1     136.099 125.147 142.831  0.00  0.00    +0.000 C 
BRANCH  23  24
ATOM     24  C   UNL     1     136.419 125.844 144.158  0.00  0.00    +0.000 C 
ATOM     25  C   UNL     1     136.760 126.514 145.493  0.00  0.00    +0.000 C 
BRANCH  25  26
ATOM     26  C   UNL     1     137.120 127.155 146.837  0.00  0.00    +0.000 C 
ATOM     27  C   UNL     1     137.516 127.794 148.171  0.00  0.00    +0.000 C 
BRANCH  27  28
ATOM     28  S   UNL     1     138.004 128.523 149.697  0.00  0.00    +0.000 S 
ATOM     29  O   UNL     1     137.893 127.215 150.424  0.00  0.00    +0.000 OA
BRANCH  28  30
ATOM     30  C   UNL     1     139.722 128.281 149.394  0.00  0.00    +0.000 C 
BRANCH  30  31
ATOM     31  C   UNL     1     141.211 128.054 149.113  0.00  0.00    +0.000 C 
ATOM     32  C   UNL     1     142.697 127.810 148.825  0.00  0.00    +0.000 C 
BRANCH  32  33
ATOM     33  C   UNL     1     144.115 127.568 148.547  0.00  0.00    +0.000 C 
ATOM     34  F   UNL     1     144.528 126.540 149.341  0.00  0.00    +0.000 F 
ATOM     35  F   UNL     1     144.813 128.662 148.961  0.00  0.00    +0.000 F 
BRANCH  33  36
ATOM     36  C   UNL     1     144.401 127.266 147.073  0.00  0.00    +0.000 C 
ATOM     37  F   UNL     1     144.819 128.369 146.399  0.00  0.00    +0.000 F 
ATOM     38  F   UNL     1     143.306 126.799 146.424  0.00  0.00    +0.000 F 
ATOM     39  F   UNL     1     145.373 126.328 146.929  0.00  0.00    +0.000 F 
ENDBRANCH  33  36
ENDBRANCH  32  33
ENDBRANCH  30  31
ENDBRANCH  28  30
ENDBRANCH  27  28
ENDBRANCH  25  26
ENDBRANCH  23  24
ENDBRANCH  22  23
ENDBRANCH  20  21
ENDBRANCH   8  19
BRANCH   6  40
ATOM     40  O   UNL     1     140.063 123.057 132.959  0.00  0.00    +0.000 OA
ATOM     41  H   UNL     1     139.710 122.543 132.212  0.00  0.00    +0.000 HD
ENDBRANCH   6  40
BRANCH  18  42
ATOM     42  O   UNL     1     130.459 118.254 133.538  0.00  0.00    +0.000 OA
ATOM     43  H   UNL     1     129.962 118.390 134.364  0.00  0.00    +0.000 HD
ENDBRANCH  18  42
TORSDOF 12
ENDMDL
MODEL 2
REMARK VINA RESULT:      -7.0      4.826      5.782
REMARK  Name = Fulvestrant.pdbqt.pdb
REMARK  12 active torsions:
REMARK  status: ('A' for Active; 'I' for Inactive)
REMARK    1  A    between atoms: C_6  and  O_40
REMARK    2  A    between atoms: C_8  and  C_19
REMARK    3  A    between atoms: C_18  and  O_42
REMARK    4  A    between atoms: C_20  and  C_21
REMARK    5  A    between atoms: C_22  and  C_23
REMARK    6  A    between atoms: C_23  and  C_24
REMARK    7  A    between atoms: C_25  and  C_26
REMARK    8  A    between atoms: C_27  and  S_28
REMARK    9  A    between atoms: S_28  and  C_30
REMARK   10  A    between atoms: C_30  and  C_31
REMARK   11  A    between atoms: C_32  and  C_33
REMARK   12  A    between atoms: C_33  and  C_36
REMARK                            x       y       z     vdW  Elec       q    Type
REMARK                         _______ _______ _______ _____ _____    ______ ____
ROOT
ATOM      1  C   UNL     1     136.839 122.771 135.025  0.00  0.00    +0.000 C 
ATOM      2  C   UNL     1     137.503 123.375 133.695  0.00  0.00    +0.000 C 
ATOM      3  C   UNL     1     135.583 121.953 135.030  0.00  0.00    +0.000 A 
ATOM      4  C   UNL     1     135.055 121.283 133.744  0.00  0.00    +0.000 A 
ATOM      5  C   UNL     1     136.972 122.582 132.591  0.00  0.00    +0.000 C 
ATOM      6  C   UNL     1     139.014 123.159 133.936  0.00  0.00    +0.000 C 
ATOM      7  C   UNL     1     137.918 122.416 135.898  0.00  0.00    +0.000 C 
ATOM      8  C   UNL     1     134.795 121.729 136.270  0.00  0.00    +0.000 A 
ATOM      9  C   UNL     1     135.824 121.612 132.603  0.00  0.00    +0.000 C 
ATOM     10  C   UNL     1     139.252 122.628 135.232  0.00  0.00    +0.000 C 
ATOM     11  C   UNL     1     137.171 124.887 133.616  0.00  0.00    +0.000 C 
ATOM     12  C   UNL     1     133.836 120.427 133.703  0.00  0.00    +0.000 A 
ATOM     13  C   UNL     1     133.685 120.885 136.024  0.00  0.00    +0.000 A 
ATOM     14  C   UNL     1     133.121 120.219 134.907  0.00  0.00    +0.000 A 
ATOM     15  C   UNL     1     133.371 119.825 132.536  0.00  0.00    +0.000 A 
ATOM     16  C   UNL     1     131.976 119.440 134.960  0.00  0.00    +0.000 A 
ATOM     17  C   UNL     1     132.220 119.037 132.574  0.00  0.00    +0.000 A 
ATOM     18  C   UNL     1     131.537 118.853 133.778  0.00  0.00    +0.000 A 
ENDROOT
BRANCH   8  19
ATOM     19  C   UNL     1     135.024 122.424 137.482  0.00  0.00    +0.000 C 
ATOM     20  C   UNL     1     135.283 123.158 138.802  0.00  0.00    +0.000 C 
BRANCH  20  21
ATOM     21  C   UNL     1     135.552 123.868 140.131  0.00  0.00    +0.000 C 
ATOM     22  C   UNL     1     135.824 124.605 141.446  0.00  0.00    +0.000 C 
BRANCH  22  23
ATOM     23  C   UNL     1     136.102 125.372 142.743  0.00  0.00    +0.000 C 
BRANCH  23  24
ATOM     24  C   UNL     1     136.411 126.149 144.027  0.00  0.00    +0.000 C 
ATOM     25  C   UNL     1     136.732 126.953 145.290  0.00  0.00    +0.000 C 
BRANCH  25  26
ATOM     26  C   UNL     1     137.070 127.782 146.534  0.00  0.00    +0.000 C 
ATOM     27  C   UNL     1     137.436 128.588 147.784  0.00  0.00    +0.000 C 
BRANCH  27  28
ATOM     28  S   UNL     1     137.882 129.491 149.228  0.00  0.00    +0.000 S 
ATOM     29  O   UNL     1     137.026 130.658 148.831  0.00  0.00    +0.000 OA
BRANCH  28  30
ATOM     30  C   UNL     1     136.590 128.794 150.201  0.00  0.00    +0.000 C 
BRANCH  30  31
ATOM     31  C   UNL     1     135.473 128.202 151.067  0.00  0.00    +0.000 C 
ATOM     32  C   UNL     1     134.367 127.597 151.940  0.00  0.00    +0.000 C 
BRANCH  32  33
ATOM     33  C   UNL     1     133.316 127.013 152.777  0.00  0.00    +0.000 C 
ATOM     34  F   UNL     1     133.507 127.449 154.054  0.00  0.00    +0.000 F 
ATOM     35  F   UNL     1     133.512 125.665 152.810  0.00  0.00    +0.000 F 
BRANCH  33  36
ATOM     36  C   UNL     1     131.901 127.345 152.294  0.00  0.00    +0.000 C 
ATOM     37  F   UNL     1     131.381 128.419 152.941  0.00  0.00    +0.000 F 
ATOM     38  F   UNL     1     131.040 126.315 152.484  0.00  0.00    +0.000 F 
ATOM     39  F   UNL     1     131.877 127.637 150.968  0.00  0.00    +0.000 F 
ENDBRANCH  33  36
ENDBRANCH  32  33
ENDBRANCH  30  31
ENDBRANCH  28  30
ENDBRANCH  27  28
ENDBRANCH  25  26
ENDBRANCH  23  24
ENDBRANCH  22  23
ENDBRANCH  20  21
ENDBRANCH   8  19
BRANCH   6  40
ATOM     40  O   UNL     1     139.922 123.026 132.907  0.00  0.00    +0.000 OA
ATOM     41  H   UNL     1     140.832 122.926 133.239  0.00  0.00    +0.000 HD
ENDBRANCH   6  40
BRANCH  18  42
ATOM     42  O   UNL     1     130.414 118.074 133.766  0.00  0.00    +0.000 OA
ATOM     43  H   UNL     1     130.149 117.904 134.687  0.00  0.00    +0.000 HD
ENDBRANCH  18  42
TORSDOF 12
ENDMDL
MODEL 3
REMARK VINA RESULT:      -6.7     24.861     29.557
REMARK  Name = Fulvestrant.pdbqt.pdb
REMARK  12 active torsions:
REMARK  status: ('A' for Active; 'I' for Inactive)
REMARK    1  A    between atoms: C_6  and  O_40
REMARK    2  A    between atoms: C_8  and  C_19
REMARK    3  A    between atoms: C_18  and  O_42
REMARK    4  A    between atoms: C_20  and  C_21
REMARK    5  A    between atoms: C_22  and  C_23
REMARK    6  A    between atoms: C_23  and  C_24
REMARK    7  A    between atoms: C_25  and  C_26
REMARK    8  A    between atoms: C_27  and  S_28
REMARK    9  A    between atoms: S_28  and  C_30
REMARK   10  A    between atoms: C_30  and  C_31
REMARK   11  A    between atoms: C_32  and  C_33
REMARK   12  A    between atoms: C_33  and  C_36
REMARK                            x       y       z     vdW  Elec       q    Type
REMARK                         _______ _______ _______ _____ _____    ______ ____
ROOT
ATOM      1  C   UNL     1     142.709 114.698 110.180  0.00  0.00    +0.000 C 
ATOM      2  C   UNL     1     141.196 114.189 110.343  0.00  0.00    +0.000 C 
ATOM      3  C   UNL     1     143.491 114.587 108.907  0.00  0.00    +0.000 A 
ATOM      4  C   UNL     1     142.792 114.357 107.551  0.00  0.00    +0.000 A 
ATOM      5  C   UNL     1     140.656 114.110 108.990  0.00  0.00    +0.000 C 
ATOM      6  C   UNL     1     140.549 115.301 111.199  0.00  0.00    +0.000 C 
ATOM      7  C   UNL     1     142.836 115.874 110.988  0.00  0.00    +0.000 C 
ATOM      8  C   UNL     1     144.973 114.711 108.880  0.00  0.00    +0.000 A 
ATOM      9  C   UNL     1     141.394 114.176 107.683  0.00  0.00    +0.000 C 
ATOM     10  C   UNL     1     141.514 116.265 111.596  0.00  0.00    +0.000 C 
ATOM     11  C   UNL     1     141.204 112.842 111.110  0.00  0.00    +0.000 C 
ATOM     12  C   UNL     1     143.518 114.280 106.252  0.00  0.00    +0.000 A 
ATOM     13  C   UNL     1     145.469 114.620 107.557  0.00  0.00    +0.000 A 
ATOM     14  C   UNL     1     144.927 114.422 106.262  0.00  0.00    +0.000 A 
ATOM     15  C   UNL     1     142.874 114.074 105.034  0.00  0.00    +0.000 A 
ATOM     16  C   UNL     1     145.683 114.362 105.102  0.00  0.00    +0.000 A 
ATOM     17  C   UNL     1     143.623 114.012 103.857  0.00  0.00    +0.000 A 
ATOM     18  C   UNL     1     145.011 114.155 103.901  0.00  0.00    +0.000 A 
ENDROOT
BRANCH   8  19
ATOM     19  C   UNL     1     145.780 114.726 110.043  0.00  0.00    +0.000 C 
ATOM     20  C   UNL     1     146.660 114.762 111.297  0.00  0.00    +0.000 C 
BRANCH  20  21
ATOM     21  C   UNL     1     147.548 114.825 112.542  0.00  0.00    +0.000 C 
ATOM     22  C   UNL     1     148.410 114.886 113.807  0.00  0.00    +0.000 C 
BRANCH  22  23
ATOM     23  C   UNL     1     149.244 114.947 115.090  0.00  0.00    +0.000 C 
BRANCH  23  24
ATOM     24  C   UNL     1     150.058 115.035 116.385  0.00  0.00    +0.000 C 
ATOM     25  C   UNL     1     150.893 115.148 117.664  0.00  0.00    +0.000 C 
BRANCH  25  26
ATOM     26  C   UNL     1     151.752 115.280 118.926  0.00  0.00    +0.000 C 
ATOM     27  C   UNL     1     152.632 115.386 120.175  0.00  0.00    +0.000 C 
BRANCH  27  28
ATOM     28  S   UNL     1     153.662 115.479 121.600  0.00  0.00    +0.000 S 
ATOM     29  O   UNL     1     154.819 115.999 120.800  0.00  0.00    +0.000 OA
BRANCH  28  30
ATOM     30  C   UNL     1     153.135 117.107 122.015  0.00  0.00    +0.000 C 
BRANCH  30  31
ATOM     31  C   UNL     1     152.658 118.522 122.361  0.00  0.00    +0.000 C 
ATOM     32  C   UNL     1     152.191 119.936 122.723  0.00  0.00    +0.000 C 
BRANCH  32  33
ATOM     33  C   UNL     1     151.748 121.287 123.078  0.00  0.00    +0.000 C 
ATOM     34  F   UNL     1     150.628 121.174 123.846  0.00  0.00    +0.000 F 
ATOM     35  F   UNL     1     151.354 121.910 121.932  0.00  0.00    +0.000 F 
BRANCH  33  36
ATOM     36  C   UNL     1     152.822 122.107 123.800  0.00  0.00    +0.000 C 
ATOM     37  F   UNL     1     154.077 121.697 123.479  0.00  0.00    +0.000 F 
ATOM     38  F   UNL     1     152.713 122.020 125.149  0.00  0.00    +0.000 F 
ATOM     39  F   UNL     1     152.748 123.425 123.484  0.00  0.00    +0.000 F 
ENDBRANCH  33  36
ENDBRANCH  32  33
ENDBRANCH  30  31
ENDBRANCH  28  30
ENDBRANCH  27  28
ENDBRANCH  25  26
ENDBRANCH  23  24
ENDBRANCH  22  23
ENDBRANCH  20  21
ENDBRANCH   8  19
BRANCH   6  40
ATOM     40  O   UNL     1     139.200 115.584 111.159  0.00  0.00    +0.000 OA
ATOM     41  H   UNL     1     138.688 114.849 110.775  0.00  0.00    +0.000 HD
ENDBRANCH   6  40
BRANCH  18  42
ATOM     42  O   UNL     1     145.701 114.086 102.724  0.00  0.00    +0.000 OA
ATOM     43  H   UNL     1     145.192 113.537 102.101  0.00  0.00    +0.000 HD
ENDBRANCH  18  42
TORSDOF 12
ENDMDL
MODEL 4
REMARK VINA RESULT:      -6.5     27.862     32.536
REMARK  Name = Fulvestrant.pdbqt.pdb
REMARK  12 active torsions:
REMARK  status: ('A' for Active; 'I' for Inactive)
REMARK    1  A    between atoms: C_6  and  O_40
REMARK    2  A    between atoms: C_8  and  C_19
REMARK    3  A    between atoms: C_18  and  O_42
REMARK    4  A    between atoms: C_20  and  C_21
REMARK    5  A    between atoms: C_22  and  C_23
REMARK    6  A    between atoms: C_23  and  C_24
REMARK    7  A    between atoms: C_25  and  C_26
REMARK    8  A    between atoms: C_27  and  S_28
REMARK    9  A    between atoms: S_28  and  C_30
REMARK   10  A    between atoms: C_30  and  C_31
REMARK   11  A    between atoms: C_32  and  C_33
REMARK   12  A    between atoms: C_33  and  C_36
REMARK                            x       y       z     vdW  Elec       q    Type
REMARK                         _______ _______ _______ _____ _____    ______ ____
ROOT
ATOM      1  C   UNL     1     146.236 114.603 106.374  0.00  0.00    +0.000 C 
ATOM      2  C   UNL     1     144.761 114.326 105.807  0.00  0.00    +0.000 C 
ATOM      3  C   UNL     1     147.488 114.376 105.583  0.00  0.00    +0.000 A 
ATOM      4  C   UNL     1     147.456 114.252 104.046  0.00  0.00    +0.000 A 
ATOM      5  C   UNL     1     144.888 114.327 104.353  0.00  0.00    +0.000 C 
ATOM      6  C   UNL     1     143.951 115.522 106.354  0.00  0.00    +0.000 C 
ATOM      7  C   UNL     1     146.137 115.748 107.230  0.00  0.00    +0.000 C 
ATOM      8  C   UNL     1     148.822 114.277 106.233  0.00  0.00    +0.000 A 
ATOM      9  C   UNL     1     146.141 114.282 103.524  0.00  0.00    +0.000 C 
ATOM     10  C   UNL     1     144.749 116.332 107.206  0.00  0.00    +0.000 C 
ATOM     11  C   UNL     1     144.241 112.993 106.403  0.00  0.00    +0.000 C 
ATOM     12  C   UNL     1     148.676 114.067 103.210  0.00  0.00    +0.000 A 
ATOM     13  C   UNL     1     149.847 114.113 105.270  0.00  0.00    +0.000 A 
ATOM     14  C   UNL     1     149.931 113.997 103.859  0.00  0.00    +0.000 A 
ATOM     15  C   UNL     1     148.634 113.959 101.821  0.00  0.00    +0.000 A 
ATOM     16  C   UNL     1     151.116 113.824 103.161  0.00  0.00    +0.000 A 
ATOM     17  C   UNL     1     149.819 113.785 101.104  0.00  0.00    +0.000 A 
ATOM     18  C   UNL     1     151.041 113.719 101.776  0.00  0.00    +0.000 A 
ENDROOT
BRANCH   8  19
ATOM     19  C   UNL     1     149.008 114.172 107.632  0.00  0.00    +0.000 C 
ATOM     20  C   UNL     1     149.219 114.077 109.147  0.00  0.00    +0.000 C 
BRANCH  20  21
ATOM     21  C   UNL     1     149.446 114.007 110.659  0.00  0.00    +0.000 C 
ATOM     22  C   UNL     1     149.666 113.968 112.175  0.00  0.00    +0.000 C 
BRANCH  22  23
ATOM     23  C   UNL     1     149.882 113.963 113.691  0.00  0.00    +0.000 C 
BRANCH  23  24
ATOM     24  C   UNL     1     150.129 113.978 115.203  0.00  0.00    +0.000 C 
ATOM     25  C   UNL     1     150.353 113.964 116.718  0.00  0.00    +0.000 C 
BRANCH  25  26
ATOM     26  C   UNL     1     150.552 113.926 118.237  0.00  0.00    +0.000 C 
ATOM     27  C   UNL     1     150.715 113.897 119.760  0.00  0.00    +0.000 C 
BRANCH  27  28
ATOM     28  S   UNL     1     150.870 113.876 121.513  0.00  0.00    +0.000 S 
ATOM     29  O   UNL     1     152.201 113.187 121.444  0.00  0.00    +0.000 OA
BRANCH  28  30
ATOM     30  C   UNL     1     151.625 115.465 121.580  0.00  0.00    +0.000 C 
BRANCH  30  31
ATOM     31  C   UNL     1     152.299 116.839 121.651  0.00  0.00    +0.000 C 
ATOM     32  C   UNL     1     152.957 118.222 121.719  0.00  0.00    +0.000 C 
BRANCH  32  33
ATOM     33  C   UNL     1     153.578 119.548 121.781  0.00  0.00    +0.000 C 
ATOM     34  F   UNL     1     153.671 120.027 120.508  0.00  0.00    +0.000 F 
ATOM     35  F   UNL     1     154.860 119.388 122.213  0.00  0.00    +0.000 F 
BRANCH  33  36
ATOM     36  C   UNL     1     152.820 120.531 122.678  0.00  0.00    +0.000 C 
ATOM     37  F   UNL     1     152.236 119.909 123.735  0.00  0.00    +0.000 F 
ATOM     38  F   UNL     1     151.836 121.181 122.010  0.00  0.00    +0.000 F 
ATOM     39  F   UNL     1     153.642 121.483 123.190  0.00  0.00    +0.000 F 
ENDBRANCH  33  36
ENDBRANCH  32  33
ENDBRANCH  30  31
ENDBRANCH  28  30
ENDBRANCH  27  28
ENDBRANCH  25  26
ENDBRANCH  23  24
ENDBRANCH  22  23
ENDBRANCH  20  21
ENDBRANCH   8  19
BRANCH   6  40
ATOM     40  O   UNL     1     142.818 116.003 105.731  0.00  0.00    +0.000 OA
ATOM     41  H   UNL     1     142.259 116.514 106.343  0.00  0.00    +0.000 HD
ENDBRANCH   6  40
BRANCH  18  42
ATOM     42  O   UNL     1     152.174 113.547 101.032  0.00  0.00    +0.000 OA
ATOM     43  H   UNL     1     152.318 112.592 100.908  0.00  0.00    +0.000 HD
ENDBRANCH  18  42
TORSDOF 12
ENDMDL
MODEL 5
REMARK VINA RESULT:      -6.3      6.180      8.494
REMARK  Name = Fulvestrant.pdbqt.pdb
REMARK  12 active torsions:
REMARK  status: ('A' for Active; 'I' for Inactive)
REMARK    1  A    between atoms: C_6  and  O_40
REMARK    2  A    between atoms: C_8  and  C_19
REMARK    3  A    between atoms: C_18  and  O_42
REMARK    4  A    between atoms: C_20  and  C_21
REMARK    5  A    between atoms: C_22  and  C_23
REMARK    6  A    between atoms: C_23  and  C_24
REMARK    7  A    between atoms: C_25  and  C_26
REMARK    8  A    between atoms: C_27  and  S_28
REMARK    9  A    between atoms: S_28  and  C_30
REMARK   10  A    between atoms: C_30  and  C_31
REMARK   11  A    between atoms: C_32  and  C_33
REMARK   12  A    between atoms: C_33  and  C_36
REMARK                            x       y       z     vdW  Elec       q    Type
REMARK                         _______ _______ _______ _____ _____    ______ ____
ROOT
ATOM      1  C   UNL     1     133.355 121.938 140.728  0.00  0.00    +0.000 C 
ATOM      2  C   UNL     1     132.437 120.639 140.941  0.00  0.00    +0.000 C 
ATOM      3  C   UNL     1     134.433 122.034 139.692  0.00  0.00    +0.000 A 
ATOM      4  C   UNL     1     134.481 121.068 138.489  0.00  0.00    +0.000 A 
ATOM      5  C   UNL     1     132.520 119.886 139.695  0.00  0.00    +0.000 C 
ATOM      6  C   UNL     1     131.040 121.244 141.202  0.00  0.00    +0.000 C 
ATOM      7  C   UNL     1     132.525 123.075 140.992  0.00  0.00    +0.000 C 
ATOM      8  C   UNL     1     135.498 123.070 139.757  0.00  0.00    +0.000 A 
ATOM      9  C   UNL     1     133.478 120.072 138.551  0.00  0.00    +0.000 C 
ATOM     10  C   UNL     1     131.100 122.663 141.260  0.00  0.00    +0.000 C 
ATOM     11  C   UNL     1     132.944 119.872 142.189  0.00  0.00    +0.000 C 
ATOM     12  C   UNL     1     135.506 121.147 137.411  0.00  0.00    +0.000 A 
ATOM     13  C   UNL     1     136.363 122.983 138.640  0.00  0.00    +0.000 A 
ATOM     14  C   UNL     1     136.493 122.157 137.495  0.00  0.00    +0.000 A 
ATOM     15  C   UNL     1     135.536 120.270 136.329  0.00  0.00    +0.000 A 
ATOM     16  C   UNL     1     137.485 122.302 136.538  0.00  0.00    +0.000 A 
ATOM     17  C   UNL     1     136.529 120.403 135.357  0.00  0.00    +0.000 A 
ATOM     18  C   UNL     1     137.489 121.411 135.470  0.00  0.00    +0.000 A 
ENDROOT
BRANCH   8  19
ATOM     19  C   UNL     1     135.717 123.900 140.883  0.00  0.00    +0.000 C 
ATOM     20  C   UNL     1     135.972 124.805 142.092  0.00  0.00    +0.000 C 
BRANCH  20  21
ATOM     21  C   UNL     1     136.254 125.718 143.289  0.00  0.00    +0.000 C 
ATOM     22  C   UNL     1     136.520 126.609 144.506  0.00  0.00    +0.000 C 
BRANCH  22  23
ATOM     23  C   UNL     1     136.768 127.480 145.742  0.00  0.00    +0.000 C 
BRANCH  23  24
ATOM     24  C   UNL     1     136.982 128.363 146.975  0.00  0.00    +0.000 C 
ATOM     25  C   UNL     1     137.217 129.220 148.222  0.00  0.00    +0.000 C 
BRANCH  25  26
ATOM     26  C   UNL     1     137.469 130.051 149.485  0.00  0.00    +0.000 C 
ATOM     27  C   UNL     1     137.685 130.889 150.749  0.00  0.00    +0.000 C 
BRANCH  27  28
ATOM     28  S   UNL     1     137.900 131.861 152.201  0.00  0.00    +0.000 S 
ATOM     29  O   UNL     1     139.240 132.354 151.742  0.00  0.00    +0.000 OA
BRANCH  28  30
ATOM     30  C   UNL     1     137.081 133.264 151.521  0.00  0.00    +0.000 C 
BRANCH  30  31
ATOM     31  C   UNL     1     136.386 134.499 150.936  0.00  0.00    +0.000 C 
ATOM     32  C   UNL     1     135.688 135.724 150.336  0.00  0.00    +0.000 C 
BRANCH  32  33
ATOM     33  C   UNL     1     135.020 136.891 149.753  0.00  0.00    +0.000 C 
ATOM     34  F   UNL     1     135.930 137.558 148.990  0.00  0.00    +0.000 F 
ATOM     35  F   UNL     1     134.695 137.735 150.772  0.00  0.00    +0.000 F 
BRANCH  33  36
ATOM     36  C   UNL     1     133.779 136.530 148.930  0.00  0.00    +0.000 C 
ATOM     37  F   UNL     1     132.973 137.604 148.726  0.00  0.00    +0.000 F 
ATOM     38  F   UNL     1     133.024 135.579 149.532  0.00  0.00    +0.000 F 
ATOM     39  F   UNL     1     134.110 136.051 147.703  0.00  0.00    +0.000 F 
ENDBRANCH  33  36
ENDBRANCH  32  33
ENDBRANCH  30  31
ENDBRANCH  28  30
ENDBRANCH  27  28
ENDBRANCH  25  26
ENDBRANCH  23  24
ENDBRANCH  22  23
ENDBRANCH  20  21
ENDBRANCH   8  19
BRANCH   6  40
ATOM     40  O   UNL     1     129.870 120.569 140.922  0.00  0.00    +0.000 OA
ATOM     41  H   UNL     1     129.808 119.734 141.420  0.00  0.00    +0.000 HD
ENDBRANCH   6  40
BRANCH  18  42
ATOM     42  O   UNL     1     138.442 121.502 134.495  0.00  0.00    +0.000 OA
ATOM     43  H   UNL     1     139.153 122.085 134.814  0.00  0.00    +0.000 HD
ENDBRANCH  18  42
TORSDOF 12
ENDMDL
MODEL 6
REMARK VINA RESULT:      -6.2     28.392     34.069
REMARK  Name = Fulvestrant.pdbqt.pdb
REMARK  12 active torsions:
REMARK  status: ('A' for Active; 'I' for Inactive)
REMARK    1  A    between atoms: C_6  and  O_40
REMARK    2  A    between atoms: C_8  and  C_19
REMARK    3  A    between atoms: C_18  and  O_42
REMARK    4  A    between atoms: C_20  and  C_21
REMARK    5  A    between atoms: C_22  and  C_23
REMARK    6  A    between atoms: C_23  and  C_24
REMARK    7  A    between atoms: C_25  and  C_26
REMARK    8  A    between atoms: C_27  and  S_28
REMARK    9  A    between atoms: S_28  and  C_30
REMARK   10  A    between atoms: C_30  and  C_31
REMARK   11  A    between atoms: C_32  and  C_33
REMARK   12  A    between atoms: C_33  and  C_36
REMARK                            x       y       z     vdW  Elec       q    Type
REMARK                         _______ _______ _______ _____ _____    ______ ____
ROOT
ATOM      1  C   UNL     1     144.568 114.102 106.544  0.00  0.00    +0.000 C 
ATOM      2  C   UNL     1     144.449 113.134 105.271  0.00  0.00    +0.000 C 
ATOM      3  C   UNL     1     145.792 114.201 107.404  0.00  0.00    +0.000 A 
ATOM      4  C   UNL     1     147.164 113.698 106.909  0.00  0.00    +0.000 A 
ATOM      5  C   UNL     1     145.820 112.825 104.878  0.00  0.00    +0.000 C 
ATOM      6  C   UNL     1     143.696 114.007 104.243  0.00  0.00    +0.000 C 
ATOM      7  C   UNL     1     143.828 115.288 106.228  0.00  0.00    +0.000 C 
ATOM      8  C   UNL     1     145.753 114.802 108.763  0.00  0.00    +0.000 A 
ATOM      9  C   UNL     1     147.091 113.075 105.640  0.00  0.00    +0.000 C 
ATOM     10  C   UNL     1     143.311 115.249 104.814  0.00  0.00    +0.000 C 
ATOM     11  C   UNL     1     143.602 111.897 105.665  0.00  0.00    +0.000 C 
ATOM     12  C   UNL     1     148.418 113.810 107.706  0.00  0.00    +0.000 A 
ATOM     13  C   UNL     1     147.041 114.824 109.349  0.00  0.00    +0.000 A 
ATOM     14  C   UNL     1     148.348 114.405 108.988  0.00  0.00    +0.000 A 
ATOM     15  C   UNL     1     149.652 113.354 107.247  0.00  0.00    +0.000 A 
ATOM     16  C   UNL     1     149.462 114.548 109.799  0.00  0.00    +0.000 A 
ATOM     17  C   UNL     1     150.784 113.492 108.051  0.00  0.00    +0.000 A 
ATOM     18  C   UNL     1     150.680 114.082 109.312  0.00  0.00    +0.000 A 
ENDROOT
BRANCH   8  19
ATOM     19  C   UNL     1     144.554 115.128 109.442  0.00  0.00    +0.000 C 
ATOM     20  C   UNL     1     143.247 115.467 110.165  0.00  0.00    +0.000 C 
BRANCH  20  21
ATOM     21  C   UNL     1     141.926 115.788 110.870  0.00  0.00    +0.000 C 
ATOM     22  C   UNL     1     140.597 116.129 111.551  0.00  0.00    +0.000 C 
BRANCH  22  23
ATOM     23  C   UNL     1     139.263 116.494 112.208  0.00  0.00    +0.000 C 
BRANCH  23  24
ATOM     24  C   UNL     1     137.922 116.825 112.873  0.00  0.00    +0.000 C 
ATOM     25  C   UNL     1     136.568 117.159 113.506  0.00  0.00    +0.000 C 
BRANCH  25  26
ATOM     26  C   UNL     1     135.200 117.499 114.106  0.00  0.00    +0.000 C 
ATOM     27  C   UNL     1     133.829 117.867 114.682  0.00  0.00    +0.000 C 
BRANCH  27  28
ATOM     28  S   UNL     1     132.252 118.317 115.321  0.00  0.00    +0.000 S 
ATOM     29  O   UNL     1     132.751 119.661 115.763  0.00  0.00    +0.000 OA
BRANCH  28  30
ATOM     30  C   UNL     1     131.685 118.962 113.784  0.00  0.00    +0.000 C 
BRANCH  30  31
ATOM     31  C   UNL     1     131.191 119.546 112.456  0.00  0.00    +0.000 C 
ATOM     32  C   UNL     1     130.700 120.113 111.119  0.00  0.00    +0.000 C 
BRANCH  32  33
ATOM     33  C   UNL     1     130.233 120.647 109.837  0.00  0.00    +0.000 C 
ATOM     34  F   UNL     1     128.910 120.950 109.965  0.00  0.00    +0.000 F 
ATOM     35  F   UNL     1     130.297 119.642 108.919  0.00  0.00    +0.000 F 
BRANCH  33  36
ATOM     36  C   UNL     1     131.028 121.867 109.363  0.00  0.00    +0.000 C 
ATOM     37  F   UNL     1     132.287 121.883 109.871  0.00  0.00    +0.000 F 
ATOM     38  F   UNL     1     130.441 123.034 109.728  0.00  0.00    +0.000 F 
ATOM     39  F   UNL     1     131.151 121.895 108.011  0.00  0.00    +0.000 F 
ENDBRANCH  33  36
ENDBRANCH  32  33
ENDBRANCH  30  31
ENDBRANCH  28  30
ENDBRANCH  27  28
ENDBRANCH  25  26
ENDBRANCH  23  24
ENDBRANCH  22  23
ENDBRANCH  20  21
ENDBRANCH   8  19
BRANCH   6  40
ATOM     40  O   UNL     1     143.820 113.830 102.881  0.00  0.00    +0.000 OA
ATOM     41  H   UNL     1     144.665 113.406 102.647  0.00  0.00    +0.000 HD
ENDBRANCH   6  40
BRANCH  18  42
ATOM     42  O   UNL     1     151.815 114.194 110.064  0.00  0.00    +0.000 OA
ATOM     43  H   UNL     1     152.301 113.352 110.015  0.00  0.00    +0.000 HD
ENDBRANCH  18  42
TORSDOF 12
ENDMDL
MODEL 7
REMARK VINA RESULT:      -6.2     14.484     20.093
REMARK  Name = Fulvestrant.pdbqt.pdb
REMARK  12 active torsions:
REMARK  status: ('A' for Active; 'I' for Inactive)
REMARK    1  A    between atoms: C_6  and  O_40
REMARK    2  A    between atoms: C_8  and  C_19
REMARK    3  A    between atoms: C_18  and  O_42
REMARK    4  A    between atoms: C_20  and  C_21
REMARK    5  A    between atoms: C_22  and  C_23
REMARK    6  A    between atoms: C_23  and  C_24
REMARK    7  A    between atoms: C_25  and  C_26
REMARK    8  A    between atoms: C_27  and  S_28
REMARK    9  A    between atoms: S_28  and  C_30
REMARK   10  A    between atoms: C_30  and  C_31
REMARK   11  A    between atoms: C_32  and  C_33
REMARK   12  A    between atoms: C_33  and  C_36
REMARK                            x       y       z     vdW  Elec       q    Type
REMARK                         _______ _______ _______ _____ _____    ______ ____
ROOT
ATOM      1  C   UNL     1     138.242 137.087 139.177  0.00  0.00    +0.000 C 
ATOM      2  C   UNL     1     137.735 137.221 140.693  0.00  0.00    +0.000 C 
ATOM      3  C   UNL     1     139.212 138.033 138.536  0.00  0.00    +0.000 A 
ATOM      4  C   UNL     1     140.108 138.961 139.383  0.00  0.00    +0.000 A 
ATOM      5  C   UNL     1     138.729 138.046 141.372  0.00  0.00    +0.000 C 
ATOM      6  C   UNL     1     137.716 135.756 141.181  0.00  0.00    +0.000 C 
ATOM      7  C   UNL     1     138.334 135.685 138.898  0.00  0.00    +0.000 C 
ATOM      8  C   UNL     1     139.374 138.115 137.061  0.00  0.00    +0.000 A 
ATOM      9  C   UNL     1     139.832 138.870 140.768  0.00  0.00    +0.000 C 
ATOM     10  C   UNL     1     138.037 134.862 140.125  0.00  0.00    +0.000 C 
ATOM     11  C   UNL     1     136.304 137.817 140.687  0.00  0.00    +0.000 C 
ATOM     12  C   UNL     1     141.116 139.889 138.799  0.00  0.00    +0.000 A 
ATOM     13  C   UNL     1     140.382 139.044 136.709  0.00  0.00    +0.000 A 
ATOM     14  C   UNL     1     141.257 139.928 137.391  0.00  0.00    +0.000 A 
ATOM     15  C   UNL     1     141.921 140.720 139.575  0.00  0.00    +0.000 A 
ATOM     16  C   UNL     1     142.167 140.762 136.762  0.00  0.00    +0.000 A 
ATOM     17  C   UNL     1     142.843 141.566 138.956  0.00  0.00    +0.000 A 
ATOM     18  C   UNL     1     142.957 141.580 137.564  0.00  0.00    +0.000 A 
ENDROOT
BRANCH   8  19
ATOM     19  C   UNL     1     138.502 137.486 136.140  0.00  0.00    +0.000 C 
ATOM     20  C   UNL     1     137.576 136.799 135.132  0.00  0.00    +0.000 C 
BRANCH  20  21
ATOM     21  C   UNL     1     136.673 136.104 134.108  0.00  0.00    +0.000 C 
ATOM     22  C   UNL     1     135.745 135.421 133.099  0.00  0.00    +0.000 C 
BRANCH  22  23
ATOM     23  C   UNL     1     134.790 134.749 132.108  0.00  0.00    +0.000 C 
BRANCH  23  24
ATOM     24  C   UNL     1     133.806 134.085 131.139  0.00  0.00    +0.000 C 
ATOM     25  C   UNL     1     132.803 133.413 130.197  0.00  0.00    +0.000 C 
BRANCH  25  26
ATOM     26  C   UNL     1     131.779 132.729 129.284  0.00  0.00    +0.000 C 
ATOM     27  C   UNL     1     130.745 132.080 128.359  0.00  0.00    +0.000 C 
BRANCH  27  28
ATOM     28  S   UNL     1     129.543 131.366 127.290  0.00  0.00    +0.000 S 
ATOM     29  O   UNL     1     130.551 130.430 126.689  0.00  0.00    +0.000 OA
BRANCH  28  30
ATOM     30  C   UNL     1     129.039 130.163 128.473  0.00  0.00    +0.000 C 
BRANCH  30  31
ATOM     31  C   UNL     1     128.579 129.113 129.491  0.00  0.00    +0.000 C 
ATOM     32  C   UNL     1     128.101 128.065 130.501  0.00  0.00    +0.000 C 
BRANCH  32  33
ATOM     33  C   UNL     1     127.635 127.064 131.465  0.00  0.00    +0.000 C 
ATOM     34  F   UNL     1     126.436 126.587 131.027  0.00  0.00    +0.000 F 
ATOM     35  F   UNL     1     127.376 127.705 132.639  0.00  0.00    +0.000 F 
BRANCH  33  36
ATOM     36  C   UNL     1     128.630 125.920 131.679  0.00  0.00    +0.000 C 
ATOM     37  F   UNL     1     129.491 126.177 132.698  0.00  0.00    +0.000 F 
ATOM     38  F   UNL     1     129.384 125.683 130.577  0.00  0.00    +0.000 F 
ATOM     39  F   UNL     1     128.002 124.755 131.982  0.00  0.00    +0.000 F 
ENDBRANCH  33  36
ENDBRANCH  32  33
ENDBRANCH  30  31
ENDBRANCH  28  30
ENDBRANCH  27  28
ENDBRANCH  25  26
ENDBRANCH  23  24
ENDBRANCH  22  23
ENDBRANCH  20  21
ENDBRANCH   8  19
BRANCH   6  40
ATOM     40  O   UNL     1     137.861 135.409 142.508  0.00  0.00    +0.000 OA
ATOM     41  H   UNL     1     138.536 134.718 142.629  0.00  0.00    +0.000 HD
ENDBRANCH   6  40
BRANCH  18  42
ATOM     42  O   UNL     1     143.872 142.425 137.003  0.00  0.00    +0.000 OA
ATOM     43  H   UNL     1     144.662 142.443 137.571  0.00  0.00    +0.000 HD
ENDBRANCH  18  42
TORSDOF 12
ENDMDL
MODEL 8
REMARK VINA RESULT:      -6.1     42.967     49.055
REMARK  Name = Fulvestrant.pdbqt.pdb
REMARK  12 active torsions:
REMARK  status: ('A' for Active; 'I' for Inactive)
REMARK    1  A    between atoms: C_6  and  O_40
REMARK    2  A    between atoms: C_8  and  C_19
REMARK    3  A    between atoms: C_18  and  O_42
REMARK    4  A    between atoms: C_20  and  C_21
REMARK    5  A    between atoms: C_22  and  C_23
REMARK    6  A    between atoms: C_23  and  C_24
REMARK    7  A    between atoms: C_25  and  C_26
REMARK    8  A    between atoms: C_27  and  S_28
REMARK    9  A    between atoms: S_28  and  C_30
REMARK   10  A    between atoms: C_30  and  C_31
REMARK   11  A    between atoms: C_32  and  C_33
REMARK   12  A    between atoms: C_33  and  C_36
REMARK                            x       y       z     vdW  Elec       q    Type
REMARK                         _______ _______ _______ _____ _____    ______ ____
ROOT
ATOM      1  C   UNL     1     143.485 124.729  98.753  0.00  0.00    +0.000 C 
ATOM      2  C   UNL     1     141.933 125.110  98.899  0.00  0.00    +0.000 C 
ATOM      3  C   UNL     1     144.531 125.101  99.759  0.00  0.00    +0.000 A 
ATOM      4  C   UNL     1     144.152 125.515 101.197  0.00  0.00    +0.000 A 
ATOM      5  C   UNL     1     141.723 125.384 100.316  0.00  0.00    +0.000 C 
ATOM      6  C   UNL     1     141.217 123.832  98.407  0.00  0.00    +0.000 C 
ATOM      7  C   UNL     1     143.534 123.443  98.124  0.00  0.00    +0.000 C 
ATOM      8  C   UNL     1     145.981 125.074  99.434  0.00  0.00    +0.000 A 
ATOM      9  C   UNL     1     142.753 125.585 101.393  0.00  0.00    +0.000 C 
ATOM     10  C   UNL     1     142.152 122.875  97.930  0.00  0.00    +0.000 C 
ATOM     11  C   UNL     1     141.625 126.306  97.962  0.00  0.00    +0.000 C 
ATOM     12  C   UNL     1     145.154 125.853 102.247  0.00  0.00    +0.000 A 
ATOM     13  C   UNL     1     146.764 125.417 100.562  0.00  0.00    +0.000 A 
ATOM     14  C   UNL     1     146.527 125.798 101.907  0.00  0.00    +0.000 A 
ATOM     15  C   UNL     1     144.799 126.223 103.542  0.00  0.00    +0.000 A 
ATOM     16  C   UNL     1     147.526 126.099 102.819  0.00  0.00    +0.000 A 
ATOM     17  C   UNL     1     145.794 126.528 104.472  0.00  0.00    +0.000 A 
ATOM     18  C   UNL     1     147.140 126.465 104.105  0.00  0.00    +0.000 A 
ENDROOT
BRANCH   8  19
ATOM     19  C   UNL     1     146.488 124.912  98.122  0.00  0.00    +0.000 C 
ATOM     20  C   UNL     1     147.044 124.757  96.703  0.00  0.00    +0.000 C 
BRANCH  20  21
ATOM     21  C   UNL     1     147.607 124.630  95.285  0.00  0.00    +0.000 C 
ATOM     22  C   UNL     1     148.152 124.527  93.857  0.00  0.00    +0.000 C 
BRANCH  22  23
ATOM     23  C   UNL     1     148.675 124.449  92.419  0.00  0.00    +0.000 C 
BRANCH  23  24
ATOM     24  C   UNL     1     149.221 124.397  90.989  0.00  0.00    +0.000 C 
ATOM     25  C   UNL     1     149.747 124.373  89.550  0.00  0.00    +0.000 C 
BRANCH  25  26
ATOM     26  C   UNL     1     150.250 124.375  88.103  0.00  0.00    +0.000 C 
ATOM     27  C   UNL     1     150.777 124.405  86.665  0.00  0.00    +0.000 C 
BRANCH  27  28
ATOM     28  S   UNL     1     151.402 124.467  85.020  0.00  0.00    +0.000 S 
ATOM     29  O   UNL     1     150.028 124.649  84.445  0.00  0.00    +0.000 OA
BRANCH  28  30
ATOM     30  C   UNL     1     151.680 126.205  85.070  0.00  0.00    +0.000 C 
BRANCH  30  31
ATOM     31  C   UNL     1     151.901 127.721  85.102  0.00  0.00    +0.000 C 
ATOM     32  C   UNL     1     152.103 129.240  85.129  0.00  0.00    +0.000 C 
BRANCH  32  33
ATOM     33  C   UNL     1     152.289 130.694  85.150  0.00  0.00    +0.000 C 
ATOM     34  F   UNL     1     151.111 131.262  85.535  0.00  0.00    +0.000 F 
ATOM     35  F   UNL     1     152.501 131.105  83.869  0.00  0.00    +0.000 F 
BRANCH  33  36
ATOM     36  C   UNL     1     153.434 131.145  86.063  0.00  0.00    +0.000 C 
ATOM     37  F   UNL     1     153.137 130.972  87.376  0.00  0.00    +0.000 F 
ATOM     38  F   UNL     1     153.734 132.457  85.896  0.00  0.00    +0.000 F 
ATOM     39  F   UNL     1     154.574 130.448  85.824  0.00  0.00    +0.000 F 
ENDBRANCH  33  36
ENDBRANCH  32  33
ENDBRANCH  30  31
ENDBRANCH  28  30
ENDBRANCH  27  28
ENDBRANCH  25  26
ENDBRANCH  23  24
ENDBRANCH  22  23
ENDBRANCH  20  21
ENDBRANCH   8  19
BRANCH   6  40
ATOM     40  O   UNL     1     139.951 123.479  98.824  0.00  0.00    +0.000 OA
ATOM     41  H   UNL     1     139.425 124.257  99.083  0.00  0.00    +0.000 HD
ENDBRANCH   6  40
BRANCH  18  42
ATOM     42  O   UNL     1     148.078 126.774 105.049  0.00  0.00    +0.000 OA
ATOM     43  H   UNL     1     148.578 127.551 104.742  0.00  0.00    +0.000 HD
ENDBRANCH  18  42
TORSDOF 12
ENDMDL
MODEL 9
REMARK VINA RESULT:      -6.0     41.067     47.323
REMARK  Name = Fulvestrant.pdbqt.pdb
REMARK  12 active torsions:
REMARK  status: ('A' for Active; 'I' for Inactive)
REMARK    1  A    between atoms: C_6  and  O_40
REMARK    2  A    between atoms: C_8  and  C_19
REMARK    3  A    between atoms: C_18  and  O_42
REMARK    4  A    between atoms: C_20  and  C_21
REMARK    5  A    between atoms: C_22  and  C_23
REMARK    6  A    between atoms: C_23  and  C_24
REMARK    7  A    between atoms: C_25  and  C_26
REMARK    8  A    between atoms: C_27  and  S_28
REMARK    9  A    between atoms: S_28  and  C_30
REMARK   10  A    between atoms: C_30  and  C_31
REMARK   11  A    between atoms: C_32  and  C_33
REMARK   12  A    between atoms: C_33  and  C_36
REMARK                            x       y       z     vdW  Elec       q    Type
REMARK                         _______ _______ _______ _____ _____    ______ ____
ROOT
ATOM      1  C   UNL     1     146.048 128.160  98.499  0.00  0.00    +0.000 C 
ATOM      2  C   UNL     1     147.627 127.949  98.311  0.00  0.00    +0.000 C 
ATOM      3  C   UNL     1     145.269 127.622  99.661  0.00  0.00    +0.000 A 
ATOM      4  C   UNL     1     145.969 127.180 100.963  0.00  0.00    +0.000 A 
ATOM      5  C   UNL     1     148.145 127.627  99.636  0.00  0.00    +0.000 C 
ATOM      6  C   UNL     1     148.098 129.322  97.784  0.00  0.00    +0.000 C 
ATOM      7  C   UNL     1     145.744 129.464  97.988  0.00  0.00    +0.000 C 
ATOM      8  C   UNL     1     143.787 127.503  99.627  0.00  0.00    +0.000 A 
ATOM      9  C   UNL     1     147.380 127.256 100.876  0.00  0.00    +0.000 C 
ATOM     10  C   UNL     1     146.995 130.192  97.569  0.00  0.00    +0.000 C 
ATOM     11  C   UNL     1     147.857 126.845  97.248  0.00  0.00    +0.000 C 
ATOM     12  C   UNL     1     145.239 126.677 102.160  0.00  0.00    +0.000 A 
ATOM     13  C   UNL     1     143.286 127.017 100.859  0.00  0.00    +0.000 A 
ATOM     14  C   UNL     1     143.827 126.595 102.101  0.00  0.00    +0.000 A 
ATOM     15  C   UNL     1     145.883 126.283 103.331  0.00  0.00    +0.000 A 
ATOM     16  C   UNL     1     143.068 126.137 103.165  0.00  0.00    +0.000 A 
ATOM     17  C   UNL     1     145.132 125.820 104.413  0.00  0.00    +0.000 A 
ATOM     18  C   UNL     1     143.741 125.751 104.321  0.00  0.00    +0.000 A 
ENDROOT
BRANCH   8  19
ATOM     19  C   UNL     1     143.012 127.675  98.455  0.00  0.00    +0.000 C 
ATOM     20  C   UNL     1     142.185 127.879  97.182  0.00  0.00    +0.000 C 
BRANCH  20  21
ATOM     21  C   UNL     1     141.373 128.107  95.904  0.00  0.00    +0.000 C 
ATOM     22  C   UNL     1     140.549 128.306  94.628  0.00  0.00    +0.000 C 
BRANCH  22  23
ATOM     23  C   UNL     1     139.716 128.472  93.354  0.00  0.00    +0.000 C 
BRANCH  23  24
ATOM     24  C   UNL     1     138.892 128.606  92.069  0.00  0.00    +0.000 C 
ATOM     25  C   UNL     1     138.045 128.758  90.802  0.00  0.00    +0.000 C 
BRANCH  25  26
ATOM     26  C   UNL     1     137.172 128.927  89.554  0.00  0.00    +0.000 C 
ATOM     27  C   UNL     1     136.299 129.132  88.312  0.00  0.00    +0.000 C 
BRANCH  27  28
ATOM     28  S   UNL     1     135.291 129.401  86.895  0.00  0.00    +0.000 S 
ATOM     29  O   UNL     1     135.482 127.991  86.420  0.00  0.00    +0.000 OA
BRANCH  28  30
ATOM     30  C   UNL     1     133.800 128.983  87.734  0.00  0.00    +0.000 C 
BRANCH  30  31
ATOM     31  C   UNL     1     132.497 128.604  88.446  0.00  0.00    +0.000 C 
ATOM     32  C   UNL     1     131.185 128.240  89.150  0.00  0.00    +0.000 C 
BRANCH  32  33
ATOM     33  C   UNL     1     129.927 127.899  89.819  0.00  0.00    +0.000 C 
ATOM     34  F   UNL     1     129.455 126.747  89.265  0.00  0.00    +0.000 F 
ATOM     35  F   UNL     1     129.016 128.863  89.509  0.00  0.00    +0.000 F 
BRANCH  33  36
ATOM     36  C   UNL     1     130.069 127.754  91.338  0.00  0.00    +0.000 C 
ATOM     37  F   UNL     1     131.288 127.272  91.692  0.00  0.00    +0.000 F 
ATOM     38  F   UNL     1     129.145 126.909  91.860  0.00  0.00    +0.000 F 
ATOM     39  F   UNL     1     129.918 128.943  91.975  0.00  0.00    +0.000 F 
ENDBRANCH  33  36
ENDBRANCH  32  33
ENDBRANCH  30  31
ENDBRANCH  28  30
ENDBRANCH  27  28
ENDBRANCH  25  26
ENDBRANCH  23  24
ENDBRANCH  22  23
ENDBRANCH  20  21
ENDBRANCH   8  19
BRANCH   6  40
ATOM     40  O   UNL     1     149.381 129.793  97.970  0.00  0.00    +0.000 OA
ATOM     41  H   UNL     1     149.939 129.641  97.187  0.00  0.00    +0.000 HD
ENDBRANCH   6  40
BRANCH  18  42
ATOM     42  O   UNL     1     143.048 125.290 105.405  0.00  0.00    +0.000 OA
ATOM     43  H   UNL     1     143.591 125.433 106.200  0.00  0.00    +0.000 HD
ENDBRANCH  18  42
TORSDOF 12
ENDMDL
