MODEL 1
REMARK VINA RESULT:      -6.4      0.000      0.000
REMARK  Name = Gefitinib.pdbqt.pdb
REMARK  6 active torsions:
REMARK  status: ('A' for Active; 'I' for Inactive)
REMARK    1  A    between atoms: C_3  and  O_11
REMARK    2  A    between atoms: C_6  and  O_21
REMARK    3  A    between atoms: O_11  and  C_12
REMARK    4  A    between atoms: C_13  and  C_14
REMARK    5  A    between atoms: C_14  and  N_15
REMARK    6  A    between atoms: N_23  and  C_25
REMARK                            x       y       z     vdW  Elec       q    Type
REMARK                         _______ _______ _______ _____ _____    ______ ____
ROOT
ATOM      1  N   UNL     1     147.348 127.043 100.369  0.00  0.00    +0.000 NA
ATOM      2  N   UNL     1     148.248 127.399  98.191  0.00  0.00    +0.000 NA
ATOM      3  C   UNL     1     143.566 128.212  99.090  0.00  0.00    +0.000 A 
ATOM      4  C   UNL     1     145.924 127.792  98.600  0.00  0.00    +0.000 A 
ATOM      5  C   UNL     1     144.637 128.188  98.196  0.00  0.00    +0.000 A 
ATOM      6  C   UNL     1     143.784 127.827 100.414  0.00  0.00    +0.000 A 
ATOM      7  C   UNL     1     146.147 127.416  99.927  0.00  0.00    +0.000 A 
ATOM      8  C   UNL     1     145.071 127.439 100.804  0.00  0.00    +0.000 A 
ATOM      9  C   UNL     1     147.033 127.757  97.744  0.00  0.00    +0.000 A 
ATOM     10  C   UNL     1     148.350 127.056  99.481  0.00  0.00    +0.000 A 
ATOM     11  N   UNL     1     146.871 128.150  96.391  0.00  0.00    +0.000 N 
ATOM     12  H   UNL     1     146.047 127.720  95.982  0.00  0.00    +0.000 HD
ENDROOT
BRANCH  11  13
ATOM     13  C   UNL     1     147.878 128.379  95.427  0.00  0.00    +0.000 A 
ATOM     14  C   UNL     1     148.045 127.455  94.389  0.00  0.00    +0.000 A 
ATOM     15  C   UNL     1     148.953 127.691  93.360  0.00  0.00    +0.000 A 
ATOM     16 CL   UNL     1     149.138 126.505  92.131  0.00  0.00    +0.000 Cl
ATOM     17  C   UNL     1     149.686 128.872  93.341  0.00  0.00    +0.000 A 
ATOM     18  F   UNL     1     150.565 129.118  92.358  0.00  0.00    +0.000 F 
ATOM     19  C   UNL     1     149.511 129.823  94.338  0.00  0.00    +0.000 A 
ATOM     20  C   UNL     1     148.598 129.578  95.362  0.00  0.00    +0.000 A 
ENDBRANCH  11  13
BRANCH   6  21
ATOM     21  O   UNL     1     142.702 127.865 101.262  0.00  0.00    +0.000 OA
ATOM     22  C   UNL     1     143.002 128.004 102.622  0.00  0.00    +0.000 C 
ENDBRANCH   6  21
BRANCH   3  23
ATOM     23  O   UNL     1     142.294 128.592  98.735  0.00  0.00    +0.000 OA
BRANCH  23  24
ATOM     24  C   UNL     1     142.070 128.623  97.423  0.00  0.00    +0.000 C 
ATOM     25  C   UNL     1     141.818 128.643  95.911  0.00  0.00    +0.000 C 
BRANCH  25  26
ATOM     26  C   UNL     1     141.574 128.628  94.398  0.00  0.00    +0.000 C 
BRANCH  26  27
ATOM     27  N   UNL     1     141.334 128.625  92.962  0.00  0.00    +0.000 N 
ATOM     28  C   UNL     1     141.371 130.053  92.520  0.00  0.00    +0.000 C 
ATOM     29  C   UNL     1     142.450 130.783  91.655  0.00  0.00    +0.000 C 
ATOM     30  O   UNL     1     143.611 130.411  91.072  0.00  0.00    +0.000 OA
ATOM     31  C   UNL     1     143.578 129.124  91.471  0.00  0.00    +0.000 C 
ATOM     32  C   UNL     1     142.619 128.229  92.313  0.00  0.00    +0.000 C 
ENDBRANCH  26  27
ENDBRANCH  25  26
ENDBRANCH  23  24
ENDBRANCH   3  23
TORSDOF 6
ENDMDL
MODEL 2
REMARK VINA RESULT:      -6.4      4.661      7.665
REMARK  Name = Gefitinib.pdbqt.pdb
REMARK  6 active torsions:
REMARK  status: ('A' for Active; 'I' for Inactive)
REMARK    1  A    between atoms: C_3  and  O_11
REMARK    2  A    between atoms: C_6  and  O_21
REMARK    3  A    between atoms: O_11  and  C_12
REMARK    4  A    between atoms: C_13  and  C_14
REMARK    5  A    between atoms: C_14  and  N_15
REMARK    6  A    between atoms: N_23  and  C_25
REMARK                            x       y       z     vdW  Elec       q    Type
REMARK                         _______ _______ _______ _____ _____    ______ ____
ROOT
ATOM      1  N   UNL     1     141.413 130.159  98.742  0.00  0.00    +0.000 NA
ATOM      2  N   UNL     1     142.370 128.989 100.584  0.00  0.00    +0.000 NA
ATOM      3  C   UNL     1     141.655 126.765  96.349  0.00  0.00    +0.000 A 
ATOM      4  C   UNL     1     142.012 127.856  98.508  0.00  0.00    +0.000 A 
ATOM      5  C   UNL     1     142.088 126.726  97.675  0.00  0.00    +0.000 A 
ATOM      6  C   UNL     1     141.131 127.956  95.846  0.00  0.00    +0.000 A 
ATOM      7  C   UNL     1     141.498 129.053  98.003  0.00  0.00    +0.000 A 
ATOM      8  C   UNL     1     141.065 129.075  96.684  0.00  0.00    +0.000 A 
ATOM      9  C   UNL     1     142.438 127.872  99.843  0.00  0.00    +0.000 A 
ATOM     10  C   UNL     1     141.859 130.080 100.002  0.00  0.00    +0.000 A 
ATOM     11  N   UNL     1     142.990 126.691 100.403  0.00  0.00    +0.000 N 
ATOM     12  H   UNL     1     142.419 125.880 100.183  0.00  0.00    +0.000 HD
ENDROOT
BRANCH  11  13
ATOM     13  C   UNL     1     143.656 126.546 101.640  0.00  0.00    +0.000 A 
ATOM     14  C   UNL     1     144.917 127.131 101.803  0.00  0.00    +0.000 A 
ATOM     15  C   UNL     1     145.565 127.105 103.036  0.00  0.00    +0.000 A 
ATOM     16 CL   UNL     1     147.125 127.811 103.166  0.00  0.00    +0.000 Cl
ATOM     17  C   UNL     1     144.943 126.516 104.131  0.00  0.00    +0.000 A 
ATOM     18  F   UNL     1     145.551 126.481 105.326  0.00  0.00    +0.000 F 
ATOM     19  C   UNL     1     143.676 125.963 104.006  0.00  0.00    +0.000 A 
ATOM     20  C   UNL     1     143.036 125.997 102.769  0.00  0.00    +0.000 A 
ENDBRANCH  11  13
BRANCH   6  21
ATOM     21  O   UNL     1     140.717 127.951  94.535  0.00  0.00    +0.000 OA
ATOM     22  C   UNL     1     140.410 129.204  93.991  0.00  0.00    +0.000 C 
ENDBRANCH   6  21
BRANCH   3  23
ATOM     23  O   UNL     1     141.712 125.682  95.505  0.00  0.00    +0.000 OA
BRANCH  23  24
ATOM     24  C   UNL     1     142.937 125.360  95.096  0.00  0.00    +0.000 C 
ATOM     25  C   UNL     1     144.355 125.003  94.635  0.00  0.00    +0.000 C 
BRANCH  25  26
ATOM     26  C   UNL     1     145.784 124.672  94.194  0.00  0.00    +0.000 C 
BRANCH  26  27
ATOM     27  N   UNL     1     147.144 124.347  93.786  0.00  0.00    +0.000 N 
ATOM     28  C   UNL     1     147.569 125.414  92.829  0.00  0.00    +0.000 C 
ATOM     29  C   UNL     1     148.624 126.550  93.032  0.00  0.00    +0.000 C 
ATOM     30  O   UNL     1     149.430 126.926  94.049  0.00  0.00    +0.000 OA
ATOM     31  C   UNL     1     149.046 125.965  94.913  0.00  0.00    +0.000 C 
ATOM     32  C   UNL     1     148.040 124.775  94.902  0.00  0.00    +0.000 C 
ENDBRANCH  26  27
ENDBRANCH  25  26
ENDBRANCH  23  24
ENDBRANCH   3  23
TORSDOF 6
ENDMDL
MODEL 3
REMARK VINA RESULT:      -6.1      1.826      2.264
REMARK  Name = Gefitinib.pdbqt.pdb
REMARK  6 active torsions:
REMARK  status: ('A' for Active; 'I' for Inactive)
REMARK    1  A    between atoms: C_3  and  O_11
REMARK    2  A    between atoms: C_6  and  O_21
REMARK    3  A    between atoms: O_11  and  C_12
REMARK    4  A    between atoms: C_13  and  C_14
REMARK    5  A    between atoms: C_14  and  N_15
REMARK    6  A    between atoms: N_23  and  C_25
REMARK                            x       y       z     vdW  Elec       q    Type
REMARK                         _______ _______ _______ _____ _____    ______ ____
ROOT
ATOM      1  N   UNL     1     146.615 126.999 100.811  0.00  0.00    +0.000 NA
ATOM      2  N   UNL     1     147.461 126.911  98.585  0.00  0.00    +0.000 NA
ATOM      3  C   UNL     1     142.828 128.020  99.424  0.00  0.00    +0.000 A 
ATOM      4  C   UNL     1     145.160 127.444  98.966  0.00  0.00    +0.000 A 
ATOM      5  C   UNL     1     143.873 127.797  98.525  0.00  0.00    +0.000 A 
ATOM      6  C   UNL     1     143.074 127.884 100.790  0.00  0.00    +0.000 A 
ATOM      7  C   UNL     1     145.411 127.318 100.335  0.00  0.00    +0.000 A 
ATOM      8  C   UNL     1     144.362 127.538 101.217  0.00  0.00    +0.000 A 
ATOM      9  C   UNL     1     146.244 127.216  98.107  0.00  0.00    +0.000 A 
ATOM     10  C   UNL     1     147.591 126.814  99.914  0.00  0.00    +0.000 A 
ATOM     11  N   UNL     1     146.053 127.352  96.708  0.00  0.00    +0.000 N 
ATOM     12  H   UNL     1     145.206 126.878  96.407  0.00  0.00    +0.000 HD
ENDROOT
BRANCH  11  13
ATOM     13  C   UNL     1     147.037 127.366  95.695  0.00  0.00    +0.000 A 
ATOM     14  C   UNL     1     147.743 128.550  95.454  0.00  0.00    +0.000 A 
ATOM     15  C   UNL     1     148.793 128.584  94.540  0.00  0.00    +0.000 A 
ATOM     16 CL   UNL     1     149.600 130.075  94.261  0.00  0.00    +0.000 Cl
ATOM     17  C   UNL     1     149.170 127.423  93.875  0.00  0.00    +0.000 A 
ATOM     18  F   UNL     1     150.178 127.436  92.991  0.00  0.00    +0.000 F 
ATOM     19  C   UNL     1     148.511 126.226  94.125  0.00  0.00    +0.000 A 
ATOM     20  C   UNL     1     147.464 126.203  95.044  0.00  0.00    +0.000 A 
ENDBRANCH  11  13
BRANCH   6  21
ATOM     21  O   UNL     1     142.018 128.114 101.641  0.00  0.00    +0.000 OA
ATOM     22  C   UNL     1     141.529 126.991 102.318  0.00  0.00    +0.000 C 
ENDBRANCH   6  21
BRANCH   3  23
ATOM     23  O   UNL     1     141.557 128.365  99.032  0.00  0.00    +0.000 OA
BRANCH  23  24
ATOM     24  C   UNL     1     141.432 128.651  97.738  0.00  0.00    +0.000 C 
ATOM     25  C   UNL     1     141.275 128.990  96.252  0.00  0.00    +0.000 C 
BRANCH  25  26
ATOM     26  C   UNL     1     141.094 129.355  94.774  0.00  0.00    +0.000 C 
BRANCH  26  27
ATOM     27  N   UNL     1     140.923 129.687  93.367  0.00  0.00    +0.000 N 
ATOM     28  C   UNL     1     139.451 129.790  93.127  0.00  0.00    +0.000 C 
ATOM     29  C   UNL     1     138.593 131.064  92.834  0.00  0.00    +0.000 C 
ATOM     30  O   UNL     1     138.862 132.383  92.715  0.00  0.00    +0.000 OA
ATOM     31  C   UNL     1     140.189 132.290  92.932  0.00  0.00    +0.000 C 
ATOM     32  C   UNL     1     141.205 131.147  93.233  0.00  0.00    +0.000 C 
ENDBRANCH  26  27
ENDBRANCH  25  26
ENDBRANCH  23  24
ENDBRANCH   3  23
TORSDOF 6
ENDMDL
MODEL 4
REMARK VINA RESULT:      -6.0     39.065     43.206
REMARK  Name = Gefitinib.pdbqt.pdb
REMARK  6 active torsions:
REMARK  status: ('A' for Active; 'I' for Inactive)
REMARK    1  A    between atoms: C_3  and  O_11
REMARK    2  A    between atoms: C_6  and  O_21
REMARK    3  A    between atoms: O_11  and  C_12
REMARK    4  A    between atoms: C_13  and  C_14
REMARK    5  A    between atoms: C_14  and  N_15
REMARK    6  A    between atoms: N_23  and  C_25
REMARK                            x       y       z     vdW  Elec       q    Type
REMARK                         _______ _______ _______ _____ _____    ______ ____
ROOT
ATOM      1  N   UNL     1     139.833 137.138 137.452  0.00  0.00    +0.000 NA
ATOM      2  N   UNL     1     139.285 135.290 136.051  0.00  0.00    +0.000 NA
ATOM      3  C   UNL     1     137.192 135.812 140.380  0.00  0.00    +0.000 A 
ATOM      4  C   UNL     1     138.246 135.510 138.195  0.00  0.00    +0.000 A 
ATOM      5  C   UNL     1     137.357 135.089 139.198  0.00  0.00    +0.000 A 
ATOM      6  C   UNL     1     137.935 136.978 140.565  0.00  0.00    +0.000 A 
ATOM      7  C   UNL     1     138.984 136.683 138.373  0.00  0.00    +0.000 A 
ATOM      8  C   UNL     1     138.815 137.390 139.557  0.00  0.00    +0.000 A 
ATOM      9  C   UNL     1     138.444 134.825 136.988  0.00  0.00    +0.000 A 
ATOM     10  C   UNL     1     139.943 136.423 136.325  0.00  0.00    +0.000 A 
ATOM     11  N   UNL     1     137.705 133.639 136.742  0.00  0.00    +0.000 N 
ATOM     12  H   UNL     1     137.721 133.024 137.550  0.00  0.00    +0.000 HD
ENDROOT
BRANCH  11  13
ATOM     13  C   UNL     1     137.600 132.917 135.533  0.00  0.00    +0.000 A 
ATOM     14  C   UNL     1     136.835 133.451 134.489  0.00  0.00    +0.000 A 
ATOM     15  C   UNL     1     136.788 132.829 133.244  0.00  0.00    +0.000 A 
ATOM     16 CL   UNL     1     135.804 133.513 132.013  0.00  0.00    +0.000 Cl
ATOM     17  C   UNL     1     137.531 131.676 133.019  0.00  0.00    +0.000 A 
ATOM     18  F   UNL     1     137.498 131.062 131.827  0.00  0.00    +0.000 F 
ATOM     19  C   UNL     1     138.329 131.147 134.025  0.00  0.00    +0.000 A 
ATOM     20  C   UNL     1     138.371 131.780 135.265  0.00  0.00    +0.000 A 
ENDBRANCH  11  13
BRANCH   6  21
ATOM     21  O   UNL     1     137.743 137.661 141.743  0.00  0.00    +0.000 OA
ATOM     22  C   UNL     1     136.920 138.791 141.662  0.00  0.00    +0.000 C 
ENDBRANCH   6  21
BRANCH   3  23
ATOM     23  O   UNL     1     136.333 135.433 141.383  0.00  0.00    +0.000 OA
BRANCH  23  24
ATOM     24  C   UNL     1     135.124 135.062 140.969  0.00  0.00    +0.000 C 
ATOM     25  C   UNL     1     133.739 134.626 140.480  0.00  0.00    +0.000 C 
BRANCH  25  26
ATOM     26  C   UNL     1     132.369 134.166 139.969  0.00  0.00    +0.000 C 
BRANCH  26  27
ATOM     27  N   UNL     1     131.061 133.735 139.495  0.00  0.00    +0.000 N 
ATOM     28  C   UNL     1     131.262 133.201 138.113  0.00  0.00    +0.000 C 
ATOM     29  C   UNL     1     131.180 131.722 137.613  0.00  0.00    +0.000 C 
ATOM     30  O   UNL     1     130.930 130.532 138.203  0.00  0.00    +0.000 OA
ATOM     31  C   UNL     1     130.750 131.014 139.449  0.00  0.00    +0.000 C 
ATOM     32  C   UNL     1     130.788 132.413 140.134  0.00  0.00    +0.000 C 
ENDBRANCH  26  27
ENDBRANCH  25  26
ENDBRANCH  23  24
ENDBRANCH   3  23
TORSDOF 6
ENDMDL
MODEL 5
REMARK VINA RESULT:      -5.6      4.057      7.362
REMARK  Name = Gefitinib.pdbqt.pdb
REMARK  6 active torsions:
REMARK  status: ('A' for Active; 'I' for Inactive)
REMARK    1  A    between atoms: C_3  and  O_11
REMARK    2  A    between atoms: C_6  and  O_21
REMARK    3  A    between atoms: O_11  and  C_12
REMARK    4  A    between atoms: C_13  and  C_14
REMARK    5  A    between atoms: C_14  and  N_15
REMARK    6  A    between atoms: N_23  and  C_25
REMARK                            x       y       z     vdW  Elec       q    Type
REMARK                         _______ _______ _______ _____ _____    ______ ____
ROOT
ATOM      1  N   UNL     1     140.529 129.451  96.960  0.00  0.00    +0.000 NA
ATOM      2  N   UNL     1     142.318 128.772  98.380  0.00  0.00    +0.000 NA
ATOM      3  C   UNL     1     142.414 127.785  93.647  0.00  0.00    +0.000 A 
ATOM      4  C   UNL     1     142.386 128.253  96.046  0.00  0.00    +0.000 A 
ATOM      5  C   UNL     1     143.003 127.704  94.909  0.00  0.00    +0.000 A 
ATOM      6  C   UNL     1     141.180 128.423  93.519  0.00  0.00    +0.000 A 
ATOM      7  C   UNL     1     141.155 128.902  95.919  0.00  0.00    +0.000 A 
ATOM      8  C   UNL     1     140.578 128.970  94.658  0.00  0.00    +0.000 A 
ATOM      9  C   UNL     1     142.938 128.204  97.334  0.00  0.00    +0.000 A 
ATOM     10  C   UNL     1     141.142 129.367  98.147  0.00  0.00    +0.000 A 
ATOM     11  N   UNL     1     144.197 127.577  97.519  0.00  0.00    +0.000 N 
ATOM     12  H   UNL     1     144.233 126.681  97.043  0.00  0.00    +0.000 HD
ENDROOT
BRANCH  11  13
ATOM     13  C   UNL     1     145.013 127.595  98.672  0.00  0.00    +0.000 A 
ATOM     14  C   UNL     1     144.855 126.585  99.628  0.00  0.00    +0.000 A 
ATOM     15  C   UNL     1     145.706 126.500 100.728  0.00  0.00    +0.000 A 
ATOM     16 CL   UNL     1     145.441 125.259 101.886  0.00  0.00    +0.000 Cl
ATOM     17  C   UNL     1     146.746 127.411 100.869  0.00  0.00    +0.000 A 
ATOM     18  F   UNL     1     147.576 127.346 101.921  0.00  0.00    +0.000 F 
ATOM     19  C   UNL     1     146.949 128.399  99.914  0.00  0.00    +0.000 A 
ATOM     20  C   UNL     1     146.094 128.472  98.817  0.00  0.00    +0.000 A 
ENDBRANCH  11  13
BRANCH   6  21
ATOM     21  O   UNL     1     140.635 128.482  92.258  0.00  0.00    +0.000 OA
ATOM     22  C   UNL     1     139.326 128.975  92.185  0.00  0.00    +0.000 C 
ENDBRANCH   6  21
BRANCH   3  23
ATOM     23  O   UNL     1     142.985 127.261  92.512  0.00  0.00    +0.000 OA
BRANCH  23  24
ATOM     24  C   UNL     1     144.258 126.894  92.649  0.00  0.00    +0.000 C 
ATOM     25  C   UNL     1     145.727 126.482  92.793  0.00  0.00    +0.000 C 
BRANCH  25  26
ATOM     26  C   UNL     1     147.204 126.094  92.912  0.00  0.00    +0.000 C 
BRANCH  26  27
ATOM     27  N   UNL     1     148.606 125.721  93.039  0.00  0.00    +0.000 N 
ATOM     28  C   UNL     1     149.035 126.132  94.410  0.00  0.00    +0.000 C 
ATOM     29  C   UNL     1     149.385 125.232  95.640  0.00  0.00    +0.000 C 
ATOM     30  O   UNL     1     149.409 123.899  95.864  0.00  0.00    +0.000 OA
ATOM     31  C   UNL     1     149.021 123.528  94.628  0.00  0.00    +0.000 C 
ATOM     32  C   UNL     1     148.637 124.251  93.302  0.00  0.00    +0.000 C 
ENDBRANCH  26  27
ENDBRANCH  25  26
ENDBRANCH  23  24
ENDBRANCH   3  23
TORSDOF 6
ENDMDL
MODEL 6
REMARK VINA RESULT:      -5.6      4.319      4.948
REMARK  Name = Gefitinib.pdbqt.pdb
REMARK  6 active torsions:
REMARK  status: ('A' for Active; 'I' for Inactive)
REMARK    1  A    between atoms: C_3  and  O_11
REMARK    2  A    between atoms: C_6  and  O_21
REMARK    3  A    between atoms: O_11  and  C_12
REMARK    4  A    between atoms: C_13  and  C_14
REMARK    5  A    between atoms: C_14  and  N_15
REMARK    6  A    between atoms: N_23  and  C_25
REMARK                            x       y       z     vdW  Elec       q    Type
REMARK                         _______ _______ _______ _____ _____    ______ ____
ROOT
ATOM      1  N   UNL     1     147.094 128.234 100.594  0.00  0.00    +0.000 NA
ATOM      2  N   UNL     1     147.935 128.007  98.376  0.00  0.00    +0.000 NA
ATOM      3  C   UNL     1     144.979 124.668 100.248  0.00  0.00    +0.000 A 
ATOM      4  C   UNL     1     146.490 126.329  99.280  0.00  0.00    +0.000 A 
ATOM      5  C   UNL     1     145.760 125.131  99.188  0.00  0.00    +0.000 A 
ATOM      6  C   UNL     1     144.930 125.415 101.425  0.00  0.00    +0.000 A 
ATOM      7  C   UNL     1     146.434 127.084 100.454  0.00  0.00    +0.000 A 
ATOM      8  C   UNL     1     145.657 126.608 101.502  0.00  0.00    +0.000 A 
ATOM      9  C   UNL     1     147.283 126.841  98.244  0.00  0.00    +0.000 A 
ATOM     10  C   UNL     1     147.814 128.649  99.544  0.00  0.00    +0.000 A 
ATOM     11  N   UNL     1     147.360 126.128  97.020  0.00  0.00    +0.000 N 
ATOM     12  H   UNL     1     147.518 125.138  97.183  0.00  0.00    +0.000 HD
ENDROOT
BRANCH  11  13
ATOM     13  C   UNL     1     147.926 126.558  95.800  0.00  0.00    +0.000 A 
ATOM     14  C   UNL     1     148.135 125.620  94.782  0.00  0.00    +0.000 A 
ATOM     15  C   UNL     1     148.592 126.014  93.527  0.00  0.00    +0.000 A 
ATOM     16 CL   UNL     1     148.861 124.813  92.329  0.00  0.00    +0.000 Cl
ATOM     17  C   UNL     1     148.820 127.361  93.265  0.00  0.00    +0.000 A 
ATOM     18  F   UNL     1     149.261 127.760  92.063  0.00  0.00    +0.000 F 
ATOM     19  C   UNL     1     148.584 128.316  94.245  0.00  0.00    +0.000 A 
ATOM     20  C   UNL     1     148.123 127.910  95.496  0.00  0.00    +0.000 A 
ENDBRANCH  11  13
BRANCH   6  21
ATOM     21  O   UNL     1     144.148 124.923 102.444  0.00  0.00    +0.000 OA
ATOM     22  C   UNL     1     143.390 125.873 103.140  0.00  0.00    +0.000 C 
ENDBRANCH   6  21
BRANCH   3  23
ATOM     23  O   UNL     1     144.253 123.503 100.196  0.00  0.00    +0.000 OA
BRANCH  23  24
ATOM     24  C   UNL     1     144.024 123.044  98.968  0.00  0.00    +0.000 C 
ATOM     25  C   UNL     1     143.759 122.498  97.561  0.00  0.00    +0.000 C 
BRANCH  25  26
ATOM     26  C   UNL     1     143.487 121.922  96.167  0.00  0.00    +0.000 C 
BRANCH  26  27
ATOM     27  N   UNL     1     143.215 121.368  94.848  0.00  0.00    +0.000 N 
ATOM     28  C   UNL     1     144.044 122.148  93.878  0.00  0.00    +0.000 C 
ATOM     29  C   UNL     1     145.299 121.686  93.069  0.00  0.00    +0.000 C 
ATOM     30  O   UNL     1     146.003 120.536  92.983  0.00  0.00    +0.000 OA
ATOM     31  C   UNL     1     145.257 119.833  93.858  0.00  0.00    +0.000 C 
ATOM     32  C   UNL     1     144.003 120.103  94.743  0.00  0.00    +0.000 C 
ENDBRANCH  26  27
ENDBRANCH  25  26
ENDBRANCH  23  24
ENDBRANCH   3  23
TORSDOF 6
ENDMDL
MODEL 7
REMARK VINA RESULT:      -5.4     15.315     17.553
REMARK  Name = Gefitinib.pdbqt.pdb
REMARK  6 active torsions:
REMARK  status: ('A' for Active; 'I' for Inactive)
REMARK    1  A    between atoms: C_3  and  O_11
REMARK    2  A    between atoms: C_6  and  O_21
REMARK    3  A    between atoms: O_11  and  C_12
REMARK    4  A    between atoms: C_13  and  C_14
REMARK    5  A    between atoms: C_14  and  N_15
REMARK    6  A    between atoms: N_23  and  C_25
REMARK                            x       y       z     vdW  Elec       q    Type
REMARK                         _______ _______ _______ _____ _____    ______ ____
ROOT
ATOM      1  N   UNL     1     135.823 114.397 100.024  0.00  0.00    +0.000 NA
ATOM      2  N   UNL     1     137.130 114.767  98.067  0.00  0.00    +0.000 NA
ATOM      3  C   UNL     1     138.811 112.018 101.673  0.00  0.00    +0.000 A 
ATOM      4  C   UNL     1     137.997 113.417  99.841  0.00  0.00    +0.000 A 
ATOM      5  C   UNL     1     138.987 112.604 100.419  0.00  0.00    +0.000 A 
ATOM      6  C   UNL     1     137.623 112.252 102.366  0.00  0.00    +0.000 A 
ATOM      7  C   UNL     1     136.802 113.645 100.528  0.00  0.00    +0.000 A 
ATOM      8  C   UNL     1     136.643 113.060 101.777  0.00  0.00    +0.000 A 
ATOM      9  C   UNL     1     138.122 114.024  98.584  0.00  0.00    +0.000 A 
ATOM     10  C   UNL     1     136.029 114.922  98.810  0.00  0.00    +0.000 A 
ATOM     11  N   UNL     1     139.305 113.809  97.831  0.00  0.00    +0.000 N 
ATOM     12  H   UNL     1     140.132 113.928  98.407  0.00  0.00    +0.000 HD
ENDROOT
BRANCH  11  13
ATOM     13  C   UNL     1     139.549 114.152  96.482  0.00  0.00    +0.000 A 
ATOM     14  C   UNL     1     140.739 114.813  96.157  0.00  0.00    +0.000 A 
ATOM     15  C   UNL     1     141.071 115.078  94.830  0.00  0.00    +0.000 A 
ATOM     16 CL   UNL     1     142.529 115.922  94.494  0.00  0.00    +0.000 Cl
ATOM     17  C   UNL     1     140.228 114.657  93.808  0.00  0.00    +0.000 A 
ATOM     18  F   UNL     1     140.530 114.902  92.525  0.00  0.00    +0.000 F 
ATOM     19  C   UNL     1     139.060 113.965  94.102  0.00  0.00    +0.000 A 
ATOM     20  C   UNL     1     138.739 113.702  95.433  0.00  0.00    +0.000 A 
ENDBRANCH  11  13
BRANCH   6  21
ATOM     21  O   UNL     1     137.489 111.655 103.597  0.00  0.00    +0.000 OA
ATOM     22  C   UNL     1     136.885 112.437 104.589  0.00  0.00    +0.000 C 
ENDBRANCH   6  21
BRANCH   3  23
ATOM     23  O   UNL     1     139.754 111.217 102.271  0.00  0.00    +0.000 OA
BRANCH  23  24
ATOM     24  C   UNL     1     140.770 111.875 102.826  0.00  0.00    +0.000 C 
ATOM     25  C   UNL     1     141.941 112.642 103.450  0.00  0.00    +0.000 C 
BRANCH  25  26
ATOM     26  C   UNL     1     143.110 113.432 104.047  0.00  0.00    +0.000 C 
BRANCH  26  27
ATOM     27  N   UNL     1     144.214 114.184 104.628  0.00  0.00    +0.000 N 
ATOM     28  C   UNL     1     145.251 113.183 105.024  0.00  0.00    +0.000 C 
ATOM     29  C   UNL     1     146.654 112.920 104.387  0.00  0.00    +0.000 C 
ATOM     30  O   UNL     1     147.342 113.452 103.353  0.00  0.00    +0.000 OA
ATOM     31  C   UNL     1     146.407 114.355 102.994  0.00  0.00    +0.000 C 
ATOM     32  C   UNL     1     144.986 114.762 103.487  0.00  0.00    +0.000 C 
ENDBRANCH  26  27
ENDBRANCH  25  26
ENDBRANCH  23  24
ENDBRANCH   3  23
TORSDOF 6
ENDMDL
MODEL 8
REMARK VINA RESULT:      -5.4     39.949     44.163
REMARK  Name = Gefitinib.pdbqt.pdb
REMARK  6 active torsions:
REMARK  status: ('A' for Active; 'I' for Inactive)
REMARK    1  A    between atoms: C_3  and  O_11
REMARK    2  A    between atoms: C_6  and  O_21
REMARK    3  A    between atoms: O_11  and  C_12
REMARK    4  A    between atoms: C_13  and  C_14
REMARK    5  A    between atoms: C_14  and  N_15
REMARK    6  A    between atoms: N_23  and  C_25
REMARK                            x       y       z     vdW  Elec       q    Type
REMARK                         _______ _______ _______ _____ _____    ______ ____
ROOT
ATOM      1  N   UNL     1     140.169 137.853 138.020  0.00  0.00    +0.000 NA
ATOM      2  N   UNL     1     139.662 136.028 136.574  0.00  0.00    +0.000 NA
ATOM      3  C   UNL     1     137.541 136.410 140.903  0.00  0.00    +0.000 A 
ATOM      4  C   UNL     1     138.610 136.179 138.717  0.00  0.00    +0.000 A 
ATOM      5  C   UNL     1     137.724 135.717 139.706  0.00  0.00    +0.000 A 
ATOM      6  C   UNL     1     138.261 137.585 141.120  0.00  0.00    +0.000 A 
ATOM      7  C   UNL     1     139.324 137.361 138.927  0.00  0.00    +0.000 A 
ATOM      8  C   UNL     1     139.136 138.037 140.125  0.00  0.00    +0.000 A 
ATOM      9  C   UNL     1     138.826 135.525 137.496  0.00  0.00    +0.000 A 
ATOM     10  C   UNL     1     140.297 137.166 136.878  0.00  0.00    +0.000 A 
ATOM     11  N   UNL     1     138.110 134.332 137.219  0.00  0.00    +0.000 N 
ATOM     12  H   UNL     1     138.134 133.699 138.013  0.00  0.00    +0.000 HD
ENDROOT
BRANCH  11  13
ATOM     13  C   UNL     1     138.025 133.636 135.993  0.00  0.00    +0.000 A 
ATOM     14  C   UNL     1     138.945 132.614 135.729  0.00  0.00    +0.000 A 
ATOM     15  C   UNL     1     138.836 131.832 134.582  0.00  0.00    +0.000 A 
ATOM     16 CL   UNL     1     140.013 130.614 134.295  0.00  0.00    +0.000 Cl
ATOM     17  C   UNL     1     137.786 132.045 133.696  0.00  0.00    +0.000 A 
ATOM     18  F   UNL     1     137.664 131.302 132.586  0.00  0.00    +0.000 F 
ATOM     19  C   UNL     1     136.838 133.027 133.954  0.00  0.00    +0.000 A 
ATOM     20  C   UNL     1     136.955 133.801 135.106  0.00  0.00    +0.000 A 
ENDBRANCH  11  13
BRANCH   6  21
ATOM     21  O   UNL     1     138.050 138.237 142.312  0.00  0.00    +0.000 OA
ATOM     22  C   UNL     1     138.763 139.428 142.487  0.00  0.00    +0.000 C 
ENDBRANCH   6  21
BRANCH   3  23
ATOM     23  O   UNL     1     136.685 135.991 141.894  0.00  0.00    +0.000 OA
BRANCH  23  24
ATOM     24  C   UNL     1     135.542 135.467 141.456  0.00  0.00    +0.000 C 
ATOM     25  C   UNL     1     134.234 134.849 140.950  0.00  0.00    +0.000 C 
BRANCH  25  26
ATOM     26  C   UNL     1     132.942 134.198 140.445  0.00  0.00    +0.000 C 
BRANCH  26  27
ATOM     27  N   UNL     1     131.709 133.593 139.961  0.00  0.00    +0.000 N 
ATOM     28  C   UNL     1     131.742 132.160 140.384  0.00  0.00    +0.000 C 
ATOM     29  C   UNL     1     130.876 131.437 141.467  0.00  0.00    +0.000 C 
ATOM     30  O   UNL     1     129.899 131.826 142.316  0.00  0.00    +0.000 OA
ATOM     31  C   UNL     1     129.870 133.119 141.936  0.00  0.00    +0.000 C 
ATOM     32  C   UNL     1     130.629 134.009 140.906  0.00  0.00    +0.000 C 
ENDBRANCH  26  27
ENDBRANCH  25  26
ENDBRANCH  23  24
ENDBRANCH   3  23
TORSDOF 6
ENDMDL
MODEL 9
REMARK VINA RESULT:      -5.4     17.291     19.850
REMARK  Name = Gefitinib.pdbqt.pdb
REMARK  6 active torsions:
REMARK  status: ('A' for Active; 'I' for Inactive)
REMARK    1  A    between atoms: C_3  and  O_11
REMARK    2  A    between atoms: C_6  and  O_21
REMARK    3  A    between atoms: O_11  and  C_12
REMARK    4  A    between atoms: C_13  and  C_14
REMARK    5  A    between atoms: C_14  and  N_15
REMARK    6  A    between atoms: N_23  and  C_25
REMARK                            x       y       z     vdW  Elec       q    Type
REMARK                         _______ _______ _______ _____ _____    ______ ____
ROOT
ATOM      1  N   UNL     1     141.973 111.925 103.749  0.00  0.00    +0.000 NA
ATOM      2  N   UNL     1     139.810 112.524 104.550  0.00  0.00    +0.000 NA
ATOM      3  C   UNL     1     143.725 115.014 105.917  0.00  0.00    +0.000 A 
ATOM      4  C   UNL     1     141.729 113.764 105.259  0.00  0.00    +0.000 A 
ATOM      5  C   UNL     1     142.347 114.803 105.977  0.00  0.00    +0.000 A 
ATOM      6  C   UNL     1     144.503 114.166 105.129  0.00  0.00    +0.000 A 
ATOM      7  C   UNL     1     142.505 112.919 104.461  0.00  0.00    +0.000 A 
ATOM      8  C   UNL     1     143.876 113.137 104.415  0.00  0.00    +0.000 A 
ATOM      9  C   UNL     1     140.350 113.513 105.279  0.00  0.00    +0.000 A 
ATOM     10  C   UNL     1     140.645 111.774 103.821  0.00  0.00    +0.000 A 
ATOM     11  N   UNL     1     139.510 114.353 106.055  0.00  0.00    +0.000 N 
ATOM     12  H   UNL     1     139.896 114.499 106.983  0.00  0.00    +0.000 HD
ENDROOT
BRANCH  11  13
ATOM     13  C   UNL     1     138.099 114.404 106.058  0.00  0.00    +0.000 A 
ATOM     14  C   UNL     1     137.442 115.021 104.986  0.00  0.00    +0.000 A 
ATOM     15  C   UNL     1     136.053 115.004 104.893  0.00  0.00    +0.000 A 
ATOM     16 CL   UNL     1     135.302 115.806 103.572  0.00  0.00    +0.000 Cl
ATOM     17  C   UNL     1     135.302 114.342 105.858  0.00  0.00    +0.000 A 
ATOM     18  F   UNL     1     133.963 114.315 105.785  0.00  0.00    +0.000 F 
ATOM     19  C   UNL     1     135.931 113.690 106.910  0.00  0.00    +0.000 A 
ATOM     20  C   UNL     1     137.322 113.710 106.993  0.00  0.00    +0.000 A 
ENDBRANCH  11  13
BRANCH   6  21
ATOM     21  O   UNL     1     145.856 114.409 105.097  0.00  0.00    +0.000 OA
ATOM     22  C   UNL     1     146.471 114.257 103.849  0.00  0.00    +0.000 C 
ENDBRANCH   6  21
BRANCH   3  23
ATOM     23  O   UNL     1     144.365 116.018 106.603  0.00  0.00    +0.000 OA
BRANCH  23  24
ATOM     24  C   UNL     1     143.901 116.235 107.832  0.00  0.00    +0.000 C 
ATOM     25  C   UNL     1     143.356 116.497 109.240  0.00  0.00    +0.000 C 
BRANCH  25  26
ATOM     26  C   UNL     1     142.785 116.779 110.634  0.00  0.00    +0.000 C 
BRANCH  26  27
ATOM     27  N   UNL     1     142.229 117.048 111.952  0.00  0.00    +0.000 N 
ATOM     28  C   UNL     1     140.811 117.470 111.741  0.00  0.00    +0.000 C 
ATOM     29  C   UNL     1     139.496 116.699 112.089  0.00  0.00    +0.000 C 
ATOM     30  O   UNL     1     139.218 115.497 112.641  0.00  0.00    +0.000 OA
ATOM     31  C   UNL     1     140.497 115.116 112.831  0.00  0.00    +0.000 C 
ATOM     32  C   UNL     1     141.907 115.723 112.561  0.00  0.00    +0.000 C 
ENDBRANCH  26  27
ENDBRANCH  25  26
ENDBRANCH  23  24
ENDBRANCH   3  23
TORSDOF 6
ENDMDL
