MODEL 1
REMARK VINA RESULT:      -7.2      0.000      0.000
REMARK  Name = Genistein.pdbqt.pdb
REMARK  4 active torsions:
REMARK  status: ('A' for Active; 'I' for Inactive)
REMARK    1  A    between atoms: C_4  and  C_12
REMARK    2  A    between atoms: C_7  and  O_20
REMARK    3  A    between atoms: C_11  and  O_22
REMARK    4  A    between atoms: C_17  and  O_18
REMARK                            x       y       z     vdW  Elec       q    Type
REMARK                         _______ _______ _______ _____ _____    ______ ____
ROOT
ATOM      1  O   UNL     1     136.591 123.667 132.483  0.00  0.00    +0.000 OA
ATOM      2  O   UNL     1     136.997 121.519 136.050  0.00  0.00    +0.000 OA
ATOM      3  C   UNL     1     138.023 122.731 134.281  0.00  0.00    +0.000 A 
ATOM      4  C   UNL     1     135.508 122.385 134.357  0.00  0.00    +0.000 A 
ATOM      5  C   UNL     1     137.838 123.456 133.067  0.00  0.00    +0.000 A 
ATOM      6  C   UNL     1     136.837 122.142 135.007  0.00  0.00    +0.000 A 
ATOM      7  C   UNL     1     139.315 122.571 134.791  0.00  0.00    +0.000 A 
ATOM      8  C   UNL     1     135.719 123.072 133.279  0.00  0.00    +0.000 A 
ATOM      9  C   UNL     1     138.932 123.998 132.397  0.00  0.00    +0.000 A 
ATOM     10  C   UNL     1     140.405 123.117 134.115  0.00  0.00    +0.000 A 
ATOM     11  C   UNL     1     140.205 123.822 132.930  0.00  0.00    +0.000 A 
ENDROOT
BRANCH   4  12
ATOM     12  C   UNL     1     134.203 121.934 134.835  0.00  0.00    +0.000 A 
ATOM     13  C   UNL     1     133.471 122.688 135.756  0.00  0.00    +0.000 A 
ATOM     14  C   UNL     1     133.654 120.730 134.377  0.00  0.00    +0.000 A 
ATOM     15  C   UNL     1     132.226 122.259 136.212  0.00  0.00    +0.000 A 
ATOM     16  C   UNL     1     132.410 120.288 134.826  0.00  0.00    +0.000 A 
ATOM     17  C   UNL     1     131.706 121.059 135.741  0.00  0.00    +0.000 A 
BRANCH  17  18
ATOM     18  O   UNL     1     130.490 120.611 136.168  0.00  0.00    +0.000 OA
ATOM     19  H   UNL     1     130.249 121.104 136.972  0.00  0.00    +0.000 HD
ENDBRANCH  17  18
ENDBRANCH   4  12
BRANCH   7  20
ATOM     20  O   UNL     1     139.589 121.892 135.948  0.00  0.00    +0.000 OA
ATOM     21  H   UNL     1     139.776 122.546 136.660  0.00  0.00    +0.000 HD
ENDBRANCH   7  20
BRANCH  11  22
ATOM     22  O   UNL     1     141.264 124.361 132.260  0.00  0.00    +0.000 OA
ATOM     23  H   UNL     1     140.930 125.072 131.684  0.00  0.00    +0.000 HD
ENDBRANCH  11  22
TORSDOF 4
ENDMDL
MODEL 2
REMARK VINA RESULT:      -7.0      1.988      2.403
REMARK  Name = Genistein.pdbqt.pdb
REMARK  4 active torsions:
REMARK  status: ('A' for Active; 'I' for Inactive)
REMARK    1  A    between atoms: C_4  and  C_12
REMARK    2  A    between atoms: C_7  and  O_20
REMARK    3  A    between atoms: C_11  and  O_22
REMARK    4  A    between atoms: C_17  and  O_18
REMARK                            x       y       z     vdW  Elec       q    Type
REMARK                         _______ _______ _______ _____ _____    ______ ____
ROOT
ATOM      1  O   UNL     1     136.204 124.310 133.842  0.00  0.00    +0.000 OA
ATOM      2  O   UNL     1     138.120 121.886 136.663  0.00  0.00    +0.000 OA
ATOM      3  C   UNL     1     138.248 123.164 134.662  0.00  0.00    +0.000 A 
ATOM      4  C   UNL     1     136.073 122.957 135.959  0.00  0.00    +0.000 A 
ATOM      5  C   UNL     1     137.554 123.986 133.725  0.00  0.00    +0.000 A 
ATOM      6  C   UNL     1     137.524 122.592 135.858  0.00  0.00    +0.000 A 
ATOM      7  C   UNL     1     139.605 122.894 134.462  0.00  0.00    +0.000 A 
ATOM      8  C   UNL     1     135.788 123.708 134.943  0.00  0.00    +0.000 A 
ATOM      9  C   UNL     1     138.222 124.512 132.622  0.00  0.00    +0.000 A 
ATOM     10  C   UNL     1     140.266 123.425 133.355  0.00  0.00    +0.000 A 
ATOM     11  C   UNL     1     139.572 124.226 132.450  0.00  0.00    +0.000 A 
ENDROOT
BRANCH   4  12
ATOM     12  C   UNL     1     135.137 122.547 137.003  0.00  0.00    +0.000 A 
ATOM     13  C   UNL     1     133.910 121.960 136.683  0.00  0.00    +0.000 A 
ATOM     14  C   UNL     1     135.452 122.733 138.354  0.00  0.00    +0.000 A 
ATOM     15  C   UNL     1     133.017 121.568 137.678  0.00  0.00    +0.000 A 
ATOM     16  C   UNL     1     134.567 122.346 139.360  0.00  0.00    +0.000 A 
ATOM     17  C   UNL     1     133.355 121.765 139.012  0.00  0.00    +0.000 A 
BRANCH  17  18
ATOM     18  O   UNL     1     132.503 121.393 140.010  0.00  0.00    +0.000 OA
ATOM     19  H   UNL     1     132.658 120.452 140.207  0.00  0.00    +0.000 HD
ENDBRANCH  17  18
ENDBRANCH   4  12
BRANCH   7  20
ATOM     20  O   UNL     1     140.351 122.118 135.307  0.00  0.00    +0.000 OA
ATOM     21  H   UNL     1     141.236 121.972 134.902  0.00  0.00    +0.000 HD
ENDBRANCH   7  20
BRANCH  11  22
ATOM     22  O   UNL     1     140.209 124.752 131.363  0.00  0.00    +0.000 OA
ATOM     23  H   UNL     1     141.151 124.512 131.418  0.00  0.00    +0.000 HD
ENDBRANCH  11  22
TORSDOF 4
ENDMDL
MODEL 3
REMARK VINA RESULT:      -6.7     33.540     35.833
REMARK  Name = Genistein.pdbqt.pdb
REMARK  4 active torsions:
REMARK  status: ('A' for Active; 'I' for Inactive)
REMARK    1  A    between atoms: C_4  and  C_12
REMARK    2  A    between atoms: C_7  and  O_20
REMARK    3  A    between atoms: C_11  and  O_22
REMARK    4  A    between atoms: C_17  and  O_18
REMARK                            x       y       z     vdW  Elec       q    Type
REMARK                         _______ _______ _______ _____ _____    ______ ____
ROOT
ATOM      1  O   UNL     1     143.661 128.572  97.882  0.00  0.00    +0.000 OA
ATOM      2  O   UNL     1     144.609 126.223 101.212  0.00  0.00    +0.000 OA
ATOM      3  C   UNL     1     145.305 127.799  99.573  0.00  0.00    +0.000 A 
ATOM      4  C   UNL     1     142.927 126.905  99.618  0.00  0.00    +0.000 A 
ATOM      5  C   UNL     1     144.938 128.582  98.439  0.00  0.00    +0.000 A 
ATOM      6  C   UNL     1     144.293 126.896 100.238  0.00  0.00    +0.000 A 
ATOM      7  C   UNL     1     146.612 127.876 100.062  0.00  0.00    +0.000 A 
ATOM      8  C   UNL     1     142.959 127.725  98.615  0.00  0.00    +0.000 A 
ATOM      9  C   UNL     1     145.871 129.414  97.826  0.00  0.00    +0.000 A 
ATOM     10  C   UNL     1     147.541 128.710  99.443  0.00  0.00    +0.000 A 
ATOM     11  C   UNL     1     147.164 129.469  98.337  0.00  0.00    +0.000 A 
ENDROOT
BRANCH   4  12
ATOM     12  C   UNL     1     141.763 126.135 100.050  0.00  0.00    +0.000 A 
ATOM     13  C   UNL     1     140.908 126.615 101.046  0.00  0.00    +0.000 A 
ATOM     14  C   UNL     1     141.478 124.893  99.472  0.00  0.00    +0.000 A 
ATOM     15  C   UNL     1     139.798 125.882 101.458  0.00  0.00    +0.000 A 
ATOM     16  C   UNL     1     140.370 124.148  99.875  0.00  0.00    +0.000 A 
ATOM     17  C   UNL     1     139.538 124.651 100.867  0.00  0.00    +0.000 A 
BRANCH  17  18
ATOM     18  O   UNL     1     138.459 123.907 101.248  0.00  0.00    +0.000 OA
ATOM     19  H   UNL     1     138.732 123.329 101.983  0.00  0.00    +0.000 HD
ENDBRANCH  17  18
ENDBRANCH   4  12
BRANCH   7  20
ATOM     20  O   UNL     1     147.055 127.162 101.143  0.00  0.00    +0.000 OA
ATOM     21  H   UNL     1     146.432 127.306 101.892  0.00  0.00    +0.000 HD
ENDBRANCH   7  20
BRANCH  11  22
ATOM     22  O   UNL     1     148.065 130.290  97.722  0.00  0.00    +0.000 OA
ATOM     23  H   UNL     1     148.560 129.763  97.069  0.00  0.00    +0.000 HD
ENDBRANCH  11  22
TORSDOF 4
ENDMDL
MODEL 4
REMARK VINA RESULT:      -6.7     33.243     36.069
REMARK  Name = Genistein.pdbqt.pdb
REMARK  4 active torsions:
REMARK  status: ('A' for Active; 'I' for Inactive)
REMARK    1  A    between atoms: C_4  and  C_12
REMARK    2  A    between atoms: C_7  and  O_20
REMARK    3  A    between atoms: C_11  and  O_22
REMARK    4  A    between atoms: C_17  and  O_18
REMARK                            x       y       z     vdW  Elec       q    Type
REMARK                         _______ _______ _______ _____ _____    ______ ____
ROOT
ATOM      1  O   UNL     1     143.218 126.543 100.357  0.00  0.00    +0.000 OA
ATOM      2  O   UNL     1     146.308 123.744 100.001  0.00  0.00    +0.000 OA
ATOM      3  C   UNL     1     145.374 125.604 101.152  0.00  0.00    +0.000 A 
ATOM      4  C   UNL     1     144.209 124.576  99.142  0.00  0.00    +0.000 A 
ATOM      5  C   UNL     1     144.300 126.538 101.236  0.00  0.00    +0.000 A 
ATOM      6  C   UNL     1     145.384 124.547 100.073  0.00  0.00    +0.000 A 
ATOM      7  C   UNL     1     146.417 125.676 102.080  0.00  0.00    +0.000 A 
ATOM      8  C   UNL     1     143.440 125.550  99.514  0.00  0.00    +0.000 A 
ATOM      9  C   UNL     1     144.290 127.512 102.231  0.00  0.00    +0.000 A 
ATOM     10  C   UNL     1     146.400 126.654 103.073  0.00  0.00    +0.000 A 
ATOM     11  C   UNL     1     145.342 127.558 103.140  0.00  0.00    +0.000 A 
ENDROOT
BRANCH   4  12
ATOM     12  C   UNL     1     143.961 123.679  98.015  0.00  0.00    +0.000 A 
ATOM     13  C   UNL     1     144.790 123.689  96.889  0.00  0.00    +0.000 A 
ATOM     14  C   UNL     1     142.884 122.786  98.040  0.00  0.00    +0.000 A 
ATOM     15  C   UNL     1     144.555 122.834  95.814  0.00  0.00    +0.000 A 
ATOM     16  C   UNL     1     142.637 121.925  96.971  0.00  0.00    +0.000 A 
ATOM     17  C   UNL     1     143.477 121.957  95.865  0.00  0.00    +0.000 A 
BRANCH  17  18
ATOM     18  O   UNL     1     143.220 121.107  94.830  0.00  0.00    +0.000 OA
ATOM     19  H   UNL     1     142.508 121.493  94.288  0.00  0.00    +0.000 HD
ENDBRANCH  17  18
ENDBRANCH   4  12
BRANCH   7  20
ATOM     20  O   UNL     1     147.487 124.823 102.078  0.00  0.00    +0.000 OA
ATOM     21  H   UNL     1     148.296 125.332 101.840  0.00  0.00    +0.000 HD
ENDBRANCH   7  20
BRANCH  11  22
ATOM     22  O   UNL     1     145.315 128.520 104.108  0.00  0.00    +0.000 OA
ATOM     23  H   UNL     1     145.074 129.366 103.690  0.00  0.00    +0.000 HD
ENDBRANCH  11  22
TORSDOF 4
ENDMDL
MODEL 5
REMARK VINA RESULT:      -6.4     33.612     36.457
REMARK  Name = Genistein.pdbqt.pdb
REMARK  4 active torsions:
REMARK  status: ('A' for Active; 'I' for Inactive)
REMARK    1  A    between atoms: C_4  and  C_12
REMARK    2  A    between atoms: C_7  and  O_20
REMARK    3  A    between atoms: C_11  and  O_22
REMARK    4  A    between atoms: C_17  and  O_18
REMARK                            x       y       z     vdW  Elec       q    Type
REMARK                         _______ _______ _______ _____ _____    ______ ____
ROOT
ATOM      1  O   UNL     1     145.124 123.845 100.846  0.00  0.00    +0.000 OA
ATOM      2  O   UNL     1     141.804 125.045  98.601  0.00  0.00    +0.000 OA
ATOM      3  C   UNL     1     143.031 125.162 100.635  0.00  0.00    +0.000 A 
ATOM      4  C   UNL     1     143.824 123.724  98.695  0.00  0.00    +0.000 A 
ATOM      5  C   UNL     1     144.177 124.725 101.363  0.00  0.00    +0.000 A 
ATOM      6  C   UNL     1     142.789 124.671  99.226  0.00  0.00    +0.000 A 
ATOM      7  C   UNL     1     142.134 126.048 101.238  0.00  0.00    +0.000 A 
ATOM      8  C   UNL     1     144.711 123.555  99.624  0.00  0.00    +0.000 A 
ATOM      9  C   UNL     1     144.399 125.178 102.661  0.00  0.00    +0.000 A 
ATOM     10  C   UNL     1     142.363 126.496 102.537  0.00  0.00    +0.000 A 
ATOM     11  C   UNL     1     143.489 126.060 103.234  0.00  0.00    +0.000 A 
ENDROOT
BRANCH   4  12
ATOM     12  C   UNL     1     143.843 123.097  97.376  0.00  0.00    +0.000 A 
ATOM     13  C   UNL     1     142.907 122.120  97.027  0.00  0.00    +0.000 A 
ATOM     14  C   UNL     1     144.804 123.465  96.427  0.00  0.00    +0.000 A 
ATOM     15  C   UNL     1     142.924 121.522  95.769  0.00  0.00    +0.000 A 
ATOM     16  C   UNL     1     144.833 122.874  95.164  0.00  0.00    +0.000 A 
ATOM     17  C   UNL     1     143.890 121.906  94.846  0.00  0.00    +0.000 A 
BRANCH  17  18
ATOM     18  O   UNL     1     143.934 121.340  93.605  0.00  0.00    +0.000 OA
ATOM     19  H   UNL     1     143.403 121.889  93.001  0.00  0.00    +0.000 HD
ENDBRANCH  17  18
ENDBRANCH   4  12
BRANCH   7  20
ATOM     20  O   UNL     1     141.009 126.520 100.616  0.00  0.00    +0.000 OA
ATOM     21  H   UNL     1     141.240 126.768  99.692  0.00  0.00    +0.000 HD
ENDBRANCH   7  20
BRANCH  11  22
ATOM     22  O   UNL     1     143.724 126.493 104.507  0.00  0.00    +0.000 OA
ATOM     23  H   UNL     1     143.595 127.457 104.529  0.00  0.00    +0.000 HD
ENDBRANCH  11  22
TORSDOF 4
ENDMDL
MODEL 6
REMARK VINA RESULT:      -6.4      6.462      9.592
REMARK  Name = Genistein.pdbqt.pdb
REMARK  4 active torsions:
REMARK  status: ('A' for Active; 'I' for Inactive)
REMARK    1  A    between atoms: C_4  and  C_12
REMARK    2  A    between atoms: C_7  and  O_20
REMARK    3  A    between atoms: C_11  and  O_22
REMARK    4  A    between atoms: C_17  and  O_18
REMARK                            x       y       z     vdW  Elec       q    Type
REMARK                         _______ _______ _______ _____ _____    ______ ____
ROOT
ATOM      1  O   UNL     1     141.049 127.925 134.712  0.00  0.00    +0.000 OA
ATOM      2  O   UNL     1     138.685 129.559 131.672  0.00  0.00    +0.000 OA
ATOM      3  C   UNL     1     139.756 127.655 132.611  0.00  0.00    +0.000 A 
ATOM      4  C   UNL     1     139.915 129.937 133.716  0.00  0.00    +0.000 A 
ATOM      5  C   UNL     1     140.564 127.141 133.668  0.00  0.00    +0.000 A 
ATOM      6  C   UNL     1     139.379 129.118 132.580  0.00  0.00    +0.000 A 
ATOM      7  C   UNL     1     139.315 126.790 131.605  0.00  0.00    +0.000 A 
ATOM      8  C   UNL     1     140.602 129.147 134.479  0.00  0.00    +0.000 A 
ATOM      9  C   UNL     1     140.911 125.793 133.696  0.00  0.00    +0.000 A 
ATOM     10  C   UNL     1     139.666 125.442 131.641  0.00  0.00    +0.000 A 
ATOM     11  C   UNL     1     140.457 124.958 132.681  0.00  0.00    +0.000 A 
ENDROOT
BRANCH   4  12
ATOM     12  C   UNL     1     139.711 131.367 133.937  0.00  0.00    +0.000 A 
ATOM     13  C   UNL     1     140.505 132.319 133.291  0.00  0.00    +0.000 A 
ATOM     14  C   UNL     1     138.709 131.817 134.805  0.00  0.00    +0.000 A 
ATOM     15  C   UNL     1     140.311 133.682 133.500  0.00  0.00    +0.000 A 
ATOM     16  C   UNL     1     138.504 133.179 135.024  0.00  0.00    +0.000 A 
ATOM     17  C   UNL     1     139.309 134.101 134.368  0.00  0.00    +0.000 A 
BRANCH  17  18
ATOM     18  O   UNL     1     139.093 135.429 134.595  0.00  0.00    +0.000 OA
ATOM     19  H   UNL     1     138.485 135.514 135.351  0.00  0.00    +0.000 HD
ENDBRANCH  17  18
ENDBRANCH   4  12
BRANCH   7  20
ATOM     20  O   UNL     1     138.536 127.193 130.554  0.00  0.00    +0.000 OA
ATOM     21  H   UNL     1     138.354 126.414 129.980  0.00  0.00    +0.000 HD
ENDBRANCH   7  20
BRANCH  11  22
ATOM     22  O   UNL     1     140.807 123.639 132.726  0.00  0.00    +0.000 OA
ATOM     23  H   UNL     1     141.777 123.584 132.783  0.00  0.00    +0.000 HD
ENDBRANCH  11  22
TORSDOF 4
ENDMDL
MODEL 7
REMARK VINA RESULT:      -6.4     34.128     36.780
REMARK  Name = Genistein.pdbqt.pdb
REMARK  4 active torsions:
REMARK  status: ('A' for Active; 'I' for Inactive)
REMARK    1  A    between atoms: C_4  and  C_12
REMARK    2  A    between atoms: C_7  and  O_20
REMARK    3  A    between atoms: C_11  and  O_22
REMARK    4  A    between atoms: C_17  and  O_18
REMARK                            x       y       z     vdW  Elec       q    Type
REMARK                         _______ _______ _______ _____ _____    ______ ____
ROOT
ATOM      1  O   UNL     1     145.871 127.656 100.535  0.00  0.00    +0.000 OA
ATOM      2  O   UNL     1     143.687 126.893  97.049  0.00  0.00    +0.000 OA
ATOM      3  C   UNL     1     145.619 127.827  98.071  0.00  0.00    +0.000 A 
ATOM      4  C   UNL     1     143.828 126.668  99.450  0.00  0.00    +0.000 A 
ATOM      5  C   UNL     1     146.330 128.066  99.285  0.00  0.00    +0.000 A 
ATOM      6  C   UNL     1     144.297 127.097  98.092  0.00  0.00    +0.000 A 
ATOM      7  C   UNL     1     146.160 128.277  96.863  0.00  0.00    +0.000 A 
ATOM      8  C   UNL     1     144.718 127.050 100.310  0.00  0.00    +0.000 A 
ATOM      9  C   UNL     1     147.548 128.739  99.266  0.00  0.00    +0.000 A 
ATOM     10  C   UNL     1     147.380 128.950  96.852  0.00  0.00    +0.000 A 
ATOM     11  C   UNL     1     148.061 129.174  98.048  0.00  0.00    +0.000 A 
ENDROOT
BRANCH   4  12
ATOM     12  C   UNL     1     142.594 125.950  99.764  0.00  0.00    +0.000 A 
ATOM     13  C   UNL     1     142.329 124.693  99.215  0.00  0.00    +0.000 A 
ATOM     14  C   UNL     1     141.646 126.510 100.629  0.00  0.00    +0.000 A 
ATOM     15  C   UNL     1     141.154 124.008  99.515  0.00  0.00    +0.000 A 
ATOM     16  C   UNL     1     140.465 125.836 100.937  0.00  0.00    +0.000 A 
ATOM     17  C   UNL     1     140.229 124.588 100.376  0.00  0.00    +0.000 A 
BRANCH  17  18
ATOM     18  O   UNL     1     139.069 123.944 100.690  0.00  0.00    +0.000 OA
ATOM     19  H   UNL     1     139.214 123.437 101.509  0.00  0.00    +0.000 HD
ENDBRANCH  17  18
ENDBRANCH   4  12
BRANCH   7  20
ATOM     20  O   UNL     1     145.551 128.093  95.651  0.00  0.00    +0.000 OA
ATOM     21  H   UNL     1     144.931 128.842  95.493  0.00  0.00    +0.000 HD
ENDBRANCH   7  20
BRANCH  11  22
ATOM     22  O   UNL     1     149.256 129.832  98.049  0.00  0.00    +0.000 OA
ATOM     23  H   UNL     1     149.109 130.729  98.397  0.00  0.00    +0.000 HD
ENDBRANCH  11  22
TORSDOF 4
ENDMDL
MODEL 8
REMARK VINA RESULT:      -6.4     31.110     33.983
REMARK  Name = Genistein.pdbqt.pdb
REMARK  4 active torsions:
REMARK  status: ('A' for Active; 'I' for Inactive)
REMARK    1  A    between atoms: C_4  and  C_12
REMARK    2  A    between atoms: C_7  and  O_20
REMARK    3  A    between atoms: C_11  and  O_22
REMARK    4  A    between atoms: C_17  and  O_18
REMARK                            x       y       z     vdW  Elec       q    Type
REMARK                         _______ _______ _______ _____ _____    ______ ____
ROOT
ATOM      1  O   UNL     1     142.439 127.191 100.729  0.00  0.00    +0.000 OA
ATOM      2  O   UNL     1     144.232 123.537 101.701  0.00  0.00    +0.000 OA
ATOM      3  C   UNL     1     143.136 124.896 100.087  0.00  0.00    +0.000 A 
ATOM      4  C   UNL     1     143.600 125.751 102.434  0.00  0.00    +0.000 A 
ATOM      5  C   UNL     1     142.534 126.157  99.800  0.00  0.00    +0.000 A 
ATOM      6  C   UNL     1     143.715 124.621 101.455  0.00  0.00    +0.000 A 
ATOM      7  C   UNL     1     143.184 123.919  99.089  0.00  0.00    +0.000 A 
ATOM      8  C   UNL     1     143.001 126.730 101.833  0.00  0.00    +0.000 A 
ATOM      9  C   UNL     1     141.999 126.410  98.539  0.00  0.00    +0.000 A 
ATOM     10  C   UNL     1     142.647 124.180  97.830  0.00  0.00    +0.000 A 
ATOM     11  C   UNL     1     142.063 125.417  97.567  0.00  0.00    +0.000 A 
ENDROOT
BRANCH   4  12
ATOM     12  C   UNL     1     144.069 125.762 103.818  0.00  0.00    +0.000 A 
ATOM     13  C   UNL     1     143.442 124.990 104.800  0.00  0.00    +0.000 A 
ATOM     14  C   UNL     1     145.164 126.550 104.192  0.00  0.00    +0.000 A 
ATOM     15  C   UNL     1     143.889 124.999 106.119  0.00  0.00    +0.000 A 
ATOM     16  C   UNL     1     145.621 126.569 105.509  0.00  0.00    +0.000 A 
ATOM     17  C   UNL     1     144.978 125.792 106.462  0.00  0.00    +0.000 A 
BRANCH  17  18
ATOM     18  O   UNL     1     145.441 125.823 107.746  0.00  0.00    +0.000 OA
ATOM     19  H   UNL     1     145.470 124.910 108.082  0.00  0.00    +0.000 HD
ENDBRANCH  17  18
ENDBRANCH   4  12
BRANCH   7  20
ATOM     20  O   UNL     1     143.742 122.682  99.273  0.00  0.00    +0.000 OA
ATOM     21  H   UNL     1     144.254 122.444  98.467  0.00  0.00    +0.000 HD
ENDBRANCH   7  20
BRANCH  11  22
ATOM     22  O   UNL     1     141.535 125.684  96.337  0.00  0.00    +0.000 OA
ATOM     23  H   UNL     1     141.935 125.072  95.695  0.00  0.00    +0.000 HD
ENDBRANCH  11  22
TORSDOF 4
ENDMDL
MODEL 9
REMARK VINA RESULT:      -6.2     33.546     36.774
REMARK  Name = Genistein.pdbqt.pdb
REMARK  4 active torsions:
REMARK  status: ('A' for Active; 'I' for Inactive)
REMARK    1  A    between atoms: C_4  and  C_12
REMARK    2  A    between atoms: C_7  and  O_20
REMARK    3  A    between atoms: C_11  and  O_22
REMARK    4  A    between atoms: C_17  and  O_18
REMARK                            x       y       z     vdW  Elec       q    Type
REMARK                         _______ _______ _______ _____ _____    ______ ____
ROOT
ATOM      1  O   UNL     1     144.232 125.570 100.504  0.00  0.00    +0.000 OA
ATOM      2  O   UNL     1     147.170 128.528 100.153  0.00  0.00    +0.000 OA
ATOM      3  C   UNL     1     145.714 127.267 101.547  0.00  0.00    +0.000 A 
ATOM      4  C   UNL     1     145.774 126.907  99.033  0.00  0.00    +0.000 A 
ATOM      5  C   UNL     1     144.714 126.252 101.619  0.00  0.00    +0.000 A 
ATOM      6  C   UNL     1     146.311 127.656 100.215  0.00  0.00    +0.000 A 
ATOM      7  C   UNL     1     146.136 127.896 102.722  0.00  0.00    +0.000 A 
ATOM      8  C   UNL     1     144.887 126.070  99.470  0.00  0.00    +0.000 A 
ATOM      9  C   UNL     1     144.164 125.894 102.847  0.00  0.00    +0.000 A 
ATOM     10  C   UNL     1     145.580 127.531 103.947  0.00  0.00    +0.000 A 
ATOM     11  C   UNL     1     144.604 126.538 103.998  0.00  0.00    +0.000 A 
ENDROOT
BRANCH   4  12
ATOM     12  C   UNL     1     146.167 127.077  97.635  0.00  0.00    +0.000 A 
ATOM     13  C   UNL     1     147.402 126.617  97.171  0.00  0.00    +0.000 A 
ATOM     14  C   UNL     1     145.308 127.705  96.726  0.00  0.00    +0.000 A 
ATOM     15  C   UNL     1     147.777 126.778  95.839  0.00  0.00    +0.000 A 
ATOM     16  C   UNL     1     145.670 127.874  95.391  0.00  0.00    +0.000 A 
ATOM     17  C   UNL     1     146.905 127.407  94.958  0.00  0.00    +0.000 A 
BRANCH  17  18
ATOM     18  O   UNL     1     147.241 127.580  93.647  0.00  0.00    +0.000 OA
ATOM     19  H   UNL     1     146.662 128.268  93.273  0.00  0.00    +0.000 HD
ENDBRANCH  17  18
ENDBRANCH   4  12
BRANCH   7  20
ATOM     20  O   UNL     1     147.089 128.878 102.749  0.00  0.00    +0.000 OA
ATOM     21  H   UNL     1     147.136 129.246 103.661  0.00  0.00    +0.000 HD
ENDBRANCH   7  20
BRANCH  11  22
ATOM     22  O   UNL     1     144.053 126.172 105.192  0.00  0.00    +0.000 OA
ATOM     23  H   UNL     1     144.046 126.952 105.775  0.00  0.00    +0.000 HD
ENDBRANCH  11  22
TORSDOF 4
ENDMDL
