MODEL 1
REMARK VINA RESULT:      -7.0      0.000      0.000
REMARK  Name = Hyoscyamine.pdbqt.pdb
REMARK  6 active torsions:
REMARK  status: ('A' for Active; 'I' for Inactive)
REMARK    1  A    between atoms: C_2  and  O_3
REMARK    2  A    between atoms: C_2  and  C_13
REMARK    3  A    between atoms: O_3  and  C_4
REMARK    4  A    between atoms: C_13  and  C_14
REMARK    5  A    between atoms: C_13  and  C_20
REMARK    6  A    between atoms: C_20  and  O_21
REMARK                            x       y       z     vdW  Elec       q    Type
REMARK                         _______ _______ _______ _____ _____    ______ ____
ROOT
ATOM      1  O   UNL     1     141.388 125.193 135.668  0.00  0.00    +0.000 OA
ATOM      2  C   UNL     1     140.791 125.359 134.611  0.00  0.00    +0.000 C 
ENDROOT
BRANCH   2   3
ATOM      3  O   UNL     1     140.110 124.415 133.898  0.00  0.00    +0.000 OA
BRANCH   3   4
ATOM      4  C   UNL     1     138.825 124.183 134.390  0.00  0.00    +0.000 C 
ATOM      5  C   UNL     1     138.494 122.932 135.050  0.00  0.00    +0.000 C 
ATOM      6  C   UNL     1     137.254 122.160 134.900  0.00  0.00    +0.000 C 
ATOM      7  N   UNL     1     136.942 122.240 133.400  0.00  0.00    +0.000 NA
ATOM      8  C   UNL     1     136.110 122.790 135.535  0.00  0.00    +0.000 C 
ATOM      9  C   UNL     1     136.462 123.700 133.387  0.00  0.00    +0.000 C 
ATOM     10  C   UNL     1     135.861 121.316 133.025  0.00  0.00    +0.000 C 
ATOM     11  C   UNL     1     135.573 123.815 134.534  0.00  0.00    +0.000 C 
ATOM     12  C   UNL     1     137.697 124.486 133.532  0.00  0.00    +0.000 C 
ENDBRANCH   3   4
ENDBRANCH   2   3
BRANCH   2  13
ATOM     13  C   UNL     1     140.753 126.671 133.900  0.00  0.00    +0.000 C 
BRANCH  13  14
ATOM     14  C   UNL     1     140.358 126.828 132.488  0.00  0.00    +0.000 A 
ATOM     15  C   UNL     1     140.959 126.045 131.496  0.00  0.00    +0.000 A 
ATOM     16  C   UNL     1     140.622 126.207 130.153  0.00  0.00    +0.000 A 
ATOM     17  C   UNL     1     139.682 127.164 129.783  0.00  0.00    +0.000 A 
ATOM     18  C   UNL     1     139.082 127.957 130.756  0.00  0.00    +0.000 A 
ATOM     19  C   UNL     1     139.424 127.790 132.097  0.00  0.00    +0.000 A 
ENDBRANCH  13  14
BRANCH  13  20
ATOM     20  C   UNL     1     141.060 127.835 134.674  0.00  0.00    +0.000 C 
BRANCH  20  21
ATOM     21  O   UNL     1     141.344 128.916 135.393  0.00  0.00    +0.000 OA
ATOM     22  H   UNL     1     142.303 128.982 135.544  0.00  0.00    +0.000 HD
ENDBRANCH  20  21
ENDBRANCH  13  20
ENDBRANCH   2  13
TORSDOF 6
ENDMDL
MODEL 2
REMARK VINA RESULT:      -6.4     31.740     34.115
REMARK  Name = Hyoscyamine.pdbqt.pdb
REMARK  6 active torsions:
REMARK  status: ('A' for Active; 'I' for Inactive)
REMARK    1  A    between atoms: C_2  and  O_3
REMARK    2  A    between atoms: C_2  and  C_13
REMARK    3  A    between atoms: O_3  and  C_4
REMARK    4  A    between atoms: C_13  and  C_14
REMARK    5  A    between atoms: C_13  and  C_20
REMARK    6  A    between atoms: C_20  and  O_21
REMARK                            x       y       z     vdW  Elec       q    Type
REMARK                         _______ _______ _______ _____ _____    ______ ____
ROOT
ATOM      1  O   UNL     1     141.754 126.943  99.535  0.00  0.00    +0.000 OA
ATOM      2  C   UNL     1     141.895 125.853 100.076  0.00  0.00    +0.000 C 
ENDROOT
BRANCH   2   3
ATOM      3  O   UNL     1     142.693 125.566 101.145  0.00  0.00    +0.000 OA
BRANCH   3   4
ATOM      4  C   UNL     1     143.779 126.433 101.262  0.00  0.00    +0.000 C 
ATOM      5  C   UNL     1     144.920 126.322 100.370  0.00  0.00    +0.000 C 
ATOM      6  C   UNL     1     146.337 126.457 100.732  0.00  0.00    +0.000 C 
ATOM      7  N   UNL     1     146.451 125.724 102.076  0.00  0.00    +0.000 NA
ATOM      8  C   UNL     1     146.719 127.824 101.040  0.00  0.00    +0.000 C 
ATOM      9  C   UNL     1     145.755 126.795 102.932  0.00  0.00    +0.000 C 
ATOM     10  C   UNL     1     147.855 125.547 102.475  0.00  0.00    +0.000 C 
ATOM     11  C   UNL     1     146.339 128.058 102.503  0.00  0.00    +0.000 C 
ATOM     12  C   UNL     1     144.332 126.667 102.581  0.00  0.00    +0.000 C 
ENDBRANCH   3   4
ENDBRANCH   2   3
BRANCH   2  13
ATOM     13  C   UNL     1     141.212 124.616  99.593  0.00  0.00    +0.000 C 
BRANCH  13  14
ATOM     14  C   UNL     1     141.776 123.713  98.573  0.00  0.00    +0.000 A 
ATOM     15  C   UNL     1     143.126 123.347  98.622  0.00  0.00    +0.000 A 
ATOM     16  C   UNL     1     143.681 122.524  97.644  0.00  0.00    +0.000 A 
ATOM     17  C   UNL     1     142.893 122.062  96.595  0.00  0.00    +0.000 A 
ATOM     18  C   UNL     1     141.552 122.424  96.525  0.00  0.00    +0.000 A 
ATOM     19  C   UNL     1     141.002 123.248  97.507  0.00  0.00    +0.000 A 
ENDBRANCH  13  14
BRANCH  13  20
ATOM     20  C   UNL     1     139.972 124.276 100.221  0.00  0.00    +0.000 C 
BRANCH  20  21
ATOM     21  O   UNL     1     138.820 123.960 100.803  0.00  0.00    +0.000 OA
ATOM     22  H   UNL     1     138.071 124.202 100.231  0.00  0.00    +0.000 HD
ENDBRANCH  20  21
ENDBRANCH  13  20
ENDBRANCH   2  13
TORSDOF 6
ENDMDL
MODEL 3
REMARK VINA RESULT:      -6.2     32.177     34.375
REMARK  Name = Hyoscyamine.pdbqt.pdb
REMARK  6 active torsions:
REMARK  status: ('A' for Active; 'I' for Inactive)
REMARK    1  A    between atoms: C_2  and  O_3
REMARK    2  A    between atoms: C_2  and  C_13
REMARK    3  A    between atoms: O_3  and  C_4
REMARK    4  A    between atoms: C_13  and  C_14
REMARK    5  A    between atoms: C_13  and  C_20
REMARK    6  A    between atoms: C_20  and  O_21
REMARK                            x       y       z     vdW  Elec       q    Type
REMARK                         _______ _______ _______ _____ _____    ______ ____
ROOT
ATOM      1  O   UNL     1     147.084 125.881  97.535  0.00  0.00    +0.000 OA
ATOM      2  C   UNL     1     146.588 126.752  98.240  0.00  0.00    +0.000 C 
ENDROOT
BRANCH   2   3
ATOM      3  O   UNL     1     145.296 127.188  98.214  0.00  0.00    +0.000 OA
BRANCH   3   4
ATOM      4  C   UNL     1     144.372 126.167  98.439  0.00  0.00    +0.000 C 
ATOM      5  C   UNL     1     142.996 126.296  97.995  0.00  0.00    +0.000 C 
ATOM      6  C   UNL     1     141.792 125.882  98.728  0.00  0.00    +0.000 C 
ATOM      7  N   UNL     1     142.079 126.290 100.179  0.00  0.00    +0.000 NA
ATOM      8  C   UNL     1     141.630 124.440  98.789  0.00  0.00    +0.000 C 
ATOM      9  C   UNL     1     143.091 125.176 100.489  0.00  0.00    +0.000 C 
ATOM     10  C   UNL     1     140.877 126.172 101.018  0.00  0.00    +0.000 C 
ATOM     11  C   UNL     1     142.488 123.961  99.961  0.00  0.00    +0.000 C 
ATOM     12  C   UNL     1     144.305 125.582  99.763  0.00  0.00    +0.000 C 
ENDBRANCH   3   4
ENDBRANCH   2   3
BRANCH   2  13
ATOM     13  C   UNL     1     147.376 127.523  99.247  0.00  0.00    +0.000 C 
BRANCH  13  14
ATOM     14  C   UNL     1     147.323 127.267 100.699  0.00  0.00    +0.000 A 
ATOM     15  C   UNL     1     147.697 126.019 101.210  0.00  0.00    +0.000 A 
ATOM     16  C   UNL     1     147.618 125.751 102.576  0.00  0.00    +0.000 A 
ATOM     17  C   UNL     1     147.153 126.729 103.449  0.00  0.00    +0.000 A 
ATOM     18  C   UNL     1     146.767 127.971 102.956  0.00  0.00    +0.000 A 
ATOM     19  C   UNL     1     146.849 128.233 101.589  0.00  0.00    +0.000 A 
ENDBRANCH  13  14
BRANCH  13  20
ATOM     20  C   UNL     1     148.274 128.516  98.743  0.00  0.00    +0.000 C 
BRANCH  20  21
ATOM     21  O   UNL     1     149.107 129.439  98.275  0.00  0.00    +0.000 OA
ATOM     22  H   UNL     1     149.275 129.297  97.327  0.00  0.00    +0.000 HD
ENDBRANCH  20  21
ENDBRANCH  13  20
ENDBRANCH   2  13
TORSDOF 6
ENDMDL
MODEL 4
REMARK VINA RESULT:      -6.2     32.186     34.455
REMARK  Name = Hyoscyamine.pdbqt.pdb
REMARK  6 active torsions:
REMARK  status: ('A' for Active; 'I' for Inactive)
REMARK    1  A    between atoms: C_2  and  O_3
REMARK    2  A    between atoms: C_2  and  C_13
REMARK    3  A    between atoms: O_3  and  C_4
REMARK    4  A    between atoms: C_13  and  C_14
REMARK    5  A    between atoms: C_13  and  C_20
REMARK    6  A    between atoms: C_20  and  O_21
REMARK                            x       y       z     vdW  Elec       q    Type
REMARK                         _______ _______ _______ _____ _____    ______ ____
ROOT
ATOM      1  O   UNL     1     144.219 125.401 102.800  0.00  0.00    +0.000 OA
ATOM      2  C   UNL     1     143.808 126.147 101.921  0.00  0.00    +0.000 C 
ENDROOT
BRANCH   2   3
ATOM      3  O   UNL     1     144.373 127.321 101.513  0.00  0.00    +0.000 OA
BRANCH   3   4
ATOM      4  C   UNL     1     145.502 127.134 100.716  0.00  0.00    +0.000 C 
ATOM      5  C   UNL     1     146.680 127.966 100.885  0.00  0.00    +0.000 C 
ATOM      6  C   UNL     1     147.525 128.522  99.820  0.00  0.00    +0.000 C 
ATOM      7  N   UNL     1     146.526 128.968  98.744  0.00  0.00    +0.000 NA
ATOM      8  C   UNL     1     148.338 127.518  99.156  0.00  0.00    +0.000 C 
ATOM      9  C   UNL     1     146.169 127.565  98.228  0.00  0.00    +0.000 C 
ATOM     10  C   UNL     1     147.181 129.773  97.703  0.00  0.00    +0.000 C 
ATOM     11  C   UNL     1     147.446 126.878  98.091  0.00  0.00    +0.000 C 
ATOM     12  C   UNL     1     145.318 126.998  99.285  0.00  0.00    +0.000 C 
ENDBRANCH   3   4
ENDBRANCH   2   3
BRANCH   2  13
ATOM     13  C   UNL     1     142.550 125.887 101.160  0.00  0.00    +0.000 C 
BRANCH  13  14
ATOM     14  C   UNL     1     142.391 124.787 100.190  0.00  0.00    +0.000 A 
ATOM     15  C   UNL     1     143.509 124.072  99.745  0.00  0.00    +0.000 A 
ATOM     16  C   UNL     1     143.379 123.054  98.801  0.00  0.00    +0.000 A 
ATOM     17  C   UNL     1     142.126 122.744  98.283  0.00  0.00    +0.000 A 
ATOM     18  C   UNL     1     141.006 123.451  98.707  0.00  0.00    +0.000 A 
ATOM     19  C   UNL     1     141.143 124.468  99.650  0.00  0.00    +0.000 A 
ENDBRANCH  13  14
BRANCH  13  20
ATOM     20  C   UNL     1     141.430 126.726 101.456  0.00  0.00    +0.000 C 
BRANCH  20  21
ATOM     21  O   UNL     1     140.389 127.506 101.730  0.00  0.00    +0.000 OA
ATOM     22  H   UNL     1     140.275 128.179 101.036  0.00  0.00    +0.000 HD
ENDBRANCH  20  21
ENDBRANCH  13  20
ENDBRANCH   2  13
TORSDOF 6
ENDMDL
MODEL 5
REMARK VINA RESULT:      -6.0     31.070     33.989
REMARK  Name = Hyoscyamine.pdbqt.pdb
REMARK  6 active torsions:
REMARK  status: ('A' for Active; 'I' for Inactive)
REMARK    1  A    between atoms: C_2  and  O_3
REMARK    2  A    between atoms: C_2  and  C_13
REMARK    3  A    between atoms: O_3  and  C_4
REMARK    4  A    between atoms: C_13  and  C_14
REMARK    5  A    between atoms: C_13  and  C_20
REMARK    6  A    between atoms: C_20  and  O_21
REMARK                            x       y       z     vdW  Elec       q    Type
REMARK                         _______ _______ _______ _____ _____    ______ ____
ROOT
ATOM      1  O   UNL     1     143.823 123.745 101.183  0.00  0.00    +0.000 OA
ATOM      2  C   UNL     1     143.541 124.913 101.424  0.00  0.00    +0.000 C 
ENDROOT
BRANCH   2   3
ATOM      3  O   UNL     1     142.328 125.514 101.250  0.00  0.00    +0.000 OA
BRANCH   3   4
ATOM      4  C   UNL     1     141.775 125.270  99.993  0.00  0.00    +0.000 C 
ATOM      5  C   UNL     1     141.009 124.063  99.738  0.00  0.00    +0.000 C 
ATOM      6  C   UNL     1     141.054 123.232  98.528  0.00  0.00    +0.000 C 
ATOM      7  N   UNL     1     142.544 123.181  98.164  0.00  0.00    +0.000 NA
ATOM      8  C   UNL     1     140.429 123.864  97.379  0.00  0.00    +0.000 C 
ATOM      9  C   UNL     1     142.653 124.615  97.622  0.00  0.00    +0.000 C 
ATOM     10  C   UNL     1     142.808 122.188  97.112  0.00  0.00    +0.000 C 
ATOM     11  C   UNL     1     141.486 124.784  96.766  0.00  0.00    +0.000 C 
ATOM     12  C   UNL     1     142.613 125.459  98.826  0.00  0.00    +0.000 C 
ENDBRANCH   3   4
ENDBRANCH   2   3
BRANCH   2  13
ATOM     13  C   UNL     1     144.541 125.900 101.928  0.00  0.00    +0.000 C 
BRANCH  13  14
ATOM     14  C   UNL     1     145.614 126.478 101.097  0.00  0.00    +0.000 A 
ATOM     15  C   UNL     1     146.132 127.744 101.392  0.00  0.00    +0.000 A 
ATOM     16  C   UNL     1     147.120 128.318 100.594  0.00  0.00    +0.000 A 
ATOM     17  C   UNL     1     147.597 127.634  99.481  0.00  0.00    +0.000 A 
ATOM     18  C   UNL     1     147.086 126.380  99.167  0.00  0.00    +0.000 A 
ATOM     19  C   UNL     1     146.097 125.811  99.969  0.00  0.00    +0.000 A 
ENDBRANCH  13  14
BRANCH  13  20
ATOM     20  C   UNL     1     144.387 126.343 103.280  0.00  0.00    +0.000 C 
BRANCH  20  21
ATOM     21  O   UNL     1     144.245 126.754 104.535  0.00  0.00    +0.000 OA
ATOM     22  H   UNL     1     144.217 125.994 105.143  0.00  0.00    +0.000 HD
ENDBRANCH  20  21
ENDBRANCH  13  20
ENDBRANCH   2  13
TORSDOF 6
ENDMDL
MODEL 6
REMARK VINA RESULT:      -5.9     33.747     35.612
REMARK  Name = Hyoscyamine.pdbqt.pdb
REMARK  6 active torsions:
REMARK  status: ('A' for Active; 'I' for Inactive)
REMARK    1  A    between atoms: C_2  and  O_3
REMARK    2  A    between atoms: C_2  and  C_13
REMARK    3  A    between atoms: O_3  and  C_4
REMARK    4  A    between atoms: C_13  and  C_14
REMARK    5  A    between atoms: C_13  and  C_20
REMARK    6  A    between atoms: C_20  and  O_21
REMARK                            x       y       z     vdW  Elec       q    Type
REMARK                         _______ _______ _______ _____ _____    ______ ____
ROOT
ATOM      1  O   UNL     1     143.356 124.520 101.194  0.00  0.00    +0.000 OA
ATOM      2  C   UNL     1     142.953 124.830 100.080  0.00  0.00    +0.000 C 
ENDROOT
BRANCH   2   3
ATOM      3  O   UNL     1     143.279 125.953  99.375  0.00  0.00    +0.000 OA
BRANCH   3   4
ATOM      4  C   UNL     1     144.538 126.456  99.705  0.00  0.00    +0.000 C 
ATOM      5  C   UNL     1     144.812 127.881  99.638  0.00  0.00    +0.000 C 
ATOM      6  C   UNL     1     146.037 128.519  99.139  0.00  0.00    +0.000 C 
ATOM      7  N   UNL     1     146.409 127.696  97.898  0.00  0.00    +0.000 NA
ATOM      8  C   UNL     1     147.172 128.349 100.030  0.00  0.00    +0.000 C 
ATOM      9  C   UNL     1     146.925 126.455  98.644  0.00  0.00    +0.000 C 
ATOM     10  C   UNL     1     147.480 128.342  97.125  0.00  0.00    +0.000 C 
ATOM     11  C   UNL     1     147.772 126.980  99.707  0.00  0.00    +0.000 C 
ATOM     12  C   UNL     1     145.705 125.804  99.146  0.00  0.00    +0.000 C 
ENDBRANCH   3   4
ENDBRANCH   2   3
BRANCH   2  13
ATOM     13  C   UNL     1     141.972 124.005  99.315  0.00  0.00    +0.000 C 
BRANCH  13  14
ATOM     14  C   UNL     1     142.325 123.203  98.128  0.00  0.00    +0.000 A 
ATOM     15  C   UNL     1     143.667 122.988  97.795  0.00  0.00    +0.000 A 
ATOM     16  C   UNL     1     144.015 122.263  96.656  0.00  0.00    +0.000 A 
ATOM     17  C   UNL     1     143.021 121.750  95.829  0.00  0.00    +0.000 A 
ATOM     18  C   UNL     1     141.683 121.964  96.140  0.00  0.00    +0.000 A 
ATOM     19  C   UNL     1     141.341 122.690  97.280  0.00  0.00    +0.000 A 
ENDBRANCH  13  14
BRANCH  13  20
ATOM     20  C   UNL     1     140.635 123.955  99.821  0.00  0.00    +0.000 C 
BRANCH  20  21
ATOM     21  O   UNL     1     139.394 123.909 100.292  0.00  0.00    +0.000 OA
ATOM     22  H   UNL     1     139.365 123.417 101.132  0.00  0.00    +0.000 HD
ENDBRANCH  20  21
ENDBRANCH  13  20
ENDBRANCH   2  13
TORSDOF 6
ENDMDL
MODEL 7
REMARK VINA RESULT:      -5.8     30.572     33.854
REMARK  Name = Hyoscyamine.pdbqt.pdb
REMARK  6 active torsions:
REMARK  status: ('A' for Active; 'I' for Inactive)
REMARK    1  A    between atoms: C_2  and  O_3
REMARK    2  A    between atoms: C_2  and  C_13
REMARK    3  A    between atoms: O_3  and  C_4
REMARK    4  A    between atoms: C_13  and  C_14
REMARK    5  A    between atoms: C_13  and  C_20
REMARK    6  A    between atoms: C_20  and  O_21
REMARK                            x       y       z     vdW  Elec       q    Type
REMARK                         _______ _______ _______ _____ _____    ______ ____
ROOT
ATOM      1  O   UNL     1     143.386 124.282 100.497  0.00  0.00    +0.000 OA
ATOM      2  C   UNL     1     143.325 125.505 100.470  0.00  0.00    +0.000 C 
ENDROOT
BRANCH   2   3
ATOM      3  O   UNL     1     143.625 126.316  99.414  0.00  0.00    +0.000 OA
BRANCH   3   4
ATOM      4  C   UNL     1     144.907 126.861  99.493  0.00  0.00    +0.000 C 
ATOM      5  C   UNL     1     145.139 128.266  99.208  0.00  0.00    +0.000 C 
ATOM      6  C   UNL     1     146.267 128.838  98.461  0.00  0.00    +0.000 C 
ATOM      7  N   UNL     1     146.476 127.863  97.294  0.00  0.00    +0.000 NA
ATOM      8  C   UNL     1     147.520 128.787  99.195  0.00  0.00    +0.000 C 
ATOM      9  C   UNL     1     147.119 126.731  98.110  0.00  0.00    +0.000 C 
ATOM     10  C   UNL     1     147.412 128.408  96.300  0.00  0.00    +0.000 C 
ATOM     11  C   UNL     1     148.097 127.389  98.964  0.00  0.00    +0.000 C 
ATOM     12  C   UNL     1     145.996 126.146  98.860  0.00  0.00    +0.000 C 
ENDBRANCH   3   4
ENDBRANCH   2   3
BRANCH   2  13
ATOM     13  C   UNL     1     142.933 126.323 101.656  0.00  0.00    +0.000 C 
BRANCH  13  14
ATOM     14  C   UNL     1     143.727 126.403 102.896  0.00  0.00    +0.000 A 
ATOM     15  C   UNL     1     144.796 127.301 102.993  0.00  0.00    +0.000 A 
ATOM     16  C   UNL     1     145.579 127.361 104.145  0.00  0.00    +0.000 A 
ATOM     17  C   UNL     1     145.306 126.515 105.215  0.00  0.00    +0.000 A 
ATOM     18  C   UNL     1     144.254 125.609 105.131  0.00  0.00    +0.000 A 
ATOM     19  C   UNL     1     143.475 125.553 103.976  0.00  0.00    +0.000 A 
ENDBRANCH  13  14
BRANCH  13  20
ATOM     20  C   UNL     1     141.748 127.116 101.531  0.00  0.00    +0.000 C 
BRANCH  20  21
ATOM     21  O   UNL     1     140.648 127.852 101.415  0.00  0.00    +0.000 OA
ATOM     22  H   UNL     1     140.824 128.772 101.680  0.00  0.00    +0.000 HD
ENDBRANCH  20  21
ENDBRANCH  13  20
ENDBRANCH   2  13
TORSDOF 6
ENDMDL
MODEL 8
REMARK VINA RESULT:      -5.7     33.285     35.503
REMARK  Name = Hyoscyamine.pdbqt.pdb
REMARK  6 active torsions:
REMARK  status: ('A' for Active; 'I' for Inactive)
REMARK    1  A    between atoms: C_2  and  O_3
REMARK    2  A    between atoms: C_2  and  C_13
REMARK    3  A    between atoms: O_3  and  C_4
REMARK    4  A    between atoms: C_13  and  C_14
REMARK    5  A    between atoms: C_13  and  C_20
REMARK    6  A    between atoms: C_20  and  O_21
REMARK                            x       y       z     vdW  Elec       q    Type
REMARK                         _______ _______ _______ _____ _____    ______ ____
ROOT
ATOM      1  O   UNL     1     144.706 125.386 100.054  0.00  0.00    +0.000 OA
ATOM      2  C   UNL     1     144.011 126.389 100.167  0.00  0.00    +0.000 C 
ENDROOT
BRANCH   2   3
ATOM      3  O   UNL     1     144.411 127.618 100.603  0.00  0.00    +0.000 OA
BRANCH   3   4
ATOM      4  C   UNL     1     145.364 128.207  99.772  0.00  0.00    +0.000 C 
ATOM      5  C   UNL     1     145.235 128.143  98.327  0.00  0.00    +0.000 C 
ATOM      6  C   UNL     1     146.313 127.913  97.357  0.00  0.00    +0.000 C 
ATOM      7  N   UNL     1     147.180 126.828  98.010  0.00  0.00    +0.000 NA
ATOM      8  C   UNL     1     147.209 129.048  97.220  0.00  0.00    +0.000 C 
ATOM      9  C   UNL     1     147.835 127.727  99.071  0.00  0.00    +0.000 C 
ATOM     10  C   UNL     1     148.176 126.296  97.068  0.00  0.00    +0.000 C 
ATOM     11  C   UNL     1     148.228 128.932  98.355  0.00  0.00    +0.000 C 
ATOM     12  C   UNL     1     146.765 127.961 100.054  0.00  0.00    +0.000 C 
ENDBRANCH   3   4
ENDBRANCH   2   3
BRANCH   2  13
ATOM     13  C   UNL     1     142.549 126.398  99.864  0.00  0.00    +0.000 C 
BRANCH  13  14
ATOM     14  C   UNL     1     141.906 125.486  98.899  0.00  0.00    +0.000 A 
ATOM     15  C   UNL     1     141.988 125.740  97.525  0.00  0.00    +0.000 A 
ATOM     16  C   UNL     1     141.354 124.908  96.603  0.00  0.00    +0.000 A 
ATOM     17  C   UNL     1     140.621 123.813  97.046  0.00  0.00    +0.000 A 
ATOM     18  C   UNL     1     140.521 123.552  98.409  0.00  0.00    +0.000 A 
ATOM     19  C   UNL     1     141.156 124.388  99.326  0.00  0.00    +0.000 A 
ENDBRANCH  13  14
BRANCH  13  20
ATOM     20  C   UNL     1     141.739 127.307 100.615  0.00  0.00    +0.000 C 
BRANCH  20  21
ATOM     21  O   UNL     1     140.986 128.152 101.312  0.00  0.00    +0.000 OA
ATOM     22  H   UNL     1     141.407 129.029 101.354  0.00  0.00    +0.000 HD
ENDBRANCH  20  21
ENDBRANCH  13  20
ENDBRANCH   2  13
TORSDOF 6
ENDMDL
MODEL 9
REMARK VINA RESULT:      -5.6     31.507     34.246
REMARK  Name = Hyoscyamine.pdbqt.pdb
REMARK  6 active torsions:
REMARK  status: ('A' for Active; 'I' for Inactive)
REMARK    1  A    between atoms: C_2  and  O_3
REMARK    2  A    between atoms: C_2  and  C_13
REMARK    3  A    between atoms: O_3  and  C_4
REMARK    4  A    between atoms: C_13  and  C_14
REMARK    5  A    between atoms: C_13  and  C_20
REMARK    6  A    between atoms: C_20  and  O_21
REMARK                            x       y       z     vdW  Elec       q    Type
REMARK                         _______ _______ _______ _____ _____    ______ ____
ROOT
ATOM      1  O   UNL     1     146.435 124.346  98.817  0.00  0.00    +0.000 OA
ATOM      2  C   UNL     1     145.802 124.183  99.853  0.00  0.00    +0.000 C 
ENDROOT
BRANCH   2   3
ATOM      3  O   UNL     1     144.982 123.135 100.155  0.00  0.00    +0.000 OA
BRANCH   3   4
ATOM      4  C   UNL     1     143.878 123.045  99.306  0.00  0.00    +0.000 C 
ATOM      5  C   UNL     1     144.032 123.177  97.868  0.00  0.00    +0.000 C 
ATOM      6  C   UNL     1     143.140 123.897  96.950  0.00  0.00    +0.000 C 
ATOM      7  N   UNL     1     142.770 125.176  97.714  0.00  0.00    +0.000 NA
ATOM      8  C   UNL     1     141.868 123.225  96.746  0.00  0.00    +0.000 C 
ATOM      9  C   UNL     1     141.806 124.523  98.716  0.00  0.00    +0.000 C 
ATOM     10  C   UNL     1     142.074 126.138  96.846  0.00  0.00    +0.000 C 
ATOM     11  C   UNL     1     140.972 123.638  97.915  0.00  0.00    +0.000 C 
ATOM     12  C   UNL     1     142.688 123.800  99.645  0.00  0.00    +0.000 C 
ENDBRANCH   3   4
ENDBRANCH   2   3
BRANCH   2  13
ATOM     13  C   UNL     1     145.808 125.174 100.970  0.00  0.00    +0.000 C 
BRANCH  13  14
ATOM     14  C   UNL     1     144.666 126.049 101.296  0.00  0.00    +0.000 A 
ATOM     15  C   UNL     1     144.287 127.071 100.418  0.00  0.00    +0.000 A 
ATOM     16  C   UNL     1     143.234 127.929 100.730  0.00  0.00    +0.000 A 
ATOM     17  C   UNL     1     142.550 127.781 101.931  0.00  0.00    +0.000 A 
ATOM     18  C   UNL     1     142.920 126.777 102.820  0.00  0.00    +0.000 A 
ATOM     19  C   UNL     1     143.975 125.922 102.503  0.00  0.00    +0.000 A 
ENDBRANCH  13  14
BRANCH  13  20
ATOM     20  C   UNL     1     146.975 125.209 101.797  0.00  0.00    +0.000 C 
BRANCH  20  21
ATOM     21  O   UNL     1     148.060 125.242 102.564  0.00  0.00    +0.000 OA
ATOM     22  H   UNL     1     148.240 124.362 102.938  0.00  0.00    +0.000 HD
ENDBRANCH  20  21
ENDBRANCH  13  20
ENDBRANCH   2  13
TORSDOF 6
ENDMDL
