MODEL 1
REMARK VINA RESULT:      -7.2      0.000      0.000
REMARK  Name = 
REMARK  6 active torsions:
REMARK  status: ('A' for Active; 'I' for Inactive)
REMARK    1  A    between atoms: O_3  and  C_16
REMARK    2  A    between atoms: O_4  and  C_17
REMARK    3  A    between atoms: O_4  and  C_22
REMARK    4  A    between atoms: O_5  and  C_19
REMARK    5  A    between atoms: O_5  and  C_23
REMARK    6  A    between atoms: O_6  and  C_21
REMARK                            x       y       z     vdW  Elec       q    Type
REMARK                         _______ _______ _______ _____ _____    ______ ____
ROOT
ATOM      1  O   UNL     1     144.059 126.482  99.767  0.00  0.00    +0.000 OA
ATOM      2  O   UNL     1     142.280 126.369 103.289  0.00  0.00    +0.000 OA
ATOM      3  C   UNL     1     142.041 127.088 100.952  0.00  0.00    +0.000 C 
ATOM      4  C   UNL     1     143.554 127.307 100.848  0.00  0.00    +0.000 C 
ATOM      5  C   UNL     1     141.938 125.749 100.308  0.00  0.00    +0.000 A 
ATOM      6  C   UNL     1     141.566 127.211 102.385  0.00  0.00    +0.000 C 
ATOM      7  C   UNL     1     144.309 126.998 102.123  0.00  0.00    +0.000 A 
ATOM      8  C   UNL     1     143.117 125.493  99.623  0.00  0.00    +0.000 A 
ATOM      9  C   UNL     1     143.640 126.531 103.268  0.00  0.00    +0.000 A 
ATOM     10  C   UNL     1     140.883 124.853 100.263  0.00  0.00    +0.000 A 
ATOM     11  C   UNL     1     145.704 127.176 102.157  0.00  0.00    +0.000 A 
ATOM     12  C   UNL     1     143.273 124.344  98.875  0.00  0.00    +0.000 A 
ATOM     13  C   UNL     1     144.374 126.200 104.416  0.00  0.00    +0.000 A 
ATOM     14  C   UNL     1     141.035 123.674  99.519  0.00  0.00    +0.000 A 
ATOM     15  C   UNL     1     142.226 123.414  98.821  0.00  0.00    +0.000 A 
ATOM     16  C   UNL     1     146.426 126.899 103.315  0.00  0.00    +0.000 A 
ATOM     17  C   UNL     1     145.756 126.422 104.430  0.00  0.00    +0.000 A 
ENDROOT
BRANCH  12  18
ATOM     18  O   UNL     1     144.438 124.112  98.199  0.00  0.00    +0.000 OA
ATOM     19  H   UNL     1     144.171 123.983  97.270  0.00  0.00    +0.000 HD
ENDBRANCH  12  18
BRANCH  13  20
ATOM     20  O   UNL     1     143.857 125.721 105.597  0.00  0.00    +0.000 OA
ATOM     21  C   UNL     1     143.497 124.341 105.566  0.00  0.00    +0.000 C 
ENDBRANCH  13  20
BRANCH  15  22
ATOM     22  O   UNL     1     142.483 122.302  98.056  0.00  0.00    +0.000 OA
ATOM     23  C   UNL     1     141.900 122.269  96.759  0.00  0.00    +0.000 C 
ENDBRANCH  15  22
BRANCH  17  24
ATOM     24  O   UNL     1     146.484 126.155 105.559  0.00  0.00    +0.000 OA
ATOM     25  H   UNL     1     147.211 125.579 105.256  0.00  0.00    +0.000 HD
ENDBRANCH  17  24
TORSDOF 4
ENDMDL
MODEL 2
REMARK VINA RESULT:      -6.8     30.869     34.282
REMARK  Name = 
REMARK  6 active torsions:
REMARK  status: ('A' for Active; 'I' for Inactive)
REMARK    1  A    between atoms: O_3  and  C_16
REMARK    2  A    between atoms: O_4  and  C_17
REMARK    3  A    between atoms: O_4  and  C_22
REMARK    4  A    between atoms: O_5  and  C_19
REMARK    5  A    between atoms: O_5  and  C_23
REMARK    6  A    between atoms: O_6  and  C_21
REMARK                            x       y       z     vdW  Elec       q    Type
REMARK                         _______ _______ _______ _____ _____    ______ ____
ROOT
ATOM      1  O   UNL     1     137.618 121.687 135.998  0.00  0.00    +0.000 OA
ATOM      2  O   UNL     1     134.051 122.076 134.350  0.00  0.00    +0.000 OA
ATOM      3  C   UNL     1     135.699 123.147 135.825  0.00  0.00    +0.000 C 
ATOM      4  C   UNL     1     136.200 121.775 136.288  0.00  0.00    +0.000 C 
ATOM      5  C   UNL     1     136.744 123.464 134.812  0.00  0.00    +0.000 A 
ATOM      6  C   UNL     1     134.264 123.075 135.347  0.00  0.00    +0.000 C 
ATOM      7  C   UNL     1     135.473 120.609 135.653  0.00  0.00    +0.000 A 
ATOM      8  C   UNL     1     137.820 122.609 135.000  0.00  0.00    +0.000 A 
ATOM      9  C   UNL     1     134.453 120.816 134.709  0.00  0.00    +0.000 A 
ATOM     10  C   UNL     1     136.788 124.456 133.847  0.00  0.00    +0.000 A 
ATOM     11  C   UNL     1     135.831 119.297 136.012  0.00  0.00    +0.000 A 
ATOM     12  C   UNL     1     138.965 122.723 134.238  0.00  0.00    +0.000 A 
ATOM     13  C   UNL     1     133.837 119.716 134.096  0.00  0.00    +0.000 A 
ATOM     14  C   UNL     1     137.940 124.574 133.056  0.00  0.00    +0.000 A 
ATOM     15  C   UNL     1     139.032 123.711 133.247  0.00  0.00    +0.000 A 
ATOM     16  C   UNL     1     135.182 118.204 135.444  0.00  0.00    +0.000 A 
ATOM     17  C   UNL     1     134.191 118.424 134.500  0.00  0.00    +0.000 A 
ENDROOT
BRANCH  12  18
ATOM     18  O   UNL     1     140.019 121.878 134.443  0.00  0.00    +0.000 OA
ATOM     19  H   UNL     1     140.689 122.144 133.786  0.00  0.00    +0.000 HD
ENDBRANCH  12  18
BRANCH  13  20
ATOM     20  O   UNL     1     132.840 119.769 133.150  0.00  0.00    +0.000 OA
ATOM     21  C   UNL     1     133.299 120.023 131.824  0.00  0.00    +0.000 C 
ENDBRANCH  13  20
BRANCH  15  22
ATOM     22  O   UNL     1     140.209 123.737 132.540  0.00  0.00    +0.000 OA
ATOM     23  C   UNL     1     140.492 124.926 131.811  0.00  0.00    +0.000 C 
ENDBRANCH  15  22
BRANCH  17  24
ATOM     24  O   UNL     1     133.565 117.335 133.953  0.00  0.00    +0.000 OA
ATOM     25  H   UNL     1     132.727 117.684 133.592  0.00  0.00    +0.000 HD
ENDBRANCH  17  24
TORSDOF 4
ENDMDL
MODEL 3
REMARK VINA RESULT:      -6.7      1.148      6.470
REMARK  Name = 
REMARK  6 active torsions:
REMARK  status: ('A' for Active; 'I' for Inactive)
REMARK    1  A    between atoms: O_3  and  C_16
REMARK    2  A    between atoms: O_4  and  C_17
REMARK    3  A    between atoms: O_4  and  C_22
REMARK    4  A    between atoms: O_5  and  C_19
REMARK    5  A    between atoms: O_5  and  C_23
REMARK    6  A    between atoms: O_6  and  C_21
REMARK                            x       y       z     vdW  Elec       q    Type
REMARK                         _______ _______ _______ _____ _____    ______ ____
ROOT
ATOM      1  O   UNL     1     142.819 126.690 102.339  0.00  0.00    +0.000 OA
ATOM      2  O   UNL     1     145.205 125.901  99.294  0.00  0.00    +0.000 OA
ATOM      3  C   UNL     1     144.346 127.684 100.750  0.00  0.00    +0.000 C 
ATOM      4  C   UNL     1     143.024 126.928 100.923  0.00  0.00    +0.000 C 
ATOM      5  C   UNL     1     145.024 127.293 102.018  0.00  0.00    +0.000 A 
ATOM      6  C   UNL     1     145.027 127.308  99.451  0.00  0.00    +0.000 C 
ATOM      7  C   UNL     1     142.963 125.617 100.169  0.00  0.00    +0.000 A 
ATOM      8  C   UNL     1     144.077 126.767 102.884  0.00  0.00    +0.000 A 
ATOM      9  C   UNL     1     144.056 125.164  99.411  0.00  0.00    +0.000 A 
ATOM     10  C   UNL     1     146.342 127.443 102.414  0.00  0.00    +0.000 A 
ATOM     11  C   UNL     1     141.793 124.839 100.236  0.00  0.00    +0.000 A 
ATOM     12  C   UNL     1     144.417 126.381 104.165  0.00  0.00    +0.000 A 
ATOM     13  C   UNL     1     143.990 123.919  98.769  0.00  0.00    +0.000 A 
ATOM     14  C   UNL     1     146.704 127.042 103.708  0.00  0.00    +0.000 A 
ATOM     15  C   UNL     1     145.747 126.511 104.589  0.00  0.00    +0.000 A 
ATOM     16  C   UNL     1     141.707 123.629  99.554  0.00  0.00    +0.000 A 
ATOM     17  C   UNL     1     142.799 123.185  98.826  0.00  0.00    +0.000 A 
ENDROOT
BRANCH  12  18
ATOM     18  O   UNL     1     143.470 125.872 105.009  0.00  0.00    +0.000 OA
ATOM     19  H   UNL     1     143.860 125.051 105.361  0.00  0.00    +0.000 HD
ENDBRANCH  12  18
BRANCH  13  20
ATOM     20  O   UNL     1     144.982 123.345  98.010  0.00  0.00    +0.000 OA
ATOM     21  C   UNL     1     145.067 123.844  96.676  0.00  0.00    +0.000 C 
ENDBRANCH  13  20
BRANCH  15  22
ATOM     22  O   UNL     1     145.983 126.093 105.876  0.00  0.00    +0.000 OA
ATOM     23  C   UNL     1     147.307 125.668 106.177  0.00  0.00    +0.000 C 
ENDBRANCH  15  22
BRANCH  17  24
ATOM     24  O   UNL     1     142.694 121.991  98.163  0.00  0.00    +0.000 OA
ATOM     25  H   UNL     1     143.195 121.357  98.710  0.00  0.00    +0.000 HD
ENDBRANCH  17  24
TORSDOF 4
ENDMDL
MODEL 4
REMARK VINA RESULT:      -6.5      2.979      6.054
REMARK  Name = 
REMARK  6 active torsions:
REMARK  status: ('A' for Active; 'I' for Inactive)
REMARK    1  A    between atoms: O_3  and  C_16
REMARK    2  A    between atoms: O_4  and  C_17
REMARK    3  A    between atoms: O_4  and  C_22
REMARK    4  A    between atoms: O_5  and  C_19
REMARK    5  A    between atoms: O_5  and  C_23
REMARK    6  A    between atoms: O_6  and  C_21
REMARK                            x       y       z     vdW  Elec       q    Type
REMARK                         _______ _______ _______ _____ _____    ______ ____
ROOT
ATOM      1  O   UNL     1     143.756 124.765  99.833  0.00  0.00    +0.000 OA
ATOM      2  O   UNL     1     144.965 128.179  98.261  0.00  0.00    +0.000 OA
ATOM      3  C   UNL     1     142.997 126.893  98.974  0.00  0.00    +0.000 C 
ATOM      4  C   UNL     1     143.711 125.580  98.634  0.00  0.00    +0.000 C 
ATOM      5  C   UNL     1     143.220 126.925 100.446  0.00  0.00    +0.000 A 
ATOM      6  C   UNL     1     143.548 128.045  98.160  0.00  0.00    +0.000 C 
ATOM      7  C   UNL     1     145.110 125.767  98.088  0.00  0.00    +0.000 A 
ATOM      8  C   UNL     1     143.619 125.663 100.863  0.00  0.00    +0.000 A 
ATOM      9  C   UNL     1     145.670 127.048  97.946  0.00  0.00    +0.000 A 
ATOM     10  C   UNL     1     143.030 127.946 101.362  0.00  0.00    +0.000 A 
ATOM     11  C   UNL     1     145.863 124.635  97.723  0.00  0.00    +0.000 A 
ATOM     12  C   UNL     1     143.833 125.386 102.198  0.00  0.00    +0.000 A 
ATOM     13  C   UNL     1     146.989 127.185  97.490  0.00  0.00    +0.000 A 
ATOM     14  C   UNL     1     143.259 127.682 102.720  0.00  0.00    +0.000 A 
ATOM     15  C   UNL     1     143.659 126.404 103.145  0.00  0.00    +0.000 A 
ATOM     16  C   UNL     1     147.153 124.774  97.219  0.00  0.00    +0.000 A 
ATOM     17  C   UNL     1     147.699 126.043  97.101  0.00  0.00    +0.000 A 
ENDROOT
BRANCH  12  18
ATOM     18  O   UNL     1     144.217 124.135 102.592  0.00  0.00    +0.000 OA
ATOM     19  H   UNL     1     145.121 124.025 102.244  0.00  0.00    +0.000 HD
ENDBRANCH  12  18
BRANCH  13  20
ATOM     20  O   UNL     1     147.667 128.369  97.316  0.00  0.00    +0.000 OA
ATOM     21  C   UNL     1     148.310 128.858  98.492  0.00  0.00    +0.000 C 
ENDBRANCH  13  20
BRANCH  15  22
ATOM     22  O   UNL     1     143.903 126.029 104.443  0.00  0.00    +0.000 OA
ATOM     23  C   UNL     1     145.127 126.473 105.018  0.00  0.00    +0.000 C 
ENDBRANCH  15  22
BRANCH  17  24
ATOM     24  O   UNL     1     148.969 126.158  96.604  0.00  0.00    +0.000 OA
ATOM     25  H   UNL     1     148.975 127.009  96.127  0.00  0.00    +0.000 HD
ENDBRANCH  17  24
TORSDOF 4
ENDMDL
MODEL 5
REMARK VINA RESULT:      -6.4      4.945      6.259
REMARK  Name = 
REMARK  6 active torsions:
REMARK  status: ('A' for Active; 'I' for Inactive)
REMARK    1  A    between atoms: O_3  and  C_16
REMARK    2  A    between atoms: O_4  and  C_17
REMARK    3  A    between atoms: O_4  and  C_22
REMARK    4  A    between atoms: O_5  and  C_19
REMARK    5  A    between atoms: O_5  and  C_23
REMARK    6  A    between atoms: O_6  and  C_21
REMARK                            x       y       z     vdW  Elec       q    Type
REMARK                         _______ _______ _______ _____ _____    ______ ____
ROOT
ATOM      1  O   UNL     1     146.720 129.343  97.950  0.00  0.00    +0.000 OA
ATOM      2  O   UNL     1     145.228 125.693  98.146  0.00  0.00    +0.000 OA
ATOM      3  C   UNL     1     144.882 127.947  97.231  0.00  0.00    +0.000 C 
ATOM      4  C   UNL     1     145.598 128.564  98.438  0.00  0.00    +0.000 C 
ATOM      5  C   UNL     1     145.996 127.969  96.243  0.00  0.00    +0.000 A 
ATOM      6  C   UNL     1     144.284 126.600  97.578  0.00  0.00    +0.000 C 
ATOM      7  C   UNL     1     146.080 127.548  99.450  0.00  0.00    +0.000 A 
ATOM      8  C   UNL     1     146.990 128.816  96.712  0.00  0.00    +0.000 A 
ATOM      9  C   UNL     1     145.888 126.171  99.247  0.00  0.00    +0.000 A 
ATOM     10  C   UNL     1     146.112 127.357  95.006  0.00  0.00    +0.000 A 
ATOM     11  C   UNL     1     146.738 127.993 100.612  0.00  0.00    +0.000 A 
ATOM     12  C   UNL     1     148.119 129.077  95.962  0.00  0.00    +0.000 A 
ATOM     13  C   UNL     1     146.396 125.252 100.176  0.00  0.00    +0.000 A 
ATOM     14  C   UNL     1     147.260 127.603  94.239  0.00  0.00    +0.000 A 
ATOM     15  C   UNL     1     148.267 128.463  94.711  0.00  0.00    +0.000 A 
ATOM     16  C   UNL     1     147.195 127.084 101.561  0.00  0.00    +0.000 A 
ATOM     17  C   UNL     1     147.014 125.727 101.338  0.00  0.00    +0.000 A 
ENDROOT
BRANCH  12  18
ATOM     18  O   UNL     1     149.084 129.921  96.435  0.00  0.00    +0.000 OA
ATOM     19  H   UNL     1     149.262 129.618  97.344  0.00  0.00    +0.000 HD
ENDBRANCH  12  18
BRANCH  13  20
ATOM     20  O   UNL     1     146.295 123.883 100.098  0.00  0.00    +0.000 OA
ATOM     21  C   UNL     1     144.961 123.384 100.186  0.00  0.00    +0.000 C 
ENDBRANCH  13  20
BRANCH  15  22
ATOM     22  O   UNL     1     149.426 128.782  94.047  0.00  0.00    +0.000 OA
ATOM     23  C   UNL     1     149.846 127.886  93.025  0.00  0.00    +0.000 C 
ENDBRANCH  15  22
BRANCH  17  24
ATOM     24  O   UNL     1     147.471 124.849 102.284  0.00  0.00    +0.000 OA
ATOM     25  H   UNL     1     147.684 125.404 103.058  0.00  0.00    +0.000 HD
ENDBRANCH  17  24
TORSDOF 4
ENDMDL
MODEL 6
REMARK VINA RESULT:      -6.3      2.946      5.930
REMARK  Name = 
REMARK  6 active torsions:
REMARK  status: ('A' for Active; 'I' for Inactive)
REMARK    1  A    between atoms: O_3  and  C_16
REMARK    2  A    between atoms: O_4  and  C_17
REMARK    3  A    between atoms: O_4  and  C_22
REMARK    4  A    between atoms: O_5  and  C_19
REMARK    5  A    between atoms: O_5  and  C_23
REMARK    6  A    between atoms: O_6  and  C_21
REMARK                            x       y       z     vdW  Elec       q    Type
REMARK                         _______ _______ _______ _____ _____    ______ ____
ROOT
ATOM      1  O   UNL     1     146.334 124.342  98.643  0.00  0.00    +0.000 OA
ATOM      2  O   UNL     1     143.776 125.507 101.415  0.00  0.00    +0.000 OA
ATOM      3  C   UNL     1     146.124 124.931 100.978  0.00  0.00    +0.000 C 
ATOM      4  C   UNL     1     145.696 123.947  99.884  0.00  0.00    +0.000 C 
ATOM      5  C   UNL     1     146.495 126.099 100.131  0.00  0.00    +0.000 A 
ATOM      6  C   UNL     1     145.023 125.131 101.998  0.00  0.00    +0.000 C 
ATOM      7  C   UNL     1     144.198 123.864  99.686  0.00  0.00    +0.000 A 
ATOM      8  C   UNL     1     146.630 125.671  98.818  0.00  0.00    +0.000 A 
ATOM      9  C   UNL     1     143.319 124.655 100.445  0.00  0.00    +0.000 A 
ATOM     10  C   UNL     1     146.760 127.412 100.480  0.00  0.00    +0.000 A 
ATOM     11  C   UNL     1     143.679 122.982  98.720  0.00  0.00    +0.000 A 
ATOM     12  C   UNL     1     147.034 126.538  97.823  0.00  0.00    +0.000 A 
ATOM     13  C   UNL     1     141.940 124.597 100.199  0.00  0.00    +0.000 A 
ATOM     14  C   UNL     1     147.158 128.307  99.475  0.00  0.00    +0.000 A 
ATOM     15  C   UNL     1     147.298 127.875  98.145  0.00  0.00    +0.000 A 
ATOM     16  C   UNL     1     142.306 122.883  98.514  0.00  0.00    +0.000 A 
ATOM     17  C   UNL     1     141.453 123.684  99.257  0.00  0.00    +0.000 A 
ENDROOT
BRANCH  12  18
ATOM     18  O   UNL     1     147.170 126.098  96.536  0.00  0.00    +0.000 OA
ATOM     19  H   UNL     1     147.657 126.807  96.076  0.00  0.00    +0.000 HD
ENDBRANCH  12  18
BRANCH  13  20
ATOM     20  O   UNL     1     140.970 125.321 100.851  0.00  0.00    +0.000 OA
ATOM     21  C   UNL     1     141.021 126.726 100.611  0.00  0.00    +0.000 C 
ENDBRANCH  13  20
BRANCH  15  22
ATOM     22  O   UNL     1     147.687 128.657  97.084  0.00  0.00    +0.000 OA
ATOM     23  C   UNL     1     148.552 129.748  97.377  0.00  0.00    +0.000 C 
ENDBRANCH  15  22
BRANCH  17  24
ATOM     24  O   UNL     1     140.106 123.572  99.038  0.00  0.00    +0.000 OA
ATOM     25  H   UNL     1     140.007 122.768  98.494  0.00  0.00    +0.000 HD
ENDBRANCH  17  24
TORSDOF 4
ENDMDL
MODEL 7
REMARK VINA RESULT:      -6.2      2.627      4.413
REMARK  Name = 
REMARK  6 active torsions:
REMARK  status: ('A' for Active; 'I' for Inactive)
REMARK    1  A    between atoms: O_3  and  C_16
REMARK    2  A    between atoms: O_4  and  C_17
REMARK    3  A    between atoms: O_4  and  C_22
REMARK    4  A    between atoms: O_5  and  C_19
REMARK    5  A    between atoms: O_5  and  C_23
REMARK    6  A    between atoms: O_6  and  C_21
REMARK                            x       y       z     vdW  Elec       q    Type
REMARK                         _______ _______ _______ _____ _____    ______ ____
ROOT
ATOM      1  O   UNL     1     141.164 124.558  98.252  0.00  0.00    +0.000 OA
ATOM      2  O   UNL     1     144.517 124.526 100.337  0.00  0.00    +0.000 OA
ATOM      3  C   UNL     1     143.072 123.202  98.854  0.00  0.00    +0.000 C 
ATOM      4  C   UNL     1     141.834 123.937  99.378  0.00  0.00    +0.000 C 
ATOM      5  C   UNL     1     143.290 123.954  97.587  0.00  0.00    +0.000 A 
ATOM      6  C   UNL     1     144.192 123.216  99.874  0.00  0.00    +0.000 C 
ATOM      7  C   UNL     1     142.139 124.979 100.433  0.00  0.00    +0.000 A 
ATOM      8  C   UNL     1     142.142 124.676  97.295  0.00  0.00    +0.000 A 
ATOM      9  C   UNL     1     143.458 125.232 100.844  0.00  0.00    +0.000 A 
ATOM     10  C   UNL     1     144.371 123.961  96.722  0.00  0.00    +0.000 A 
ATOM     11  C   UNL     1     141.081 125.709 101.004  0.00  0.00    +0.000 A 
ATOM     12  C   UNL     1     142.040 125.418  96.136  0.00  0.00    +0.000 A 
ATOM     13  C   UNL     1     143.714 126.242 101.782  0.00  0.00    +0.000 A 
ATOM     14  C   UNL     1     144.286 124.722  95.547  0.00  0.00    +0.000 A 
ATOM     15  C   UNL     1     143.123 125.451  95.247  0.00  0.00    +0.000 A 
ATOM     16  C   UNL     1     141.329 126.675 101.975  0.00  0.00    +0.000 A 
ATOM     17  C   UNL     1     142.638 126.927 102.358  0.00  0.00    +0.000 A 
ENDROOT
BRANCH  12  18
ATOM     18  O   UNL     1     140.898 126.116  95.860  0.00  0.00    +0.000 OA
ATOM     19  H   UNL     1     140.418 125.569  95.211  0.00  0.00    +0.000 HD
ENDBRANCH  12  18
BRANCH  13  20
ATOM     20  O   UNL     1     144.950 126.607 102.263  0.00  0.00    +0.000 OA
ATOM     21  C   UNL     1     145.677 127.491 101.412  0.00  0.00    +0.000 C 
ENDBRANCH  13  20
BRANCH  15  22
ATOM     22  O   UNL     1     142.924 126.223  94.128  0.00  0.00    +0.000 OA
ATOM     23  C   UNL     1     143.654 127.442  94.053  0.00  0.00    +0.000 C 
ENDBRANCH  15  22
BRANCH  17  24
ATOM     24  O   UNL     1     142.861 127.881 103.314  0.00  0.00    +0.000 OA
ATOM     25  H   UNL     1     143.695 128.313 103.047  0.00  0.00    +0.000 HD
ENDBRANCH  17  24
TORSDOF 4
ENDMDL
MODEL 8
REMARK VINA RESULT:      -6.2      4.118      5.294
REMARK  Name = 
REMARK  6 active torsions:
REMARK  status: ('A' for Active; 'I' for Inactive)
REMARK    1  A    between atoms: O_3  and  C_16
REMARK    2  A    between atoms: O_4  and  C_17
REMARK    3  A    between atoms: O_4  and  C_22
REMARK    4  A    between atoms: O_5  and  C_19
REMARK    5  A    between atoms: O_5  and  C_23
REMARK    6  A    between atoms: O_6  and  C_21
REMARK                            x       y       z     vdW  Elec       q    Type
REMARK                         _______ _______ _______ _____ _____    ______ ____
ROOT
ATOM      1  O   UNL     1     148.067 127.678  98.414  0.00  0.00    +0.000 OA
ATOM      2  O   UNL     1     144.159 127.604  98.973  0.00  0.00    +0.000 OA
ATOM      3  C   UNL     1     146.027 128.935  98.092  0.00  0.00    +0.000 C 
ATOM      4  C   UNL     1     146.976 128.317  99.124  0.00  0.00    +0.000 C 
ATOM      5  C   UNL     1     146.369 128.098  96.908  0.00  0.00    +0.000 A 
ATOM      6  C   UNL     1     144.592 128.904  98.576  0.00  0.00    +0.000 C 
ATOM      7  C   UNL     1     146.311 127.319 100.048  0.00  0.00    +0.000 A 
ATOM      8  C   UNL     1     147.564 127.440  97.159  0.00  0.00    +0.000 A 
ATOM      9  C   UNL     1     144.949 127.002  99.916  0.00  0.00    +0.000 A 
ATOM     10  C   UNL     1     145.731 127.968  95.686  0.00  0.00    +0.000 A 
ATOM     11  C   UNL     1     147.076 126.696 101.052  0.00  0.00    +0.000 A 
ATOM     12  C   UNL     1     148.155 126.641  96.200  0.00  0.00    +0.000 A 
ATOM     13  C   UNL     1     144.375 126.031 100.750  0.00  0.00    +0.000 A 
ATOM     14  C   UNL     1     146.313 127.148  94.708  0.00  0.00    +0.000 A 
ATOM     15  C   UNL     1     147.525 126.483  94.958  0.00  0.00    +0.000 A 
ATOM     16  C   UNL     1     146.494 125.773 101.916  0.00  0.00    +0.000 A 
ATOM     17  C   UNL     1     145.153 125.456 101.762  0.00  0.00    +0.000 A 
ENDROOT
BRANCH  12  18
ATOM     18  O   UNL     1     149.337 126.007  96.461  0.00  0.00    +0.000 OA
ATOM     19  H   UNL     1     149.149 125.059  96.334  0.00  0.00    +0.000 HD
ENDBRANCH  12  18
BRANCH  13  20
ATOM     20  O   UNL     1     143.066 125.613 100.724  0.00  0.00    +0.000 OA
ATOM     21  C   UNL     1     142.801 124.563  99.795  0.00  0.00    +0.000 C 
ENDBRANCH  13  20
BRANCH  15  22
ATOM     22  O   UNL     1     148.189 125.664  94.078  0.00  0.00    +0.000 OA
ATOM     23  C   UNL     1     147.472 124.538  93.587  0.00  0.00    +0.000 C 
ENDBRANCH  15  22
BRANCH  17  24
ATOM     24  O   UNL     1     144.600 124.545 102.622  0.00  0.00    +0.000 OA
ATOM     25  H   UNL     1     144.025 125.073 103.209  0.00  0.00    +0.000 HD
ENDBRANCH  17  24
TORSDOF 4
ENDMDL
MODEL 9
REMARK VINA RESULT:      -5.8     33.250     35.564
REMARK  Name = 
REMARK  6 active torsions:
REMARK  status: ('A' for Active; 'I' for Inactive)
REMARK    1  A    between atoms: O_3  and  C_16
REMARK    2  A    between atoms: O_4  and  C_17
REMARK    3  A    between atoms: O_4  and  C_22
REMARK    4  A    between atoms: O_5  and  C_19
REMARK    5  A    between atoms: O_5  and  C_23
REMARK    6  A    between atoms: O_6  and  C_21
REMARK                            x       y       z     vdW  Elec       q    Type
REMARK                         _______ _______ _______ _____ _____    ______ ____
ROOT
ATOM      1  O   UNL     1     135.857 120.695 137.192  0.00  0.00    +0.000 OA
ATOM      2  O   UNL     1     133.125 120.416 134.356  0.00  0.00    +0.000 OA
ATOM      3  C   UNL     1     133.854 121.719 136.307  0.00  0.00    +0.000 C 
ATOM      4  C   UNL     1     134.447 120.459 136.947  0.00  0.00    +0.000 C 
ATOM      5  C   UNL     1     135.094 122.316 135.736  0.00  0.00    +0.000 A 
ATOM      6  C   UNL     1     132.739 121.372 135.342  0.00  0.00    +0.000 C 
ATOM      7  C   UNL     1     134.274 119.208 136.113  0.00  0.00    +0.000 A 
ATOM      8  C   UNL     1     136.192 121.700 136.318  0.00  0.00    +0.000 A 
ATOM      9  C   UNL     1     133.641 119.251 134.860  0.00  0.00    +0.000 A 
ATOM     10  C   UNL     1     135.258 123.354 134.834  0.00  0.00    +0.000 A 
ATOM     11  C   UNL     1     134.763 117.982 136.603  0.00  0.00    +0.000 A 
ATOM     12  C   UNL     1     137.478 122.104 136.021  0.00  0.00    +0.000 A 
ATOM     13  C   UNL     1     133.546 118.086 134.086  0.00  0.00    +0.000 A 
ATOM     14  C   UNL     1     136.560 123.764 134.513  0.00  0.00    +0.000 A 
ATOM     15  C   UNL     1     137.674 123.145 135.104  0.00  0.00    +0.000 A 
ATOM     16  C   UNL     1     134.620 116.815 135.859  0.00  0.00    +0.000 A 
ATOM     17  C   UNL     1     134.009 116.876 134.616  0.00  0.00    +0.000 A 
ENDROOT
BRANCH  12  18
ATOM     18  O   UNL     1     138.549 121.493 136.611  0.00  0.00    +0.000 OA
ATOM     19  H   UNL     1     138.948 122.176 137.181  0.00  0.00    +0.000 HD
ENDBRANCH  12  18
BRANCH  13  20
ATOM     20  O   UNL     1     132.968 117.984 132.842  0.00  0.00    +0.000 OA
ATOM     21  C   UNL     1     131.543 117.933 132.856  0.00  0.00    +0.000 C 
ENDBRANCH  13  20
BRANCH  15  22
ATOM     22  O   UNL     1     138.989 123.467 134.872  0.00  0.00    +0.000 OA
ATOM     23  C   UNL     1     139.235 124.634 134.095  0.00  0.00    +0.000 C 
ENDBRANCH  15  22
BRANCH  17  24
ATOM     24  O   UNL     1     133.879 115.716 133.900  0.00  0.00    +0.000 OA
ATOM     25  H   UNL     1     134.776 115.528 133.563  0.00  0.00    +0.000 HD
ENDBRANCH  17  24
TORSDOF 4
ENDMDL
