MODEL 1
REMARK VINA RESULT:      -8.0      0.000      0.000
REMARK  Name = 
REMARK  9 active torsions:
REMARK  status: ('A' for Active; 'I' for Inactive)
REMARK    1  A    between atoms: O_1  and  N_7
REMARK    2  A    between atoms: O_1  and  C_20
REMARK    3  A    between atoms: O_2  and  C_14
REMARK    4  A    between atoms: O_3  and  C_18
REMARK    5  A    between atoms: O_4  and  C_25
REMARK    6  A    between atoms: C_8  and  C_10
REMARK    7  A    between atoms: C_17  and  C_18
REMARK    8  A    between atoms: C_17  and  C_20
REMARK    9  A    between atoms: C_18  and  C_25
REMARK                            x       y       z     vdW  Elec       q    Type
REMARK                         _______ _______ _______ _____ _____    ______ ____
ROOT
ATOM      1  N   UNL     1     139.993 124.409 135.475  0.00  0.00    +0.000 NA
ATOM      2  N   UNL     1     139.235 126.559 132.757  0.00  0.00    +0.000 NA
ATOM      3  C   UNL     1     139.375 124.665 134.349  0.00  0.00    +0.000 C 
ATOM      4  C   UNL     1     139.794 126.012 133.790  0.00  0.00    +0.000 C 
ATOM      5  C   UNL     1     140.821 126.477 134.713  0.00  0.00    +0.000 A 
ATOM      6  C   UNL     1     140.870 125.486 135.693  0.00  0.00    +0.000 A 
ATOM      7  C   UNL     1     141.620 127.605 134.759  0.00  0.00    +0.000 A 
ATOM      8  C   UNL     1     141.739 125.607 136.762  0.00  0.00    +0.000 A 
ATOM      9  C   UNL     1     142.500 127.730 135.837  0.00  0.00    +0.000 A 
ATOM     10  C   UNL     1     142.559 126.739 136.832  0.00  0.00    +0.000 A 
ENDROOT
BRANCH   3  12
ATOM     11  N   UNL     1     137.294 122.458 132.362  0.00  0.00    +0.000 N 
ATOM     12  C   UNL     1     138.420 123.729 133.805  0.00  0.00    +0.000 A 
ATOM     13  C   UNL     1     137.423 122.983 134.519  0.00  0.00    +0.000 A 
ATOM     14  C   UNL     1     136.729 122.209 133.589  0.00  0.00    +0.000 A 
ATOM     15  C   UNL     1     138.327 123.352 132.476  0.00  0.00    +0.000 A 
ATOM     16  C   UNL     1     137.034 122.904 135.874  0.00  0.00    +0.000 A 
ATOM     17  C   UNL     1     135.671 121.362 133.941  0.00  0.00    +0.000 A 
ATOM     18  C   UNL     1     135.979 122.062 136.245  0.00  0.00    +0.000 A 
ATOM     19  C   UNL     1     135.309 121.303 135.290  0.00  0.00    +0.000 A 
ATOM     20  H   UNL     1     136.996 122.012 131.507  0.00  0.00    +0.000 HD
BRANCH  15  21
ATOM     21  O   UNL     1     139.069 123.698 131.430  0.00  0.00    +0.000 OA
ATOM     22  H   UNL     1     139.493 124.557 131.582  0.00  0.00    +0.000 HD
ENDBRANCH  15  21
ENDBRANCH   3  12
BRANCH   2  23
ATOM     23  O   UNL     1     139.767 127.818 132.472  0.00  0.00    +0.000 OA
BRANCH  23  24
ATOM     24  C   UNL     1     139.341 128.201 131.167  0.00  0.00    +0.000 C 
BRANCH  24  25
ATOM     25  C   UNL     1     139.584 127.053 130.199  0.00  0.00    +0.000 C 
BRANCH  25  26
ATOM     26  C   UNL     1     141.058 126.692 130.013  0.00  0.00    +0.000 C 
BRANCH  26  27
ATOM     27  O   UNL     1     141.343 125.561 130.850  0.00  0.00    +0.000 OA
ATOM     28  H   UNL     1     140.775 125.690 131.636  0.00  0.00    +0.000 HD
ENDBRANCH  26  27
BRANCH  26  29
ATOM     29  C   UNL     1     141.436 126.330 128.573  0.00  0.00    +0.000 C 
BRANCH  29  30
ATOM     30  O   UNL     1     140.456 125.414 128.072  0.00  0.00    +0.000 OA
ATOM     31  H   UNL     1     140.852 124.526 128.127  0.00  0.00    +0.000 HD
ENDBRANCH  29  30
ENDBRANCH  26  29
ENDBRANCH  25  26
ENDBRANCH  24  25
ENDBRANCH  23  24
ENDBRANCH   2  23
TORSDOF 9
ENDMDL
MODEL 2
REMARK VINA RESULT:      -7.8      2.704      4.122
REMARK  Name = 
REMARK  9 active torsions:
REMARK  status: ('A' for Active; 'I' for Inactive)
REMARK    1  A    between atoms: O_1  and  N_7
REMARK    2  A    between atoms: O_1  and  C_20
REMARK    3  A    between atoms: O_2  and  C_14
REMARK    4  A    between atoms: O_3  and  C_18
REMARK    5  A    between atoms: O_4  and  C_25
REMARK    6  A    between atoms: C_8  and  C_10
REMARK    7  A    between atoms: C_17  and  C_18
REMARK    8  A    between atoms: C_17  and  C_20
REMARK    9  A    between atoms: C_18  and  C_25
REMARK                            x       y       z     vdW  Elec       q    Type
REMARK                         _______ _______ _______ _____ _____    ______ ____
ROOT
ATOM      1  N   UNL     1     141.101 122.060 133.933  0.00  0.00    +0.000 NA
ATOM      2  N   UNL     1     140.986 124.966 135.964  0.00  0.00    +0.000 NA
ATOM      3  C   UNL     1     140.504 123.148 134.350  0.00  0.00    +0.000 C 
ATOM      4  C   UNL     1     141.390 123.924 135.308  0.00  0.00    +0.000 C 
ATOM      5  C   UNL     1     142.637 123.173 135.327  0.00  0.00    +0.000 A 
ATOM      6  C   UNL     1     142.384 122.074 134.505  0.00  0.00    +0.000 A 
ATOM      7  C   UNL     1     143.850 123.357 135.967  0.00  0.00    +0.000 A 
ATOM      8  C   UNL     1     143.363 121.117 134.303  0.00  0.00    +0.000 A 
ATOM      9  C   UNL     1     144.840 122.392 135.764  0.00  0.00    +0.000 A 
ATOM     10  C   UNL     1     144.598 121.280 134.939  0.00  0.00    +0.000 A 
ENDROOT
BRANCH   3  12
ATOM     11  N   UNL     1     137.463 124.141 132.641  0.00  0.00    +0.000 N 
ATOM     12  C   UNL     1     139.166 123.468 133.911  0.00  0.00    +0.000 A 
ATOM     13  C   UNL     1     137.944 123.309 134.647  0.00  0.00    +0.000 A 
ATOM     14  C   UNL     1     136.901 123.749 133.832  0.00  0.00    +0.000 A 
ATOM     15  C   UNL     1     138.821 123.958 132.663  0.00  0.00    +0.000 A 
ATOM     16  C   UNL     1     137.626 122.843 135.941  0.00  0.00    +0.000 A 
ATOM     17  C   UNL     1     135.562 123.746 134.240  0.00  0.00    +0.000 A 
ATOM     18  C   UNL     1     136.293 122.832 136.367  0.00  0.00    +0.000 A 
ATOM     19  C   UNL     1     135.277 123.278 135.526  0.00  0.00    +0.000 A 
ATOM     20  H   UNL     1     136.930 124.486 131.857  0.00  0.00    +0.000 HD
BRANCH  15  21
ATOM     21  O   UNL     1     139.576 124.205 131.598  0.00  0.00    +0.000 OA
ATOM     22  H   UNL     1     140.475 124.452 131.868  0.00  0.00    +0.000 HD
ENDBRANCH  15  21
ENDBRANCH   3  12
BRANCH   2  23
ATOM     23  O   UNL     1     141.973 125.470 136.814  0.00  0.00    +0.000 OA
BRANCH  23  24
ATOM     24  C   UNL     1     141.760 126.871 136.970  0.00  0.00    +0.000 C 
BRANCH  24  25
ATOM     25  C   UNL     1     142.309 127.604 135.755  0.00  0.00    +0.000 C 
BRANCH  25  26
ATOM     26  C   UNL     1     141.251 128.355 134.946  0.00  0.00    +0.000 C 
BRANCH  26  27
ATOM     27  O   UNL     1     141.105 129.663 135.521  0.00  0.00    +0.000 OA
ATOM     28  H   UNL     1     141.836 130.183 135.131  0.00  0.00    +0.000 HD
ENDBRANCH  26  27
BRANCH  26  29
ATOM     29  C   UNL     1     141.599 128.519 133.463  0.00  0.00    +0.000 C 
BRANCH  29  30
ATOM     30  O   UNL     1     141.106 129.791 133.028  0.00  0.00    +0.000 OA
ATOM     31  H   UNL     1     140.423 130.058 133.670  0.00  0.00    +0.000 HD
ENDBRANCH  29  30
ENDBRANCH  26  29
ENDBRANCH  25  26
ENDBRANCH  24  25
ENDBRANCH  23  24
ENDBRANCH   2  23
TORSDOF 9
ENDMDL
MODEL 3
REMARK VINA RESULT:      -7.7      3.601      8.315
REMARK  Name = 
REMARK  9 active torsions:
REMARK  status: ('A' for Active; 'I' for Inactive)
REMARK    1  A    between atoms: O_1  and  N_7
REMARK    2  A    between atoms: O_1  and  C_20
REMARK    3  A    between atoms: O_2  and  C_14
REMARK    4  A    between atoms: O_3  and  C_18
REMARK    5  A    between atoms: O_4  and  C_25
REMARK    6  A    between atoms: C_8  and  C_10
REMARK    7  A    between atoms: C_17  and  C_18
REMARK    8  A    between atoms: C_17  and  C_20
REMARK    9  A    between atoms: C_18  and  C_25
REMARK                            x       y       z     vdW  Elec       q    Type
REMARK                         _______ _______ _______ _____ _____    ______ ____
ROOT
ATOM      1  N   UNL     1     136.681 122.411 132.840  0.00  0.00    +0.000 NA
ATOM      2  N   UNL     1     135.992 121.958 136.289  0.00  0.00    +0.000 NA
ATOM      3  C   UNL     1     137.010 122.522 134.102  0.00  0.00    +0.000 C 
ATOM      4  C   UNL     1     135.971 121.872 134.997  0.00  0.00    +0.000 C 
ATOM      5  C   UNL     1     135.019 121.282 134.066  0.00  0.00    +0.000 A 
ATOM      6  C   UNL     1     135.495 121.659 132.810  0.00  0.00    +0.000 A 
ATOM      7  C   UNL     1     133.869 120.531 134.229  0.00  0.00    +0.000 A 
ATOM      8  C   UNL     1     134.813 121.281 131.667  0.00  0.00    +0.000 A 
ATOM      9  C   UNL     1     133.179 120.148 133.076  0.00  0.00    +0.000 A 
ATOM     10  C   UNL     1     133.647 120.521 131.804  0.00  0.00    +0.000 A 
ENDROOT
BRANCH   3  12
ATOM     11  N   UNL     1     140.121 123.718 135.534  0.00  0.00    +0.000 N 
ATOM     12  C   UNL     1     138.219 123.212 134.490  0.00  0.00    +0.000 A 
ATOM     13  C   UNL     1     138.745 124.428 133.937  0.00  0.00    +0.000 A 
ATOM     14  C   UNL     1     139.926 124.724 134.619  0.00  0.00    +0.000 A 
ATOM     15  C   UNL     1     139.116 122.789 135.455  0.00  0.00    +0.000 A 
ATOM     16  C   UNL     1     138.320 125.318 132.927  0.00  0.00    +0.000 A 
ATOM     17  C   UNL     1     140.702 125.856 134.343  0.00  0.00    +0.000 A 
ATOM     18  C   UNL     1     139.082 126.454 132.637  0.00  0.00    +0.000 A 
ATOM     19  C   UNL     1     140.256 126.718 133.337  0.00  0.00    +0.000 A 
ATOM     20  H   UNL     1     140.917 123.670 136.153  0.00  0.00    +0.000 HD
BRANCH  15  21
ATOM     21  O   UNL     1     139.122 121.688 136.199  0.00  0.00    +0.000 OA
ATOM     22  H   UNL     1     139.875 121.123 135.964  0.00  0.00    +0.000 HD
ENDBRANCH  15  21
ENDBRANCH   3  12
BRANCH   2  23
ATOM     23  O   UNL     1     134.901 121.316 136.880  0.00  0.00    +0.000 OA
BRANCH  23  24
ATOM     24  C   UNL     1     134.431 122.125 137.954  0.00  0.00    +0.000 C 
BRANCH  24  25
ATOM     25  C   UNL     1     134.869 121.513 139.277  0.00  0.00    +0.000 C 
BRANCH  25  26
ATOM     26  C   UNL     1     135.826 122.390 140.085  0.00  0.00    +0.000 C 
BRANCH  26  27
ATOM     27  O   UNL     1     136.249 121.638 141.233  0.00  0.00    +0.000 OA
ATOM     28  H   UNL     1     135.519 121.743 141.875  0.00  0.00    +0.000 HD
ENDBRANCH  26  27
BRANCH  26  29
ATOM     29  C   UNL     1     137.075 122.826 139.312  0.00  0.00    +0.000 C 
BRANCH  29  30
ATOM     30  O   UNL     1     137.641 121.669 138.689  0.00  0.00    +0.000 OA
ATOM     31  H   UNL     1     138.441 121.969 138.221  0.00  0.00    +0.000 HD
ENDBRANCH  29  30
ENDBRANCH  26  29
ENDBRANCH  25  26
ENDBRANCH  24  25
ENDBRANCH  23  24
ENDBRANCH   2  23
TORSDOF 9
ENDMDL
MODEL 4
REMARK VINA RESULT:      -7.5     30.599     33.933
REMARK  Name = 
REMARK  9 active torsions:
REMARK  status: ('A' for Active; 'I' for Inactive)
REMARK    1  A    between atoms: O_1  and  N_7
REMARK    2  A    between atoms: O_1  and  C_20
REMARK    3  A    between atoms: O_2  and  C_14
REMARK    4  A    between atoms: O_3  and  C_18
REMARK    5  A    between atoms: O_4  and  C_25
REMARK    6  A    between atoms: C_8  and  C_10
REMARK    7  A    between atoms: C_17  and  C_18
REMARK    8  A    between atoms: C_17  and  C_20
REMARK    9  A    between atoms: C_18  and  C_25
REMARK                            x       y       z     vdW  Elec       q    Type
REMARK                         _______ _______ _______ _____ _____    ______ ____
ROOT
ATOM      1  N   UNL     1     142.163 124.749 100.793  0.00  0.00    +0.000 NA
ATOM      2  N   UNL     1     144.039 127.029  98.828  0.00  0.00    +0.000 NA
ATOM      3  C   UNL     1     143.027 125.726 100.676  0.00  0.00    +0.000 C 
ATOM      4  C   UNL     1     143.157 126.171  99.231  0.00  0.00    +0.000 C 
ATOM      5  C   UNL     1     142.172 125.367  98.521  0.00  0.00    +0.000 A 
ATOM      6  C   UNL     1     141.637 124.537  99.507  0.00  0.00    +0.000 A 
ATOM      7  C   UNL     1     141.767 125.304  97.200  0.00  0.00    +0.000 A 
ATOM      8  C   UNL     1     140.665 123.608  99.181  0.00  0.00    +0.000 A 
ATOM      9  C   UNL     1     140.785 124.368  96.869  0.00  0.00    +0.000 A 
ATOM     10  C   UNL     1     140.238 123.524  97.852  0.00  0.00    +0.000 A 
ENDROOT
BRANCH   3  12
ATOM     11  N   UNL     1     144.152 127.235 103.777  0.00  0.00    +0.000 N 
ATOM     12  C   UNL     1     143.729 126.229 101.834  0.00  0.00    +0.000 A 
ATOM     13  C   UNL     1     145.122 126.077 102.144  0.00  0.00    +0.000 A 
ATOM     14  C   UNL     1     145.357 126.726 103.356  0.00  0.00    +0.000 A 
ATOM     15  C   UNL     1     143.158 126.926 102.884  0.00  0.00    +0.000 A 
ATOM     16  C   UNL     1     146.215 125.458 101.499  0.00  0.00    +0.000 A 
ATOM     17  C   UNL     1     146.621 126.788 103.956  0.00  0.00    +0.000 A 
ATOM     18  C   UNL     1     147.485 125.508 102.083  0.00  0.00    +0.000 A 
ATOM     19  C   UNL     1     147.683 126.165 103.294  0.00  0.00    +0.000 A 
ATOM     20  H   UNL     1     144.028 127.739 104.641  0.00  0.00    +0.000 HD
BRANCH  15  21
ATOM     21  O   UNL     1     141.891 127.256 103.109  0.00  0.00    +0.000 OA
ATOM     22  H   UNL     1     141.839 128.038 103.682  0.00  0.00    +0.000 HD
ENDBRANCH  15  21
ENDBRANCH   3  12
BRANCH   2  23
ATOM     23  O   UNL     1     143.986 127.234  97.447  0.00  0.00    +0.000 OA
BRANCH  23  24
ATOM     24  C   UNL     1     144.168 128.624  97.192  0.00  0.00    +0.000 C 
BRANCH  24  25
ATOM     25  C   UNL     1     143.735 129.423  98.412  0.00  0.00    +0.000 C 
BRANCH  25  26
ATOM     26  C   UNL     1     142.279 129.889  98.370  0.00  0.00    +0.000 C 
BRANCH  26  27
ATOM     27  O   UNL     1     141.489 128.816  97.834  0.00  0.00    +0.000 OA
ATOM     28  H   UNL     1     140.682 129.253  97.497  0.00  0.00    +0.000 HD
ENDBRANCH  26  27
BRANCH  26  29
ATOM     29  C   UNL     1     141.705 130.269  99.739  0.00  0.00    +0.000 C 
BRANCH  29  30
ATOM     30  O   UNL     1     141.571 129.073 100.513  0.00  0.00    +0.000 OA
ATOM     31  H   UNL     1     141.906 129.280 101.404  0.00  0.00    +0.000 HD
ENDBRANCH  29  30
ENDBRANCH  26  29
ENDBRANCH  25  26
ENDBRANCH  24  25
ENDBRANCH  23  24
ENDBRANCH   2  23
TORSDOF 9
ENDMDL
MODEL 5
REMARK VINA RESULT:      -7.4     30.553     34.221
REMARK  Name = 
REMARK  9 active torsions:
REMARK  status: ('A' for Active; 'I' for Inactive)
REMARK    1  A    between atoms: O_1  and  N_7
REMARK    2  A    between atoms: O_1  and  C_20
REMARK    3  A    between atoms: O_2  and  C_14
REMARK    4  A    between atoms: O_3  and  C_18
REMARK    5  A    between atoms: O_4  and  C_25
REMARK    6  A    between atoms: C_8  and  C_10
REMARK    7  A    between atoms: C_17  and  C_18
REMARK    8  A    between atoms: C_17  and  C_20
REMARK    9  A    between atoms: C_18  and  C_25
REMARK                            x       y       z     vdW  Elec       q    Type
REMARK                         _______ _______ _______ _____ _____    ______ ____
ROOT
ATOM      1  N   UNL     1     142.202 124.874 100.692  0.00  0.00    +0.000 NA
ATOM      2  N   UNL     1     144.249 127.094  98.832  0.00  0.00    +0.000 NA
ATOM      3  C   UNL     1     143.108 125.817 100.622  0.00  0.00    +0.000 C 
ATOM      4  C   UNL     1     143.317 126.269  99.188  0.00  0.00    +0.000 C 
ATOM      5  C   UNL     1     142.332 125.510  98.429  0.00  0.00    +0.000 A 
ATOM      6  C   UNL     1     141.724 124.694  99.383  0.00  0.00    +0.000 A 
ATOM      7  C   UNL     1     141.982 125.476  97.091  0.00  0.00    +0.000 A 
ATOM      8  C   UNL     1     140.730 123.807  99.007  0.00  0.00    +0.000 A 
ATOM      9  C   UNL     1     140.979 124.582  96.709  0.00  0.00    +0.000 A 
ATOM     10  C   UNL     1     140.358 123.752  97.660  0.00  0.00    +0.000 A 
ENDROOT
BRANCH   3  12
ATOM     11  N   UNL     1     144.149 127.216 103.803  0.00  0.00    +0.000 N 
ATOM     12  C   UNL     1     143.779 126.282 101.813  0.00  0.00    +0.000 A 
ATOM     13  C   UNL     1     145.167 126.133 102.148  0.00  0.00    +0.000 A 
ATOM     14  C   UNL     1     145.368 126.737 103.389  0.00  0.00    +0.000 A 
ATOM     15  C   UNL     1     143.178 126.931 102.877  0.00  0.00    +0.000 A 
ATOM     16  C   UNL     1     146.280 125.550 101.504  0.00  0.00    +0.000 A 
ATOM     17  C   UNL     1     146.618 126.788 104.018  0.00  0.00    +0.000 A 
ATOM     18  C   UNL     1     147.537 125.591 102.117  0.00  0.00    +0.000 A 
ATOM     19  C   UNL     1     147.701 126.202 103.357  0.00  0.00    +0.000 A 
ATOM     20  H   UNL     1     144.000 127.685 104.683  0.00  0.00    +0.000 HD
BRANCH  15  21
ATOM     21  O   UNL     1     141.902 127.239 103.087  0.00  0.00    +0.000 OA
ATOM     22  H   UNL     1     141.564 127.798 102.369  0.00  0.00    +0.000 HD
ENDBRANCH  15  21
ENDBRANCH   3  12
BRANCH   2  23
ATOM     23  O   UNL     1     144.263 127.313  97.452  0.00  0.00    +0.000 OA
BRANCH  23  24
ATOM     24  C   UNL     1     145.557 126.979  96.957  0.00  0.00    +0.000 C 
BRANCH  24  25
ATOM     25  C   UNL     1     146.219 128.226  96.390  0.00  0.00    +0.000 C 
BRANCH  25  26
ATOM     26  C   UNL     1     146.693 129.220  97.452  0.00  0.00    +0.000 C 
BRANCH  26  27
ATOM     27  O   UNL     1     145.530 129.795  98.067  0.00  0.00    +0.000 OA
ATOM     28  H   UNL     1     144.780 129.304  97.676  0.00  0.00    +0.000 HD
ENDBRANCH  26  27
BRANCH  26  29
ATOM     29  C   UNL     1     147.556 128.593  98.552  0.00  0.00    +0.000 C 
BRANCH  29  30
ATOM     30  O   UNL     1     146.811 128.624  99.774  0.00  0.00    +0.000 OA
ATOM     31  H   UNL     1     147.252 129.273 100.351  0.00  0.00    +0.000 HD
ENDBRANCH  29  30
ENDBRANCH  26  29
ENDBRANCH  25  26
ENDBRANCH  24  25
ENDBRANCH  23  24
ENDBRANCH   2  23
TORSDOF 9
ENDMDL
MODEL 6
REMARK VINA RESULT:      -6.9     30.767     34.674
REMARK  Name = 
REMARK  9 active torsions:
REMARK  status: ('A' for Active; 'I' for Inactive)
REMARK    1  A    between atoms: O_1  and  N_7
REMARK    2  A    between atoms: O_1  and  C_20
REMARK    3  A    between atoms: O_2  and  C_14
REMARK    4  A    between atoms: O_3  and  C_18
REMARK    5  A    between atoms: O_4  and  C_25
REMARK    6  A    between atoms: C_8  and  C_10
REMARK    7  A    between atoms: C_17  and  C_18
REMARK    8  A    between atoms: C_17  and  C_20
REMARK    9  A    between atoms: C_18  and  C_25
REMARK                            x       y       z     vdW  Elec       q    Type
REMARK                         _______ _______ _______ _____ _____    ______ ____
ROOT
ATOM      1  N   UNL     1     143.550 123.811  99.760  0.00  0.00    +0.000 NA
ATOM      2  N   UNL     1     146.348 125.665  98.613  0.00  0.00    +0.000 NA
ATOM      3  C   UNL     1     144.447 124.753  99.914  0.00  0.00    +0.000 C 
ATOM      4  C   UNL     1     145.306 124.898  98.671  0.00  0.00    +0.000 C 
ATOM      5  C   UNL     1     144.724 123.957  97.724  0.00  0.00    +0.000 A 
ATOM      6  C   UNL     1     143.702 123.339  98.445  0.00  0.00    +0.000 A 
ATOM      7  C   UNL     1     145.012 123.625  96.412  0.00  0.00    +0.000 A 
ATOM      8  C   UNL     1     142.931 122.354  97.853  0.00  0.00    +0.000 A 
ATOM      9  C   UNL     1     144.234 122.632  95.812  0.00  0.00    +0.000 A 
ATOM     10  C   UNL     1     143.202 121.999  96.527  0.00  0.00    +0.000 A 
ENDROOT
BRANCH   3  12
ATOM     11  N   UNL     1     143.973 126.679 102.950  0.00  0.00    +0.000 N 
ATOM     12  C   UNL     1     144.538 125.486 101.155  0.00  0.00    +0.000 A 
ATOM     13  C   UNL     1     145.711 125.715 101.950  0.00  0.00    +0.000 A 
ATOM     14  C   UNL     1     145.328 126.473 103.057  0.00  0.00    +0.000 A 
ATOM     15  C   UNL     1     143.478 126.074 101.824  0.00  0.00    +0.000 A 
ATOM     16  C   UNL     1     147.071 125.360 101.825  0.00  0.00    +0.000 A 
ATOM     17  C   UNL     1     146.229 126.892 104.043  0.00  0.00    +0.000 A 
ATOM     18  C   UNL     1     147.987 125.769 102.801  0.00  0.00    +0.000 A 
ATOM     19  C   UNL     1     147.570 126.525 103.893  0.00  0.00    +0.000 A 
ATOM     20  H   UNL     1     143.428 127.184 103.632  0.00  0.00    +0.000 HD
BRANCH  15  21
ATOM     21  O   UNL     1     142.180 126.080 101.542  0.00  0.00    +0.000 OA
ATOM     22  H   UNL     1     141.831 125.174 101.523  0.00  0.00    +0.000 HD
ENDBRANCH  15  21
ENDBRANCH   3  12
BRANCH   2  23
ATOM     23  O   UNL     1     146.995 125.586  97.377  0.00  0.00    +0.000 OA
BRANCH  23  24
ATOM     24  C   UNL     1     147.747 126.781  97.187  0.00  0.00    +0.000 C 
BRANCH  24  25
ATOM     25  C   UNL     1     148.350 127.216  98.514  0.00  0.00    +0.000 C 
BRANCH  25  26
ATOM     26  C   UNL     1     148.081 128.677  98.874  0.00  0.00    +0.000 C 
BRANCH  26  27
ATOM     27  O   UNL     1     149.063 129.484  98.205  0.00  0.00    +0.000 OA
ATOM     28  H   UNL     1     149.140 129.084  97.315  0.00  0.00    +0.000 HD
ENDBRANCH  26  27
BRANCH  26  29
ATOM     29  C   UNL     1     146.692 129.176  98.463  0.00  0.00    +0.000 C 
BRANCH  29  30
ATOM     30  O   UNL     1     145.721 128.515  99.282  0.00  0.00    +0.000 OA
ATOM     31  H   UNL     1     145.178 129.215  99.688  0.00  0.00    +0.000 HD
ENDBRANCH  29  30
ENDBRANCH  26  29
ENDBRANCH  25  26
ENDBRANCH  24  25
ENDBRANCH  23  24
ENDBRANCH   2  23
TORSDOF 9
ENDMDL
MODEL 7
REMARK VINA RESULT:      -6.9     31.049     34.108
REMARK  Name = 
REMARK  9 active torsions:
REMARK  status: ('A' for Active; 'I' for Inactive)
REMARK    1  A    between atoms: O_1  and  N_7
REMARK    2  A    between atoms: O_1  and  C_20
REMARK    3  A    between atoms: O_2  and  C_14
REMARK    4  A    between atoms: O_3  and  C_18
REMARK    5  A    between atoms: O_4  and  C_25
REMARK    6  A    between atoms: C_8  and  C_10
REMARK    7  A    between atoms: C_17  and  C_18
REMARK    8  A    between atoms: C_17  and  C_20
REMARK    9  A    between atoms: C_18  and  C_25
REMARK                            x       y       z     vdW  Elec       q    Type
REMARK                         _______ _______ _______ _____ _____    ______ ____
ROOT
ATOM      1  N   UNL     1     143.633 125.354 101.917  0.00  0.00    +0.000 NA
ATOM      2  N   UNL     1     144.488 126.974  98.879  0.00  0.00    +0.000 NA
ATOM      3  C   UNL     1     143.518 125.502 100.621  0.00  0.00    +0.000 C 
ATOM      4  C   UNL     1     144.491 126.546 100.102  0.00  0.00    +0.000 C 
ATOM      5  C   UNL     1     145.260 126.931 101.277  0.00  0.00    +0.000 A 
ATOM      6  C   UNL     1     144.684 126.198 102.315  0.00  0.00    +0.000 A 
ATOM      7  C   UNL     1     146.312 127.806 101.482  0.00  0.00    +0.000 A 
ATOM      8  C   UNL     1     145.160 126.331 103.607  0.00  0.00    +0.000 A 
ATOM      9  C   UNL     1     146.795 127.940 102.786  0.00  0.00    +0.000 A 
ATOM     10  C   UNL     1     146.223 127.209 103.841  0.00  0.00    +0.000 A 
ENDROOT
BRANCH   3  12
ATOM     11  N   UNL     1     140.603 123.898  99.178  0.00  0.00    +0.000 N 
ATOM     12  C   UNL     1     142.545 124.738  99.876  0.00  0.00    +0.000 A 
ATOM     13  C   UNL     1     142.790 123.845  98.779  0.00  0.00    +0.000 A 
ATOM     14  C   UNL     1     141.560 123.328  98.374  0.00  0.00    +0.000 A 
ATOM     15  C   UNL     1     141.176 124.765 100.072  0.00  0.00    +0.000 A 
ATOM     16  C   UNL     1     143.949 123.416  98.097  0.00  0.00    +0.000 A 
ATOM     17  C   UNL     1     141.427 122.409  97.326  0.00  0.00    +0.000 A 
ATOM     18  C   UNL     1     143.837 122.497  97.048  0.00  0.00    +0.000 A 
ATOM     19  C   UNL     1     142.592 122.002  96.670  0.00  0.00    +0.000 A 
ATOM     20  H   UNL     1     139.615 123.715  99.090  0.00  0.00    +0.000 HD
BRANCH  15  21
ATOM     21  O   UNL     1     140.442 125.486 100.913  0.00  0.00    +0.000 OA
ATOM     22  H   UNL     1     141.011 126.006 101.503  0.00  0.00    +0.000 HD
ENDBRANCH  15  21
ENDBRANCH   3  12
BRANCH   2  23
ATOM     23  O   UNL     1     145.447 127.967  98.665  0.00  0.00    +0.000 OA
BRANCH  23  24
ATOM     24  C   UNL     1     144.984 128.822  97.624  0.00  0.00    +0.000 C 
BRANCH  24  25
ATOM     25  C   UNL     1     144.116 129.921  98.221  0.00  0.00    +0.000 C 
BRANCH  25  26
ATOM     26  C   UNL     1     142.614 129.666  98.100  0.00  0.00    +0.000 C 
BRANCH  26  27
ATOM     27  O   UNL     1     142.433 128.414  97.421  0.00  0.00    +0.000 OA
ATOM     28  H   UNL     1     141.837 127.904  98.006  0.00  0.00    +0.000 HD
ENDBRANCH  26  27
BRANCH  26  29
ATOM     29  C   UNL     1     141.883 129.591  99.445  0.00  0.00    +0.000 C 
BRANCH  29  30
ATOM     30  O   UNL     1     141.470 128.237  99.653  0.00  0.00    +0.000 OA
ATOM     31  H   UNL     1     141.900 127.938 100.474  0.00  0.00    +0.000 HD
ENDBRANCH  29  30
ENDBRANCH  26  29
ENDBRANCH  25  26
ENDBRANCH  24  25
ENDBRANCH  23  24
ENDBRANCH   2  23
TORSDOF 9
ENDMDL
MODEL 8
REMARK VINA RESULT:      -6.9     31.196     34.905
REMARK  Name = 
REMARK  9 active torsions:
REMARK  status: ('A' for Active; 'I' for Inactive)
REMARK    1  A    between atoms: O_1  and  N_7
REMARK    2  A    between atoms: O_1  and  C_20
REMARK    3  A    between atoms: O_2  and  C_14
REMARK    4  A    between atoms: O_3  and  C_18
REMARK    5  A    between atoms: O_4  and  C_25
REMARK    6  A    between atoms: C_8  and  C_10
REMARK    7  A    between atoms: C_17  and  C_18
REMARK    8  A    between atoms: C_17  and  C_20
REMARK    9  A    between atoms: C_18  and  C_25
REMARK                            x       y       z     vdW  Elec       q    Type
REMARK                         _______ _______ _______ _____ _____    ______ ____
ROOT
ATOM      1  N   UNL     1     146.518 125.168  98.065  0.00  0.00    +0.000 NA
ATOM      2  N   UNL     1     143.971 126.470 100.164  0.00  0.00    +0.000 NA
ATOM      3  C   UNL     1     145.315 125.118  98.581  0.00  0.00    +0.000 C 
ATOM      4  C   UNL     1     145.035 126.339  99.438  0.00  0.00    +0.000 C 
ATOM      5  C   UNL     1     146.226 127.164  99.280  0.00  0.00    +0.000 A 
ATOM      6  C   UNL     1     147.065 126.397  98.470  0.00  0.00    +0.000 A 
ATOM      7  C   UNL     1     146.595 128.406  99.765  0.00  0.00    +0.000 A 
ATOM      8  C   UNL     1     148.317 126.871  98.123  0.00  0.00    +0.000 A 
ATOM      9  C   UNL     1     147.859 128.886  99.415  0.00  0.00    +0.000 A 
ATOM     10  C   UNL     1     148.715 128.124  98.601  0.00  0.00    +0.000 A 
ENDROOT
BRANCH   3  12
ATOM     11  N   UNL     1     143.070 122.269  98.640  0.00  0.00    +0.000 N 
ATOM     12  C   UNL     1     144.451 123.990  98.323  0.00  0.00    +0.000 A 
ATOM     13  C   UNL     1     144.095 123.436  97.047  0.00  0.00    +0.000 A 
ATOM     14  C   UNL     1     143.243 122.356  97.279  0.00  0.00    +0.000 A 
ATOM     15  C   UNL     1     143.771 123.257  99.281  0.00  0.00    +0.000 A 
ATOM     16  C   UNL     1     144.430 123.743  95.711  0.00  0.00    +0.000 A 
ATOM     17  C   UNL     1     142.708 121.572  96.250  0.00  0.00    +0.000 A 
ATOM     18  C   UNL     1     143.906 122.971  94.669  0.00  0.00    +0.000 A 
ATOM     19  C   UNL     1     143.057 121.901  94.937  0.00  0.00    +0.000 A 
ATOM     20  H   UNL     1     142.480 121.584  99.087  0.00  0.00    +0.000 HD
BRANCH  15  21
ATOM     21  O   UNL     1     143.707 123.416 100.599  0.00  0.00    +0.000 OA
ATOM     22  H   UNL     1     142.825 123.179 100.928  0.00  0.00    +0.000 HD
ENDBRANCH  15  21
ENDBRANCH   3  12
BRANCH   2  23
ATOM     23  O   UNL     1     143.973 127.660 100.895  0.00  0.00    +0.000 OA
BRANCH  23  24
ATOM     24  C   UNL     1     143.402 127.402 102.175  0.00  0.00    +0.000 C 
BRANCH  24  25
ATOM     25  C   UNL     1     144.436 127.685 103.256  0.00  0.00    +0.000 C 
BRANCH  25  26
ATOM     26  C   UNL     1     145.407 126.531 103.510  0.00  0.00    +0.000 C 
BRANCH  26  27
ATOM     27  O   UNL     1     144.942 125.393 102.769  0.00  0.00    +0.000 OA
ATOM     28  H   UNL     1     145.546 124.669 103.030  0.00  0.00    +0.000 HD
ENDBRANCH  26  27
BRANCH  26  29
ATOM     29  C   UNL     1     146.849 126.824 103.082  0.00  0.00    +0.000 C 
BRANCH  29  30
ATOM     30  O   UNL     1     147.100 128.219 103.287  0.00  0.00    +0.000 OA
ATOM     31  H   UNL     1     148.061 128.345 103.186  0.00  0.00    +0.000 HD
ENDBRANCH  29  30
ENDBRANCH  26  29
ENDBRANCH  25  26
ENDBRANCH  24  25
ENDBRANCH  23  24
ENDBRANCH   2  23
TORSDOF 9
ENDMDL
MODEL 9
REMARK VINA RESULT:      -6.8      3.908      8.793
REMARK  Name = 
REMARK  9 active torsions:
REMARK  status: ('A' for Active; 'I' for Inactive)
REMARK    1  A    between atoms: O_1  and  N_7
REMARK    2  A    between atoms: O_1  and  C_20
REMARK    3  A    between atoms: O_2  and  C_14
REMARK    4  A    between atoms: O_3  and  C_18
REMARK    5  A    between atoms: O_4  and  C_25
REMARK    6  A    between atoms: C_8  and  C_10
REMARK    7  A    between atoms: C_17  and  C_18
REMARK    8  A    between atoms: C_17  and  C_20
REMARK    9  A    between atoms: C_18  and  C_25
REMARK                            x       y       z     vdW  Elec       q    Type
REMARK                         _______ _______ _______ _____ _____    ______ ____
ROOT
ATOM      1  N   UNL     1     136.619 122.271 132.883  0.00  0.00    +0.000 NA
ATOM      2  N   UNL     1     135.693 122.277 136.307  0.00  0.00    +0.000 NA
ATOM      3  C   UNL     1     136.877 122.514 134.144  0.00  0.00    +0.000 C 
ATOM      4  C   UNL     1     135.745 122.037 135.035  0.00  0.00    +0.000 C 
ATOM      5  C   UNL     1     134.815 121.396 134.116  0.00  0.00    +0.000 A 
ATOM      6  C   UNL     1     135.390 121.590 132.860  0.00  0.00    +0.000 A 
ATOM      7  C   UNL     1     133.610 120.737 134.287  0.00  0.00    +0.000 A 
ATOM      8  C   UNL     1     134.756 121.118 131.725  0.00  0.00    +0.000 A 
ATOM      9  C   UNL     1     132.969 120.258 133.142  0.00  0.00    +0.000 A 
ATOM     10  C   UNL     1     133.536 120.448 131.870  0.00  0.00    +0.000 A 
ENDROOT
BRANCH   3  12
ATOM     11  N   UNL     1     140.008 123.645 135.584  0.00  0.00    +0.000 N 
ATOM     12  C   UNL     1     138.102 123.175 134.530  0.00  0.00    +0.000 A 
ATOM     13  C   UNL     1     138.672 124.362 133.957  0.00  0.00    +0.000 A 
ATOM     14  C   UNL     1     139.854 124.636 134.645  0.00  0.00    +0.000 A 
ATOM     15  C   UNL     1     138.975 122.746 135.514  0.00  0.00    +0.000 A 
ATOM     16  C   UNL     1     138.285 125.242 132.923  0.00  0.00    +0.000 A 
ATOM     17  C   UNL     1     140.667 125.737 134.354  0.00  0.00    +0.000 A 
ATOM     18  C   UNL     1     139.085 126.348 132.618  0.00  0.00    +0.000 A 
ATOM     19  C   UNL     1     140.259 126.591 133.325  0.00  0.00    +0.000 A 
ATOM     20  H   UNL     1     140.795 123.585 136.212  0.00  0.00    +0.000 HD
BRANCH  15  21
ATOM     21  O   UNL     1     138.940 121.662 136.281  0.00  0.00    +0.000 OA
ATOM     22  H   UNL     1     139.103 121.895 137.209  0.00  0.00    +0.000 HD
ENDBRANCH  15  21
ENDBRANCH   3  12
BRANCH   2  23
ATOM     23  O   UNL     1     134.528 121.774 136.892  0.00  0.00    +0.000 OA
BRANCH  23  24
ATOM     24  C   UNL     1     134.898 120.798 137.862  0.00  0.00    +0.000 C 
BRANCH  24  25
ATOM     25  C   UNL     1     133.739 120.573 138.822  0.00  0.00    +0.000 C 
BRANCH  25  26
ATOM     26  C   UNL     1     132.554 119.827 138.208  0.00  0.00    +0.000 C 
BRANCH  26  27
ATOM     27  O   UNL     1     131.834 120.751 137.378  0.00  0.00    +0.000 OA
ATOM     28  H   UNL     1     130.916 120.713 137.711  0.00  0.00    +0.000 HD
ENDBRANCH  26  27
BRANCH  26  29
ATOM     29  C   UNL     1     132.953 118.622 137.349  0.00  0.00    +0.000 C 
BRANCH  29  30
ATOM     30  O   UNL     1     133.347 117.561 138.225  0.00  0.00    +0.000 OA
ATOM     31  H   UNL     1     133.247 117.899 139.133  0.00  0.00    +0.000 HD
ENDBRANCH  29  30
ENDBRANCH  26  29
ENDBRANCH  25  26
ENDBRANCH  24  25
ENDBRANCH  23  24
ENDBRANCH   2  23
TORSDOF 9
ENDMDL
