MODEL 1
REMARK VINA RESULT:      -7.1      0.000      0.000
REMARK  Name = IPA3.pdbqt.pdb
REMARK  5 active torsions:
REMARK  status: ('A' for Active; 'I' for Inactive)
REMARK    1  A    between atoms: S_1  and  S_2
REMARK    2  A    between atoms: S_1  and  C_15
REMARK    3  A    between atoms: S_2  and  C_3
REMARK    4  A    between atoms: C_10  and  O_13
REMARK    5  A    between atoms: C_22  and  O_25
REMARK                            x       y       z     vdW  Elec       q    Type
REMARK                         _______ _______ _______ _____ _____    ______ ____
ROOT
ATOM      1  S   UNL     1     145.540 127.555 100.828  0.00  0.00    +0.000 S 
ENDROOT
BRANCH   1   2
ATOM      2  C   UNL     1     144.905 127.196  99.183  0.00  0.00    +0.000 A 
ATOM      3  C   UNL     1     143.726 127.815  98.702  0.00  0.00    +0.000 A 
ATOM      4  C   UNL     1     143.284 127.521  97.391  0.00  0.00    +0.000 A 
ATOM      5  C   UNL     1     142.965 128.728  99.454  0.00  0.00    +0.000 A 
ATOM      6  C   UNL     1     143.988 126.623  96.592  0.00  0.00    +0.000 A 
ATOM      7  C   UNL     1     142.141 128.130  96.875  0.00  0.00    +0.000 A 
ATOM      8  C   UNL     1     145.135 126.004  97.072  0.00  0.00    +0.000 A 
ATOM      9  C   UNL     1     145.589 126.291  98.356  0.00  0.00    +0.000 A 
ATOM     10  C   UNL     1     141.414 129.035  97.642  0.00  0.00    +0.000 A 
ATOM     11  C   UNL     1     141.825 129.335  98.934  0.00  0.00    +0.000 A 
BRANCH   9  12
ATOM     12  O   UNL     1     146.732 125.651  98.756  0.00  0.00    +0.000 OA
ATOM     13  H   UNL     1     146.736 124.767  98.345  0.00  0.00    +0.000 HD
ENDBRANCH   9  12
ENDBRANCH   1   2
BRANCH   1  14
ATOM     14  S   UNL     1     144.930 125.892 101.881  0.00  0.00    +0.000 S 
BRANCH  14  15
ATOM     15  C   UNL     1     143.145 125.971 101.685  0.00  0.00    +0.000 A 
ATOM     16  C   UNL     1     142.474 125.149 100.748  0.00  0.00    +0.000 A 
ATOM     17  C   UNL     1     141.065 125.229 100.651  0.00  0.00    +0.000 A 
ATOM     18  C   UNL     1     143.132 124.237  99.903  0.00  0.00    +0.000 A 
ATOM     19  C   UNL     1     140.350 126.114 101.452  0.00  0.00    +0.000 A 
ATOM     20  C   UNL     1     140.369 124.418  99.755  0.00  0.00    +0.000 A 
ATOM     21  C   UNL     1     141.011 126.932 102.362  0.00  0.00    +0.000 A 
ATOM     22  C   UNL     1     142.395 126.858 102.476  0.00  0.00    +0.000 A 
ATOM     23  C   UNL     1     141.049 123.517  98.939  0.00  0.00    +0.000 A 
ATOM     24  C   UNL     1     142.434 123.428  99.012  0.00  0.00    +0.000 A 
BRANCH  22  25
ATOM     25  O   UNL     1     142.975 127.687 103.399  0.00  0.00    +0.000 OA
ATOM     26  H   UNL     1     143.860 127.330 103.602  0.00  0.00    +0.000 HD
ENDBRANCH  22  25
ENDBRANCH  14  15
ENDBRANCH   1  14
TORSDOF 5
ENDMDL
MODEL 2
REMARK VINA RESULT:      -7.0      2.507      4.726
REMARK  Name = IPA3.pdbqt.pdb
REMARK  5 active torsions:
REMARK  status: ('A' for Active; 'I' for Inactive)
REMARK    1  A    between atoms: S_1  and  S_2
REMARK    2  A    between atoms: S_1  and  C_15
REMARK    3  A    between atoms: S_2  and  C_3
REMARK    4  A    between atoms: C_10  and  O_13
REMARK    5  A    between atoms: C_22  and  O_25
REMARK                            x       y       z     vdW  Elec       q    Type
REMARK                         _______ _______ _______ _____ _____    ______ ____
ROOT
ATOM      1  S   UNL     1     144.224 124.408  97.894  0.00  0.00    +0.000 S 
ENDROOT
BRANCH   1   2
ATOM      2  C   UNL     1     143.126 125.398  98.919  0.00  0.00    +0.000 A 
ATOM      3  C   UNL     1     143.113 126.811  98.825  0.00  0.00    +0.000 A 
ATOM      4  C   UNL     1     142.211 127.542  99.633  0.00  0.00    +0.000 A 
ATOM      5  C   UNL     1     143.944 127.539  97.955  0.00  0.00    +0.000 A 
ATOM      6  C   UNL     1     141.362 126.885 100.519  0.00  0.00    +0.000 A 
ATOM      7  C   UNL     1     142.153 128.933  99.549  0.00  0.00    +0.000 A 
ATOM      8  C   UNL     1     141.389 125.500 100.622  0.00  0.00    +0.000 A 
ATOM      9  C   UNL     1     142.262 124.765  99.827  0.00  0.00    +0.000 A 
ATOM     10  C   UNL     1     142.983 129.625  98.672  0.00  0.00    +0.000 A 
ATOM     11  C   UNL     1     143.881 128.928  97.875  0.00  0.00    +0.000 A 
BRANCH   9  12
ATOM     12  O   UNL     1     142.224 123.404  99.976  0.00  0.00    +0.000 OA
ATOM     13  H   UNL     1     141.423 123.078  99.527  0.00  0.00    +0.000 HD
ENDBRANCH   9  12
ENDBRANCH   1   2
BRANCH   1  14
ATOM     14  S   UNL     1     145.632 123.791  99.267  0.00  0.00    +0.000 S 
BRANCH  14  15
ATOM     15  C   UNL     1     145.966 125.318 100.156  0.00  0.00    +0.000 A 
ATOM     16  C   UNL     1     146.693 126.372  99.553  0.00  0.00    +0.000 A 
ATOM     17  C   UNL     1     146.906 127.564 100.285  0.00  0.00    +0.000 A 
ATOM     18  C   UNL     1     147.214 126.310  98.248  0.00  0.00    +0.000 A 
ATOM     19  C   UNL     1     146.422 127.692 101.584  0.00  0.00    +0.000 A 
ATOM     20  C   UNL     1     147.598 128.632  99.715  0.00  0.00    +0.000 A 
ATOM     21  C   UNL     1     145.721 126.650 102.180  0.00  0.00    +0.000 A 
ATOM     22  C   UNL     1     145.496 125.476 101.470  0.00  0.00    +0.000 A 
ATOM     23  C   UNL     1     148.093 128.543  98.417  0.00  0.00    +0.000 A 
ATOM     24  C   UNL     1     147.903 127.379  97.682  0.00  0.00    +0.000 A 
BRANCH  22  25
ATOM     25  O   UNL     1     144.790 124.498 102.120  0.00  0.00    +0.000 OA
ATOM     26  H   UNL     1     143.902 124.852 102.312  0.00  0.00    +0.000 HD
ENDBRANCH  22  25
ENDBRANCH  14  15
ENDBRANCH   1  14
TORSDOF 5
ENDMDL
MODEL 3
REMARK VINA RESULT:      -6.9      2.097      3.965
REMARK  Name = IPA3.pdbqt.pdb
REMARK  5 active torsions:
REMARK  status: ('A' for Active; 'I' for Inactive)
REMARK    1  A    between atoms: S_1  and  S_2
REMARK    2  A    between atoms: S_1  and  C_15
REMARK    3  A    between atoms: S_2  and  C_3
REMARK    4  A    between atoms: C_10  and  O_13
REMARK    5  A    between atoms: C_22  and  O_25
REMARK                            x       y       z     vdW  Elec       q    Type
REMARK                         _______ _______ _______ _____ _____    ______ ____
ROOT
ATOM      1  S   UNL     1     144.600 127.030 103.465  0.00  0.00    +0.000 S 
ENDROOT
BRANCH   1   2
ATOM      2  C   UNL     1     145.630 126.711 102.025  0.00  0.00    +0.000 A 
ATOM      3  C   UNL     1     145.426 125.564 101.220  0.00  0.00    +0.000 A 
ATOM      4  C   UNL     1     146.245 125.373 100.081  0.00  0.00    +0.000 A 
ATOM      5  C   UNL     1     144.438 124.598 101.478  0.00  0.00    +0.000 A 
ATOM      6  C   UNL     1     147.246 126.288  99.768  0.00  0.00    +0.000 A 
ATOM      7  C   UNL     1     146.058 124.268  99.252  0.00  0.00    +0.000 A 
ATOM      8  C   UNL     1     147.454 127.404 100.569  0.00  0.00    +0.000 A 
ATOM      9  C   UNL     1     146.651 127.612 101.686  0.00  0.00    +0.000 A 
ATOM     10  C   UNL     1     145.065 123.333  99.531  0.00  0.00    +0.000 A 
ATOM     11  C   UNL     1     144.254 123.497 100.646  0.00  0.00    +0.000 A 
BRANCH   9  12
ATOM     12  O   UNL     1     146.909 128.739 102.421  0.00  0.00    +0.000 OA
ATOM     13  H   UNL     1     146.472 128.636 103.285  0.00  0.00    +0.000 HD
ENDBRANCH   9  12
ENDBRANCH   1   2
BRANCH   1  14
ATOM     14  S   UNL     1     143.207 128.341 102.698  0.00  0.00    +0.000 S 
BRANCH  14  15
ATOM     15  C   UNL     1     142.269 127.272 101.598  0.00  0.00    +0.000 A 
ATOM     16  C   UNL     1     142.575 127.193 100.218  0.00  0.00    +0.000 A 
ATOM     17  C   UNL     1     141.826 126.316  99.399  0.00  0.00    +0.000 A 
ATOM     18  C   UNL     1     143.603 127.933  99.606  0.00  0.00    +0.000 A 
ATOM     19  C   UNL     1     140.791 125.557  99.938  0.00  0.00    +0.000 A 
ATOM     20  C   UNL     1     142.114 126.194  98.040  0.00  0.00    +0.000 A 
ATOM     21  C   UNL     1     140.481 125.648 101.290  0.00  0.00    +0.000 A 
ATOM     22  C   UNL     1     141.215 126.497 102.110  0.00  0.00    +0.000 A 
ATOM     23  C   UNL     1     143.144 126.934  97.466  0.00  0.00    +0.000 A 
ATOM     24  C   UNL     1     143.889 127.807  98.249  0.00  0.00    +0.000 A 
BRANCH  22  25
ATOM     25  O   UNL     1     140.858 126.527 103.432  0.00  0.00    +0.000 OA
ATOM     26  H   UNL     1     139.968 126.920 103.489  0.00  0.00    +0.000 HD
ENDBRANCH  22  25
ENDBRANCH  14  15
ENDBRANCH   1  14
TORSDOF 5
ENDMDL
MODEL 4
REMARK VINA RESULT:      -6.8      2.389      4.183
REMARK  Name = IPA3.pdbqt.pdb
REMARK  5 active torsions:
REMARK  status: ('A' for Active; 'I' for Inactive)
REMARK    1  A    between atoms: S_1  and  S_2
REMARK    2  A    between atoms: S_1  and  C_15
REMARK    3  A    between atoms: S_2  and  C_3
REMARK    4  A    between atoms: C_10  and  O_13
REMARK    5  A    between atoms: C_22  and  O_25
REMARK                            x       y       z     vdW  Elec       q    Type
REMARK                         _______ _______ _______ _____ _____    ______ ____
ROOT
ATOM      1  S   UNL     1     142.312 125.497 101.487  0.00  0.00    +0.000 S 
ENDROOT
BRANCH   1   2
ATOM      2  C   UNL     1     142.062 125.605  99.709  0.00  0.00    +0.000 A 
ATOM      3  C   UNL     1     142.228 126.830  99.019  0.00  0.00    +0.000 A 
ATOM      4  C   UNL     1     142.048 126.856  97.616  0.00  0.00    +0.000 A 
ATOM      5  C   UNL     1     142.580 128.036  99.650  0.00  0.00    +0.000 A 
ATOM      6  C   UNL     1     141.695 125.698  96.926  0.00  0.00    +0.000 A 
ATOM      7  C   UNL     1     142.226 128.039  96.900  0.00  0.00    +0.000 A 
ATOM      8  C   UNL     1     141.516 124.501  97.608  0.00  0.00    +0.000 A 
ATOM      9  C   UNL     1     141.700 124.456  98.986  0.00  0.00    +0.000 A 
ATOM     10  C   UNL     1     142.582 129.215  97.554  0.00  0.00    +0.000 A 
ATOM     11  C   UNL     1     142.759 129.215  98.931  0.00  0.00    +0.000 A 
BRANCH   9  12
ATOM     12  O   UNL     1     141.517 123.239  99.587  0.00  0.00    +0.000 OA
ATOM     13  H   UNL     1     140.839 123.349 100.279  0.00  0.00    +0.000 HD
ENDBRANCH   9  12
ENDBRANCH   1   2
BRANCH   1  14
ATOM     14  S   UNL     1     144.172 124.616 101.593  0.00  0.00    +0.000 S 
BRANCH  14  15
ATOM     15  C   UNL     1     145.240 126.046 101.809  0.00  0.00    +0.000 A 
ATOM     16  C   UNL     1     145.815 126.705 100.696  0.00  0.00    +0.000 A 
ATOM     17  C   UNL     1     146.626 127.842 100.916  0.00  0.00    +0.000 A 
ATOM     18  C   UNL     1     145.616 126.298  99.364  0.00  0.00    +0.000 A 
ATOM     19  C   UNL     1     146.870 128.297 102.208  0.00  0.00    +0.000 A 
ATOM     20  C   UNL     1     147.191 128.530  99.842  0.00  0.00    +0.000 A 
ATOM     21  C   UNL     1     146.317 127.641 103.302  0.00  0.00    +0.000 A 
ATOM     22  C   UNL     1     145.509 126.527 103.101  0.00  0.00    +0.000 A 
ATOM     23  C   UNL     1     146.966 128.108  98.534  0.00  0.00    +0.000 A 
ATOM     24  C   UNL     1     146.179 126.988  98.294  0.00  0.00    +0.000 A 
BRANCH  22  25
ATOM     25  O   UNL     1     144.993 125.939 104.225  0.00  0.00    +0.000 OA
ATOM     26  H   UNL     1     145.669 125.331 104.578  0.00  0.00    +0.000 HD
ENDBRANCH  22  25
ENDBRANCH  14  15
ENDBRANCH   1  14
TORSDOF 5
ENDMDL
MODEL 5
REMARK VINA RESULT:      -6.8      2.397      4.784
REMARK  Name = IPA3.pdbqt.pdb
REMARK  5 active torsions:
REMARK  status: ('A' for Active; 'I' for Inactive)
REMARK    1  A    between atoms: S_1  and  S_2
REMARK    2  A    between atoms: S_1  and  C_15
REMARK    3  A    between atoms: S_2  and  C_3
REMARK    4  A    between atoms: C_10  and  O_13
REMARK    5  A    between atoms: C_22  and  O_25
REMARK                            x       y       z     vdW  Elec       q    Type
REMARK                         _______ _______ _______ _____ _____    ______ ____
ROOT
ATOM      1  S   UNL     1     144.194 124.582 101.406  0.00  0.00    +0.000 S 
ENDROOT
BRANCH   1   2
ATOM      2  C   UNL     1     145.254 126.009 101.683  0.00  0.00    +0.000 A 
ATOM      3  C   UNL     1     145.847 126.701 100.599  0.00  0.00    +0.000 A 
ATOM      4  C   UNL     1     146.649 127.835 100.868  0.00  0.00    +0.000 A 
ATOM      5  C   UNL     1     145.672 126.334  99.254  0.00  0.00    +0.000 A 
ATOM      6  C   UNL     1     146.868 128.252 102.178  0.00  0.00    +0.000 A 
ATOM      7  C   UNL     1     147.230 128.556  99.825  0.00  0.00    +0.000 A 
ATOM      8  C   UNL     1     146.299 127.561 103.241  0.00  0.00    +0.000 A 
ATOM      9  C   UNL     1     145.498 126.451 102.993  0.00  0.00    +0.000 A 
ATOM     10  C   UNL     1     147.031 128.171  98.502  0.00  0.00    +0.000 A 
ATOM     11  C   UNL     1     146.252 127.058  98.215  0.00  0.00    +0.000 A 
BRANCH   9  12
ATOM     12  O   UNL     1     144.964 125.828 104.089  0.00  0.00    +0.000 OA
ATOM     13  H   UNL     1     145.575 125.117 104.354  0.00  0.00    +0.000 HD
ENDBRANCH   9  12
ENDBRANCH   1   2
BRANCH   1  14
ATOM     14  S   UNL     1     142.330 125.457 101.326  0.00  0.00    +0.000 S 
BRANCH  14  15
ATOM     15  C   UNL     1     142.052 125.560  99.553  0.00  0.00    +0.000 A 
ATOM     16  C   UNL     1     142.214 126.782  98.857  0.00  0.00    +0.000 A 
ATOM     17  C   UNL     1     142.010 126.805  97.457  0.00  0.00    +0.000 A 
ATOM     18  C   UNL     1     142.581 127.989  99.479  0.00  0.00    +0.000 A 
ATOM     19  C   UNL     1     141.640 125.648  96.777  0.00  0.00    +0.000 A 
ATOM     20  C   UNL     1     142.183 127.986  96.734  0.00  0.00    +0.000 A 
ATOM     21  C   UNL     1     141.467 124.453  97.465  0.00  0.00    +0.000 A 
ATOM     22  C   UNL     1     141.673 124.412  98.839  0.00  0.00    +0.000 A 
ATOM     23  C   UNL     1     142.557 129.162  97.379  0.00  0.00    +0.000 A 
ATOM     24  C   UNL     1     142.754 129.165  98.754  0.00  0.00    +0.000 A 
BRANCH  22  25
ATOM     25  O   UNL     1     141.493 123.197  99.446  0.00  0.00    +0.000 OA
ATOM     26  H   UNL     1     142.281 122.653  99.259  0.00  0.00    +0.000 HD
ENDBRANCH  22  25
ENDBRANCH  14  15
ENDBRANCH   1  14
TORSDOF 5
ENDMDL
MODEL 6
REMARK VINA RESULT:      -6.7      1.980      5.011
REMARK  Name = IPA3.pdbqt.pdb
REMARK  5 active torsions:
REMARK  status: ('A' for Active; 'I' for Inactive)
REMARK    1  A    between atoms: S_1  and  S_2
REMARK    2  A    between atoms: S_1  and  C_15
REMARK    3  A    between atoms: S_2  and  C_3
REMARK    4  A    between atoms: C_10  and  O_13
REMARK    5  A    between atoms: C_22  and  O_25
REMARK                            x       y       z     vdW  Elec       q    Type
REMARK                         _______ _______ _______ _____ _____    ______ ____
ROOT
ATOM      1  S   UNL     1     144.623 123.769  99.810  0.00  0.00    +0.000 S 
ENDROOT
BRANCH   1   2
ATOM      2  C   UNL     1     144.329 124.990 101.098  0.00  0.00    +0.000 A 
ATOM      3  C   UNL     1     143.046 125.557 101.290  0.00  0.00    +0.000 A 
ATOM      4  C   UNL     1     142.860 126.493 102.335  0.00  0.00    +0.000 A 
ATOM      5  C   UNL     1     141.927 125.232 100.503  0.00  0.00    +0.000 A 
ATOM      6  C   UNL     1     143.927 126.864 103.150  0.00  0.00    +0.000 A 
ATOM      7  C   UNL     1     141.605 127.054 102.569  0.00  0.00    +0.000 A 
ATOM      8  C   UNL     1     145.188 126.319 102.949  0.00  0.00    +0.000 A 
ATOM      9  C   UNL     1     145.385 125.389 101.933  0.00  0.00    +0.000 A 
ATOM     10  C   UNL     1     140.515 126.705 101.777  0.00  0.00    +0.000 A 
ATOM     11  C   UNL     1     140.675 125.794 100.742  0.00  0.00    +0.000 A 
BRANCH   9  12
ATOM     12  O   UNL     1     146.653 124.888 101.802  0.00  0.00    +0.000 OA
ATOM     13  H   UNL     1     146.711 124.450 100.934  0.00  0.00    +0.000 HD
ENDBRANCH   9  12
ENDBRANCH   1   2
BRANCH   1  14
ATOM     14  S   UNL     1     145.332 124.945  98.274  0.00  0.00    +0.000 S 
BRANCH  14  15
ATOM     15  C   UNL     1     143.804 125.503  97.508  0.00  0.00    +0.000 A 
ATOM     16  C   UNL     1     143.294 126.801  97.753  0.00  0.00    +0.000 A 
ATOM     17  C   UNL     1     142.103 127.202  97.104  0.00  0.00    +0.000 A 
ATOM     18  C   UNL     1     143.914 127.732  98.605  0.00  0.00    +0.000 A 
ATOM     19  C   UNL     1     141.434 126.329  96.251  0.00  0.00    +0.000 A 
ATOM     20  C   UNL     1     141.583 128.481  97.304  0.00  0.00    +0.000 A 
ATOM     21  C   UNL     1     141.927 125.050  96.024  0.00  0.00    +0.000 A 
ATOM     22  C   UNL     1     143.102 124.644  96.646  0.00  0.00    +0.000 A 
ATOM     23  C   UNL     1     142.226 129.384  98.146  0.00  0.00    +0.000 A 
ATOM     24  C   UNL     1     143.393 129.008  98.800  0.00  0.00    +0.000 A 
BRANCH  22  25
ATOM     25  O   UNL     1     143.533 123.374  96.366  0.00  0.00    +0.000 OA
ATOM     26  H   UNL     1     143.136 122.776  97.026  0.00  0.00    +0.000 HD
ENDBRANCH  22  25
ENDBRANCH  14  15
ENDBRANCH   1  14
TORSDOF 5
ENDMDL
MODEL 7
REMARK VINA RESULT:      -6.7      1.888      3.669
REMARK  Name = IPA3.pdbqt.pdb
REMARK  5 active torsions:
REMARK  status: ('A' for Active; 'I' for Inactive)
REMARK    1  A    between atoms: S_1  and  S_2
REMARK    2  A    between atoms: S_1  and  C_15
REMARK    3  A    between atoms: S_2  and  C_3
REMARK    4  A    between atoms: C_10  and  O_13
REMARK    5  A    between atoms: C_22  and  O_25
REMARK                            x       y       z     vdW  Elec       q    Type
REMARK                         _______ _______ _______ _____ _____    ______ ____
ROOT
ATOM      1  S   UNL     1     143.788 127.845 102.415  0.00  0.00    +0.000 S 
ENDROOT
BRANCH   1   2
ATOM      2  C   UNL     1     143.331 127.943 100.678  0.00  0.00    +0.000 A 
ATOM      3  C   UNL     1     144.317 127.984  99.663  0.00  0.00    +0.000 A 
ATOM      4  C   UNL     1     143.905 128.033  98.310  0.00  0.00    +0.000 A 
ATOM      5  C   UNL     1     145.699 127.966  99.921  0.00  0.00    +0.000 A 
ATOM      6  C   UNL     1     142.552 128.058  97.983  0.00  0.00    +0.000 A 
ATOM      7  C   UNL     1     144.848 128.050  97.283  0.00  0.00    +0.000 A 
ATOM      8  C   UNL     1     141.586 128.035  98.982  0.00  0.00    +0.000 A 
ATOM      9  C   UNL     1     141.974 127.976 100.316  0.00  0.00    +0.000 A 
ATOM     10  C   UNL     1     146.209 128.023  97.571  0.00  0.00    +0.000 A 
ATOM     11  C   UNL     1     146.637 127.982  98.891  0.00  0.00    +0.000 A 
BRANCH   9  12
ATOM     12  O   UNL     1     140.967 127.945 101.244  0.00  0.00    +0.000 OA
ATOM     13  H   UNL     1     141.376 127.981 102.127  0.00  0.00    +0.000 HD
ENDBRANCH   9  12
ENDBRANCH   1   2
BRANCH   1  14
ATOM     14  S   UNL     1     143.457 125.852 102.820  0.00  0.00    +0.000 S 
BRANCH  14  15
ATOM     15  C   UNL     1     144.355 125.054 101.482  0.00  0.00    +0.000 A 
ATOM     16  C   UNL     1     143.670 124.455 100.398  0.00  0.00    +0.000 A 
ATOM     17  C   UNL     1     144.422 123.864  99.355  0.00  0.00    +0.000 A 
ATOM     18  C   UNL     1     142.268 124.421 100.286  0.00  0.00    +0.000 A 
ATOM     19  C   UNL     1     145.813 123.858  99.403  0.00  0.00    +0.000 A 
ATOM     20  C   UNL     1     143.783 123.284  98.259  0.00  0.00    +0.000 A 
ATOM     21  C   UNL     1     146.484 124.433 100.476  0.00  0.00    +0.000 A 
ATOM     22  C   UNL     1     145.759 125.026 101.503  0.00  0.00    +0.000 A 
ATOM     23  C   UNL     1     142.393 123.276  98.174  0.00  0.00    +0.000 A 
ATOM     24  C   UNL     1     141.634 123.843  99.190  0.00  0.00    +0.000 A 
BRANCH  22  25
ATOM     25  O   UNL     1     146.488 125.581 102.522  0.00  0.00    +0.000 OA
ATOM     26  H   UNL     1     146.701 126.498 102.268  0.00  0.00    +0.000 HD
ENDBRANCH  22  25
ENDBRANCH  14  15
ENDBRANCH   1  14
TORSDOF 5
ENDMDL
MODEL 8
REMARK VINA RESULT:      -6.6      2.425      4.621
REMARK  Name = IPA3.pdbqt.pdb
REMARK  5 active torsions:
REMARK  status: ('A' for Active; 'I' for Inactive)
REMARK    1  A    between atoms: S_1  and  S_2
REMARK    2  A    between atoms: S_1  and  C_15
REMARK    3  A    between atoms: S_2  and  C_3
REMARK    4  A    between atoms: C_10  and  O_13
REMARK    5  A    between atoms: C_22  and  O_25
REMARK                            x       y       z     vdW  Elec       q    Type
REMARK                         _______ _______ _______ _____ _____    ______ ____
ROOT
ATOM      1  S   UNL     1     144.123 123.864 100.675  0.00  0.00    +0.000 S 
ENDROOT
BRANCH   1   2
ATOM      2  C   UNL     1     145.097 124.390  99.257  0.00  0.00    +0.000 A 
ATOM      3  C   UNL     1     144.905 123.808  97.981  0.00  0.00    +0.000 A 
ATOM      4  C   UNL     1     145.676 124.277  96.891  0.00  0.00    +0.000 A 
ATOM      5  C   UNL     1     143.972 122.788  97.724  0.00  0.00    +0.000 A 
ATOM      6  C   UNL     1     146.622 125.283  97.075  0.00  0.00    +0.000 A 
ATOM      7  C   UNL     1     145.497 123.744  95.615  0.00  0.00    +0.000 A 
ATOM      8  C   UNL     1     146.820 125.841  98.331  0.00  0.00    +0.000 A 
ATOM      9  C   UNL     1     146.062 125.399  99.411  0.00  0.00    +0.000 A 
ATOM     10  C   UNL     1     144.559 122.740  95.392  0.00  0.00    +0.000 A 
ATOM     11  C   UNL     1     143.796 122.260  96.448  0.00  0.00    +0.000 A 
BRANCH   9  12
ATOM     12  O   UNL     1     146.306 126.003 100.616  0.00  0.00    +0.000 OA
ATOM     13  H   UNL     1     146.395 125.301 101.287  0.00  0.00    +0.000 HD
ENDBRANCH   9  12
ENDBRANCH   1   2
BRANCH   1  14
ATOM     14  S   UNL     1     142.626 125.279 100.701  0.00  0.00    +0.000 S 
BRANCH  14  15
ATOM     15  C   UNL     1     141.880 125.049  99.082  0.00  0.00    +0.000 A 
ATOM     16  C   UNL     1     142.186 125.915  98.005  0.00  0.00    +0.000 A 
ATOM     17  C   UNL     1     141.594 125.676  96.743  0.00  0.00    +0.000 A 
ATOM     18  C   UNL     1     143.066 127.008  98.112  0.00  0.00    +0.000 A 
ATOM     19  C   UNL     1     140.710 124.615  96.567  0.00  0.00    +0.000 A 
ATOM     20  C   UNL     1     141.890 126.495  95.653  0.00  0.00    +0.000 A 
ATOM     21  C   UNL     1     140.398 123.775  97.629  0.00  0.00    +0.000 A 
ATOM     22  C   UNL     1     140.980 123.991  98.873  0.00  0.00    +0.000 A 
ATOM     23  C   UNL     1     142.773 127.563  95.790  0.00  0.00    +0.000 A 
ATOM     24  C   UNL     1     143.361 127.822  97.022  0.00  0.00    +0.000 A 
BRANCH  22  25
ATOM     25  O   UNL     1     140.632 123.117  99.868  0.00  0.00    +0.000 OA
ATOM     26  H   UNL     1     139.678 123.225 100.037  0.00  0.00    +0.000 HD
ENDBRANCH  22  25
ENDBRANCH  14  15
ENDBRANCH   1  14
TORSDOF 5
ENDMDL
MODEL 9
REMARK VINA RESULT:      -6.4      2.798      4.277
REMARK  Name = IPA3.pdbqt.pdb
REMARK  5 active torsions:
REMARK  status: ('A' for Active; 'I' for Inactive)
REMARK    1  A    between atoms: S_1  and  S_2
REMARK    2  A    between atoms: S_1  and  C_15
REMARK    3  A    between atoms: S_2  and  C_3
REMARK    4  A    between atoms: C_10  and  O_13
REMARK    5  A    between atoms: C_22  and  O_25
REMARK                            x       y       z     vdW  Elec       q    Type
REMARK                         _______ _______ _______ _____ _____    ______ ____
ROOT
ATOM      1  S   UNL     1     143.171 126.121  98.233  0.00  0.00    +0.000 S 
ENDROOT
BRANCH   1   2
ATOM      2  C   UNL     1     144.873 125.775  97.765  0.00  0.00    +0.000 A 
ATOM      3  C   UNL     1     145.926 126.645  98.138  0.00  0.00    +0.000 A 
ATOM      4  C   UNL     1     147.251 126.314  97.770  0.00  0.00    +0.000 A 
ATOM      5  C   UNL     1     145.733 127.828  98.873  0.00  0.00    +0.000 A 
ATOM      6  C   UNL     1     147.514 125.159  97.037  0.00  0.00    +0.000 A 
ATOM      7  C   UNL     1     148.316 127.135  98.140  0.00  0.00    +0.000 A 
ATOM      8  C   UNL     1     146.477 124.315  96.659  0.00  0.00    +0.000 A 
ATOM      9  C   UNL     1     145.170 124.621  97.022  0.00  0.00    +0.000 A 
ATOM     10  C   UNL     1     148.093 128.295  98.875  0.00  0.00    +0.000 A 
ATOM     11  C   UNL     1     146.800 128.644  99.242  0.00  0.00    +0.000 A 
BRANCH   9  12
ATOM     12  O   UNL     1     144.203 123.738  96.622  0.00  0.00    +0.000 OA
ATOM     13  H   UNL     1     143.500 124.247  96.179  0.00  0.00    +0.000 HD
ENDBRANCH   9  12
ENDBRANCH   1   2
BRANCH   1  14
ATOM     14  S   UNL     1     142.952 124.942  99.909  0.00  0.00    +0.000 S 
BRANCH  14  15
ATOM     15  C   UNL     1     143.554 126.034 101.204  0.00  0.00    +0.000 A 
ATOM     16  C   UNL     1     144.901 125.983 101.637  0.00  0.00    +0.000 A 
ATOM     17  C   UNL     1     145.333 126.882 102.640  0.00  0.00    +0.000 A 
ATOM     18  C   UNL     1     145.852 125.088 101.115  0.00  0.00    +0.000 A 
ATOM     19  C   UNL     1     144.443 127.792 103.204  0.00  0.00    +0.000 A 
ATOM     20  C   UNL     1     146.658 126.877 103.075  0.00  0.00    +0.000 A 
ATOM     21  C   UNL     1     143.117 127.831 102.789  0.00  0.00    +0.000 A 
ATOM     22  C   UNL     1     142.680 126.960 101.797  0.00  0.00    +0.000 A 
ATOM     23  C   UNL     1     147.578 125.984 102.531  0.00  0.00    +0.000 A 
ATOM     24  C   UNL     1     147.174 125.086 101.550  0.00  0.00    +0.000 A 
BRANCH  22  25
ATOM     25  O   UNL     1     141.363 127.063 101.434  0.00  0.00    +0.000 OA
ATOM     26  H   UNL     1     140.997 127.854 101.870  0.00  0.00    +0.000 HD
ENDBRANCH  22  25
ENDBRANCH  14  15
ENDBRANCH   1  14
TORSDOF 5
ENDMDL
