MODEL 1
REMARK VINA RESULT:      -7.7      0.000      0.000
REMARK  Name = 
REMARK  8 active torsions:
REMARK  status: ('A' for Active; 'I' for Inactive)
REMARK    1  A    between atoms: O_1  and  C_21
REMARK    2  A    between atoms: O_1  and  C_38
REMARK    3  A    between atoms: O_4  and  C_26
REMARK    4  A    between atoms: N_7  and  C_11
REMARK    5  A    between atoms: C_26  and  C_33
REMARK    6  A    between atoms: C_29  and  C_37
REMARK    7  A    between atoms: C_33  and  C_42
REMARK    8  A    between atoms: C_37  and  C_43
REMARK                            x       y       z     vdW  Elec       q    Type
REMARK                         _______ _______ _______ _____ _____    ______ ____
ROOT
ATOM      1  O   UNL     1     144.376 130.185  98.261  0.00  0.00    +0.000 OA
ATOM      2  O   UNL     1     147.309 128.197  95.981  0.00  0.00    +0.000 OA
ATOM      3  O   UNL     1     142.150 130.221  98.560  0.00  0.00    +0.000 OA
ATOM      4  N   UNL     1     146.031 126.297  95.840  0.00  0.00    +0.000 N 
ATOM      5  N   UNL     1     144.075 123.296  95.645  0.00  0.00    +0.000 NA
ATOM      6  C   UNL     1     144.908 125.577  96.193  0.00  0.00    +0.000 A 
ATOM      7  C   UNL     1     146.148 124.233  94.790  0.00  0.00    +0.000 A 
ATOM      8  C   UNL     1     146.894 125.527  94.940  0.00  0.00    +0.000 C 
ATOM      9  C   UNL     1     144.170 127.440  97.530  0.00  0.00    +0.000 A 
ATOM     10  C   UNL     1     143.163 128.025  98.489  0.00  0.00    +0.000 C 
ATOM     11  C   UNL     1     144.976 124.276  95.537  0.00  0.00    +0.000 A 
ATOM     12  C   UNL     1     145.264 128.149  97.190  0.00  0.00    +0.000 A 
ATOM     13  C   UNL     1     146.449 123.087  94.068  0.00  0.00    +0.000 A 
ATOM     14  C   UNL     1     143.983 126.091  97.009  0.00  0.00    +0.000 A 
ATOM     15  C   UNL     1     146.302 127.566  96.281  0.00  0.00    +0.000 A 
ATOM     16  C   UNL     1     145.528 122.005  94.160  0.00  0.00    +0.000 A 
ATOM     17  C   UNL     1     145.527 129.524  97.695  0.00  0.00    +0.000 C 
ATOM     18  C   UNL     1     144.354 122.173  94.965  0.00  0.00    +0.000 A 
ATOM     19  C   UNL     1     143.185 129.568  98.415  0.00  0.00    +0.000 C 
ATOM     20  C   UNL     1     144.778 119.745  93.641  0.00  0.00    +0.000 A 
ATOM     21  C   UNL     1     145.711 120.770  93.500  0.00  0.00    +0.000 A 
ATOM     22  C   UNL     1     143.440 121.131  95.059  0.00  0.00    +0.000 A 
ATOM     23  C   UNL     1     143.632 119.917  94.399  0.00  0.00    +0.000 A 
ENDROOT
BRANCH  10  24
ATOM     24  O   UNL     1     141.854 127.573  98.114  0.00  0.00    +0.000 OA
ATOM     25  H   UNL     1     141.291 127.680  98.907  0.00  0.00    +0.000 HD
ENDBRANCH  10  24
BRANCH  10  26
ATOM     26  C   UNL     1     143.458 127.562  99.932  0.00  0.00    +0.000 C 
ATOM     27  C   UNL     1     142.261 126.958 100.660  0.00  0.00    +0.000 C 
ENDBRANCH  10  26
BRANCH  13  28
ATOM     28  C   UNL     1     147.725 123.022  93.263  0.00  0.00    +0.000 C 
ATOM     29  C   UNL     1     148.963 123.027  94.147  0.00  0.00    +0.000 C 
ENDBRANCH  13  28
BRANCH  20  30
ATOM     30  O   UNL     1     144.966 118.553  92.941  0.00  0.00    +0.000 OA
BRANCH  30  38
ATOM     31  O   UNL     1     143.405 118.996  91.287  0.00  0.00    +0.000 OA
ATOM     32  N   UNL     1     143.474 116.918  92.277  0.00  0.00    +0.000 N 
ATOM     33  C   UNL     1     141.890 114.661  93.256  0.00  0.00    +0.000 C 
ATOM     34  C   UNL     1     143.039 115.302  94.074  0.00  0.00    +0.000 C 
ATOM     35  C   UNL     1     141.326 115.731  92.288  0.00  0.00    +0.000 C 
ATOM     36  C   UNL     1     144.089 115.969  93.190  0.00  0.00    +0.000 C 
ATOM     37  C   UNL     1     142.414 116.385  91.443  0.00  0.00    +0.000 C 
ATOM     38  C   UNL     1     143.909 118.223  92.098  0.00  0.00    +0.000 C 
BRANCH  33  39
ATOM     39  N   UNL     1     140.823 114.090  94.138  0.00  0.00    +0.000 NA
ATOM     40  C   UNL     1     140.732 114.802  95.431  0.00  0.00    +0.000 C 
ATOM     41  C   UNL     1     139.501 114.076  93.478  0.00  0.00    +0.000 C 
ATOM     42  C   UNL     1     139.666 114.213  96.359  0.00  0.00    +0.000 C 
ATOM     43  C   UNL     1     138.404 113.470  94.357  0.00  0.00    +0.000 C 
ATOM     44  C   UNL     1     138.302 114.185  95.692  0.00  0.00    +0.000 C 
ENDBRANCH  33  39
ENDBRANCH  30  38
ENDBRANCH  20  30
TORSDOF 6
ENDMDL
MODEL 2
REMARK VINA RESULT:      -7.2     34.087     38.315
REMARK  Name = 
REMARK  8 active torsions:
REMARK  status: ('A' for Active; 'I' for Inactive)
REMARK    1  A    between atoms: O_1  and  C_21
REMARK    2  A    between atoms: O_1  and  C_38
REMARK    3  A    between atoms: O_4  and  C_26
REMARK    4  A    between atoms: N_7  and  C_11
REMARK    5  A    between atoms: C_26  and  C_33
REMARK    6  A    between atoms: C_29  and  C_37
REMARK    7  A    between atoms: C_33  and  C_42
REMARK    8  A    between atoms: C_37  and  C_43
REMARK                            x       y       z     vdW  Elec       q    Type
REMARK                         _______ _______ _______ _____ _____    ______ ____
ROOT
ATOM      1  O   UNL     1     140.490 123.953 135.166  0.00  0.00    +0.000 OA
ATOM      2  O   UNL     1     137.587 121.732 137.261  0.00  0.00    +0.000 OA
ATOM      3  O   UNL     1     141.421 124.092 133.125  0.00  0.00    +0.000 OA
ATOM      4  N   UNL     1     136.387 121.337 135.345  0.00  0.00    +0.000 N 
ATOM      5  N   UNL     1     134.464 120.745 132.375  0.00  0.00    +0.000 NA
ATOM      6  C   UNL     1     136.174 121.544 133.997  0.00  0.00    +0.000 A 
ATOM      7  C   UNL     1     134.510 120.126 134.724  0.00  0.00    +0.000 A 
ATOM      8  C   UNL     1     135.375 120.439 135.911  0.00  0.00    +0.000 C 
ATOM      9  C   UNL     1     138.110 122.978 133.943  0.00  0.00    +0.000 A 
ATOM     10  C   UNL     1     139.009 123.907 133.167  0.00  0.00    +0.000 C 
ATOM     11  C   UNL     1     134.992 120.787 133.601  0.00  0.00    +0.000 A 
ATOM     12  C   UNL     1     138.323 122.780 135.259  0.00  0.00    +0.000 A 
ATOM     13  C   UNL     1     133.377 119.333 134.609  0.00  0.00    +0.000 A 
ATOM     14  C   UNL     1     136.982 122.332 133.281  0.00  0.00    +0.000 A 
ATOM     15  C   UNL     1     137.410 121.902 136.059  0.00  0.00    +0.000 A 
ATOM     16  C   UNL     1     132.764 119.266 133.325  0.00  0.00    +0.000 A 
ATOM     17  C   UNL     1     139.444 123.418 136.003  0.00  0.00    +0.000 C 
ATOM     18  C   UNL     1     133.360 119.994 132.244  0.00  0.00    +0.000 A 
ATOM     19  C   UNL     1     140.410 123.967 133.818  0.00  0.00    +0.000 C 
ATOM     20  C   UNL     1     131.038 118.503 131.783  0.00  0.00    +0.000 A 
ATOM     21  C   UNL     1     131.596 118.518 133.060  0.00  0.00    +0.000 A 
ATOM     22  C   UNL     1     132.781 119.932 130.983  0.00  0.00    +0.000 A 
ATOM     23  C   UNL     1     131.628 119.187 130.734  0.00  0.00    +0.000 A 
ENDROOT
BRANCH  10  24
ATOM     24  O   UNL     1     139.152 123.401 131.832  0.00  0.00    +0.000 OA
ATOM     25  H   UNL     1     138.327 122.915 131.635  0.00  0.00    +0.000 HD
ENDBRANCH  10  24
BRANCH  10  26
ATOM     26  C   UNL     1     138.397 125.323 133.103  0.00  0.00    +0.000 C 
ATOM     27  C   UNL     1     138.930 126.192 131.967  0.00  0.00    +0.000 C 
ENDBRANCH  10  26
BRANCH  13  28
ATOM     28  C   UNL     1     132.834 118.620 135.824  0.00  0.00    +0.000 C 
ATOM     29  C   UNL     1     133.427 117.229 135.987  0.00  0.00    +0.000 C 
ENDBRANCH  13  28
BRANCH  20  30
ATOM     30  O   UNL     1     129.909 117.719 131.544  0.00  0.00    +0.000 OA
BRANCH  30  38
ATOM     31  O   UNL     1     130.741 115.832 130.489  0.00  0.00    +0.000 OA
ATOM     32  N   UNL     1     129.319 117.248 129.360  0.00  0.00    +0.000 N 
ATOM     33  C   UNL     1     128.699 118.493 126.785  0.00  0.00    +0.000 C 
ATOM     34  C   UNL     1     128.745 119.286 128.115  0.00  0.00    +0.000 C 
ATOM     35  C   UNL     1     129.621 117.255 126.924  0.00  0.00    +0.000 C 
ATOM     36  C   UNL     1     128.449 118.412 129.331  0.00  0.00    +0.000 C 
ATOM     37  C   UNL     1     129.303 116.427 128.165  0.00  0.00    +0.000 C 
ATOM     38  C   UNL     1     130.048 116.845 130.469  0.00  0.00    +0.000 C 
BRANCH  33  39
ATOM     39  N   UNL     1     129.079 119.341 125.611  0.00  0.00    +0.000 NA
ATOM     40  C   UNL     1     127.894 119.867 124.900  0.00  0.00    +0.000 C 
ATOM     41  C   UNL     1     129.972 120.454 125.992  0.00  0.00    +0.000 C 
ATOM     42  C   UNL     1     128.262 120.712 123.678  0.00  0.00    +0.000 C 
ATOM     43  C   UNL     1     130.391 121.315 124.798  0.00  0.00    +0.000 C 
ATOM     44  C   UNL     1     129.186 121.858 124.051  0.00  0.00    +0.000 C 
ENDBRANCH  33  39
ENDBRANCH  30  38
ENDBRANCH  20  30
TORSDOF 6
ENDMDL
MODEL 3
REMARK VINA RESULT:      -7.1     17.639     22.206
REMARK  Name = 
REMARK  8 active torsions:
REMARK  status: ('A' for Active; 'I' for Inactive)
REMARK    1  A    between atoms: O_1  and  C_21
REMARK    2  A    between atoms: O_1  and  C_38
REMARK    3  A    between atoms: O_4  and  C_26
REMARK    4  A    between atoms: N_7  and  C_11
REMARK    5  A    between atoms: C_26  and  C_33
REMARK    6  A    between atoms: C_29  and  C_37
REMARK    7  A    between atoms: C_33  and  C_42
REMARK    8  A    between atoms: C_37  and  C_43
REMARK                            x       y       z     vdW  Elec       q    Type
REMARK                         _______ _______ _______ _____ _____    ______ ____
ROOT
ATOM      1  O   UNL     1     157.833 121.303 103.774  0.00  0.00    +0.000 OA
ATOM      2  O   UNL     1     158.563 121.046 107.916  0.00  0.00    +0.000 OA
ATOM      3  O   UNL     1     156.270 122.036 102.336  0.00  0.00    +0.000 OA
ATOM      4  N   UNL     1     157.299 122.915 108.339  0.00  0.00    +0.000 N 
ATOM      5  N   UNL     1     155.370 125.860 109.024  0.00  0.00    +0.000 NA
ATOM      6  C   UNL     1     156.567 123.995 107.891  0.00  0.00    +0.000 A 
ATOM      7  C   UNL     1     156.561 124.094 110.193  0.00  0.00    +0.000 A 
ATOM      8  C   UNL     1     157.357 122.882 109.803  0.00  0.00    +0.000 C 
ATOM      9  C   UNL     1     156.974 123.292 105.622  0.00  0.00    +0.000 A 
ATOM     10  C   UNL     1     156.822 123.547 104.143  0.00  0.00    +0.000 C 
ATOM     11  C   UNL     1     156.101 124.743 109.053  0.00  0.00    +0.000 A 
ATOM     12  C   UNL     1     157.690 122.235 106.053  0.00  0.00    +0.000 A 
ATOM     13  C   UNL     1     156.252 124.616 111.441  0.00  0.00    +0.000 A 
ATOM     14  C   UNL     1     156.386 124.217 106.585  0.00  0.00    +0.000 A 
ATOM     15  C   UNL     1     157.897 121.996 107.517  0.00  0.00    +0.000 A 
ATOM     16  C   UNL     1     155.486 125.817 111.466  0.00  0.00    +0.000 A 
ATOM     17  C   UNL     1     158.331 121.261 105.128  0.00  0.00    +0.000 C 
ATOM     18  C   UNL     1     155.071 126.389 110.220  0.00  0.00    +0.000 A 
ATOM     19  C   UNL     1     156.935 122.221 103.357  0.00  0.00    +0.000 C 
ATOM     20  C   UNL     1     154.373 127.655 112.616  0.00  0.00    +0.000 A 
ATOM     21  C   UNL     1     155.113 126.476 112.659  0.00  0.00    +0.000 A 
ATOM     22  C   UNL     1     154.315 127.555 110.227  0.00  0.00    +0.000 A 
ATOM     23  C   UNL     1     153.952 128.195 111.412  0.00  0.00    +0.000 A 
ENDROOT
BRANCH  10  24
ATOM     24  O   UNL     1     155.523 124.106 103.903  0.00  0.00    +0.000 OA
ATOM     25  H   UNL     1     154.984 123.892 104.691  0.00  0.00    +0.000 HD
ENDBRANCH  10  24
BRANCH  10  26
ATOM     26  C   UNL     1     157.895 124.543 103.653  0.00  0.00    +0.000 C 
ATOM     27  C   UNL     1     157.519 125.305 102.386  0.00  0.00    +0.000 C 
ENDBRANCH  10  26
BRANCH  13  28
ATOM     28  C   UNL     1     156.756 123.929 112.687  0.00  0.00    +0.000 C 
ATOM     29  C   UNL     1     155.820 122.824 113.152  0.00  0.00    +0.000 C 
ENDBRANCH  13  28
BRANCH  20  30
ATOM     30  O   UNL     1     153.984 128.258 113.813  0.00  0.00    +0.000 OA
BRANCH  30  38
ATOM     31  O   UNL     1     155.929 129.067 114.776  0.00  0.00    +0.000 OA
ATOM     32  N   UNL     1     154.803 127.314 115.756  0.00  0.00    +0.000 N 
ATOM     33  C   UNL     1     155.070 124.778 117.191  0.00  0.00    +0.000 C 
ATOM     34  C   UNL     1     154.120 124.966 115.982  0.00  0.00    +0.000 C 
ATOM     35  C   UNL     1     156.226 125.803 117.067  0.00  0.00    +0.000 C 
ATOM     36  C   UNL     1     153.665 126.412 115.812  0.00  0.00    +0.000 C 
ATOM     37  C   UNL     1     155.722 127.230 116.875  0.00  0.00    +0.000 C 
ATOM     38  C   UNL     1     154.984 128.283 114.781  0.00  0.00    +0.000 C 
BRANCH  33  39
ATOM     39  N   UNL     1     155.581 123.374 117.293  0.00  0.00    +0.000 NA
ATOM     40  C   UNL     1     154.626 122.394 116.732  0.00  0.00    +0.000 C 
ATOM     41  C   UNL     1     156.902 123.212 116.651  0.00  0.00    +0.000 C 
ATOM     42  C   UNL     1     155.117 120.950 116.853  0.00  0.00    +0.000 C 
ATOM     43  C   UNL     1     157.450 121.788 116.769  0.00  0.00    +0.000 C 
ATOM     44  C   UNL     1     156.478 120.768 116.204  0.00  0.00    +0.000 C 
ENDBRANCH  33  39
ENDBRANCH  30  38
ENDBRANCH  20  30
TORSDOF 6
ENDMDL
MODEL 4
REMARK VINA RESULT:      -7.1     44.577     50.237
REMARK  Name = 
REMARK  8 active torsions:
REMARK  status: ('A' for Active; 'I' for Inactive)
REMARK    1  A    between atoms: O_1  and  C_21
REMARK    2  A    between atoms: O_1  and  C_38
REMARK    3  A    between atoms: O_4  and  C_26
REMARK    4  A    between atoms: N_7  and  C_11
REMARK    5  A    between atoms: C_26  and  C_33
REMARK    6  A    between atoms: C_29  and  C_37
REMARK    7  A    between atoms: C_33  and  C_42
REMARK    8  A    between atoms: C_37  and  C_43
REMARK                            x       y       z     vdW  Elec       q    Type
REMARK                         _______ _______ _______ _____ _____    ______ ____
ROOT
ATOM      1  O   UNL     1     134.186 120.228 135.304  0.00  0.00    +0.000 OA
ATOM      2  O   UNL     1     133.265 119.412 139.334  0.00  0.00    +0.000 OA
ATOM      3  O   UNL     1     134.483 121.970 133.917  0.00  0.00    +0.000 OA
ATOM      4  N   UNL     1     134.214 121.380 140.036  0.00  0.00    +0.000 N 
ATOM      5  N   UNL     1     135.735 124.426 141.167  0.00  0.00    +0.000 NA
ATOM      6  C   UNL     1     134.934 122.528 139.771  0.00  0.00    +0.000 A 
ATOM      7  C   UNL     1     134.448 122.551 142.023  0.00  0.00    +0.000 A 
ATOM      8  C   UNL     1     133.851 121.297 141.453  0.00  0.00    +0.000 C 
ATOM      9  C   UNL     1     135.067 121.873 137.455  0.00  0.00    +0.000 A 
ATOM     10  C   UNL     1     135.585 122.140 136.064  0.00  0.00    +0.000 C 
ATOM     11  C   UNL     1     135.087 123.268 141.018  0.00  0.00    +0.000 A 
ATOM     12  C   UNL     1     134.365 120.750 137.708  0.00  0.00    +0.000 A 
ATOM     13  C   UNL     1     134.455 123.048 143.319  0.00  0.00    +0.000 A 
ATOM     14  C   UNL     1     135.367 122.804 138.537  0.00  0.00    +0.000 A 
ATOM     15  C   UNL     1     133.888 120.441 139.093  0.00  0.00    +0.000 A 
ATOM     16  C   UNL     1     135.146 124.274 143.536  0.00  0.00    +0.000 A 
ATOM     17  C   UNL     1     134.036 119.749 136.657  0.00  0.00    +0.000 C 
ATOM     18  C   UNL     1     135.764 124.918 142.415  0.00  0.00    +0.000 A 
ATOM     19  C   UNL     1     134.685 121.449 135.015  0.00  0.00    +0.000 C 
ATOM     20  C   UNL     1     135.958 126.085 144.950  0.00  0.00    +0.000 A 
ATOM     21  C   UNL     1     135.256 124.891 144.802  0.00  0.00    +0.000 A 
ATOM     22  C   UNL     1     136.435 126.119 142.607  0.00  0.00    +0.000 A 
ATOM     23  C   UNL     1     136.534 126.719 143.863  0.00  0.00    +0.000 A 
ENDROOT
BRANCH  10  24
ATOM     24  O   UNL     1     135.553 123.554 135.825  0.00  0.00    +0.000 OA
ATOM     25  H   UNL     1     134.913 123.925 136.466  0.00  0.00    +0.000 HD
ENDBRANCH  10  24
BRANCH  10  26
ATOM     26  C   UNL     1     137.038 121.641 135.923  0.00  0.00    +0.000 C 
ATOM     27  C   UNL     1     138.082 122.750 135.829  0.00  0.00    +0.000 C 
ENDBRANCH  10  26
BRANCH  13  28
ATOM     28  C   UNL     1     133.777 122.273 144.423  0.00  0.00    +0.000 C 
ATOM     29  C   UNL     1     134.703 121.243 145.053  0.00  0.00    +0.000 C 
ENDBRANCH  13  28
BRANCH  20  30
ATOM     30  O   UNL     1     136.010 126.691 146.206  0.00  0.00    +0.000 OA
BRANCH  30  38
ATOM     31  O   UNL     1     137.439 125.100 147.097  0.00  0.00    +0.000 OA
ATOM     32  N   UNL     1     137.704 127.321 147.647  0.00  0.00    +0.000 N 
ATOM     33  C   UNL     1     138.383 129.214 149.772  0.00  0.00    +0.000 C 
ATOM     34  C   UNL     1     137.150 129.389 148.849  0.00  0.00    +0.000 C 
ATOM     35  C   UNL     1     138.727 127.704 149.845  0.00  0.00    +0.000 C 
ATOM     36  C   UNL     1     137.334 128.717 147.491  0.00  0.00    +0.000 C 
ATOM     37  C   UNL     1     138.876 127.073 148.465  0.00  0.00    +0.000 C 
ATOM     38  C   UNL     1     137.082 126.270 146.989  0.00  0.00    +0.000 C 
BRANCH  33  39
ATOM     39  N   UNL     1     138.155 129.799 151.131  0.00  0.00    +0.000 NA
ATOM     40  C   UNL     1     136.727 129.777 151.512  0.00  0.00    +0.000 C 
ATOM     41  C   UNL     1     138.962 129.127 152.171  0.00  0.00    +0.000 C 
ATOM     42  C   UNL     1     136.469 130.400 152.887  0.00  0.00    +0.000 C 
ATOM     43  C   UNL     1     138.761 129.732 153.563  0.00  0.00    +0.000 C 
ATOM     44  C   UNL     1     137.297 129.725 153.967  0.00  0.00    +0.000 C 
ENDBRANCH  33  39
ENDBRANCH  30  38
ENDBRANCH  20  30
TORSDOF 6
ENDMDL
MODEL 5
REMARK VINA RESULT:      -7.1      3.952      7.023
REMARK  Name = 
REMARK  8 active torsions:
REMARK  status: ('A' for Active; 'I' for Inactive)
REMARK    1  A    between atoms: O_1  and  C_21
REMARK    2  A    between atoms: O_1  and  C_38
REMARK    3  A    between atoms: O_4  and  C_26
REMARK    4  A    between atoms: N_7  and  C_11
REMARK    5  A    between atoms: C_26  and  C_33
REMARK    6  A    between atoms: C_29  and  C_37
REMARK    7  A    between atoms: C_33  and  C_42
REMARK    8  A    between atoms: C_37  and  C_43
REMARK                            x       y       z     vdW  Elec       q    Type
REMARK                         _______ _______ _______ _____ _____    ______ ____
ROOT
ATOM      1  O   UNL     1     143.657 130.409  98.416  0.00  0.00    +0.000 OA
ATOM      2  O   UNL     1     147.116 128.921  96.525  0.00  0.00    +0.000 OA
ATOM      3  O   UNL     1     141.423 130.175  98.366  0.00  0.00    +0.000 OA
ATOM      4  N   UNL     1     146.112 126.904  96.090  0.00  0.00    +0.000 N 
ATOM      5  N   UNL     1     144.584 123.724  95.440  0.00  0.00    +0.000 NA
ATOM      6  C   UNL     1     145.043 126.041  96.226  0.00  0.00    +0.000 A 
ATOM      7  C   UNL     1     146.632 124.943  94.968  0.00  0.00    +0.000 A 
ATOM      8  C   UNL     1     147.186 126.299  95.298  0.00  0.00    +0.000 C 
ATOM      9  C   UNL     1     143.895 127.714  97.524  0.00  0.00    +0.000 A 
ATOM     10  C   UNL     1     142.693 128.116  98.342  0.00  0.00    +0.000 C 
ATOM     11  C   UNL     1     145.366 124.803  95.524  0.00  0.00    +0.000 A 
ATOM     12  C   UNL     1     144.934 128.562  97.395  0.00  0.00    +0.000 A 
ATOM     13  C   UNL     1     147.174 123.890  94.245  0.00  0.00    +0.000 A 
ATOM     14  C   UNL     1     143.952 126.391  96.913  0.00  0.00    +0.000 A 
ATOM     15  C   UNL     1     146.158 128.162  96.631  0.00  0.00    +0.000 A 
ATOM     16  C   UNL     1     146.386 122.708  94.137  0.00  0.00    +0.000 A 
ATOM     17  C   UNL     1     144.951 129.920  98.004  0.00  0.00    +0.000 C 
ATOM     18  C   UNL     1     145.094 122.689  94.756  0.00  0.00    +0.000 A 
ATOM     19  C   UNL     1     142.540 129.654  98.351  0.00  0.00    +0.000 C 
ATOM     20  C   UNL     1     146.001 120.420  93.393  0.00  0.00    +0.000 A 
ATOM     21  C   UNL     1     146.814 121.550  93.452  0.00  0.00    +0.000 A 
ATOM     22  C   UNL     1     144.309 121.548  94.653  0.00  0.00    +0.000 A 
ATOM     23  C   UNL     1     144.742 120.410  93.971  0.00  0.00    +0.000 A 
ENDROOT
BRANCH  10  24
ATOM     24  O   UNL     1     141.519 127.548  97.745  0.00  0.00    +0.000 OA
ATOM     25  H   UNL     1     141.834 126.875  97.109  0.00  0.00    +0.000 HD
ENDBRANCH  10  24
BRANCH  10  26
ATOM     26  C   UNL     1     142.824 127.591  99.788  0.00  0.00    +0.000 C 
ATOM     27  C   UNL     1     141.875 126.447 100.134  0.00  0.00    +0.000 C 
ENDBRANCH  10  26
BRANCH  13  28
ATOM     28  C   UNL     1     148.554 124.024  93.647  0.00  0.00    +0.000 C 
ATOM     29  C   UNL     1     149.606 123.286  94.461  0.00  0.00    +0.000 C 
ENDBRANCH  13  28
BRANCH  20  30
ATOM     30  O   UNL     1     146.434 119.307  92.672  0.00  0.00    +0.000 OA
BRANCH  30  38
ATOM     31  O   UNL     1     147.437 117.917  94.230  0.00  0.00    +0.000 OA
ATOM     32  N   UNL     1     148.710 118.918  92.593  0.00  0.00    +0.000 N 
ATOM     33  C   UNL     1     151.277 120.177  91.968  0.00  0.00    +0.000 C 
ATOM     34  C   UNL     1     149.915 120.789  91.555  0.00  0.00    +0.000 C 
ATOM     35  C   UNL     1     151.053 119.293  93.221  0.00  0.00    +0.000 C 
ATOM     36  C   UNL     1     148.821 119.737  91.398  0.00  0.00    +0.000 C 
ATOM     37  C   UNL     1     149.936 118.274  93.025  0.00  0.00    +0.000 C 
ATOM     38  C   UNL     1     147.517 118.650  93.248  0.00  0.00    +0.000 C 
BRANCH  33  39
ATOM     39  N   UNL     1     152.317 121.227  92.206  0.00  0.00    +0.000 NA
ATOM     40  C   UNL     1     153.191 120.893  93.351  0.00  0.00    +0.000 C 
ATOM     41  C   UNL     1     153.138 121.484  91.004  0.00  0.00    +0.000 C 
ATOM     42  C   UNL     1     154.242 121.970  93.630  0.00  0.00    +0.000 C 
ATOM     43  C   UNL     1     154.189 122.575  91.224  0.00  0.00    +0.000 C 
ATOM     44  C   UNL     1     155.091 122.251  92.402  0.00  0.00    +0.000 C 
ENDBRANCH  33  39
ENDBRANCH  30  38
ENDBRANCH  20  30
TORSDOF 6
ENDMDL
MODEL 6
REMARK VINA RESULT:      -7.1     17.733     20.760
REMARK  Name = 
REMARK  8 active torsions:
REMARK  status: ('A' for Active; 'I' for Inactive)
REMARK    1  A    between atoms: O_1  and  C_21
REMARK    2  A    between atoms: O_1  and  C_38
REMARK    3  A    between atoms: O_4  and  C_26
REMARK    4  A    between atoms: N_7  and  C_11
REMARK    5  A    between atoms: C_26  and  C_33
REMARK    6  A    between atoms: C_29  and  C_37
REMARK    7  A    between atoms: C_33  and  C_42
REMARK    8  A    between atoms: C_37  and  C_43
REMARK                            x       y       z     vdW  Elec       q    Type
REMARK                         _______ _______ _______ _____ _____    ______ ____
ROOT
ATOM      1  O   UNL     1     130.984 118.596 116.764  0.00  0.00    +0.000 OA
ATOM      2  O   UNL     1     133.721 115.530 117.692  0.00  0.00    +0.000 OA
ATOM      3  O   UNL     1     130.937 120.664 115.886  0.00  0.00    +0.000 OA
ATOM      4  N   UNL     1     135.137 116.168 116.003  0.00  0.00    +0.000 N 
ATOM      5  N   UNL     1     137.346 117.114 113.340  0.00  0.00    +0.000 NA
ATOM      6  C   UNL     1     135.418 116.957 114.906  0.00  0.00    +0.000 A 
ATOM      7  C   UNL     1     137.230 115.565 115.209  0.00  0.00    +0.000 A 
ATOM      8  C   UNL     1     136.235 115.240 116.286  0.00  0.00    +0.000 C 
ATOM      9  C   UNL     1     133.286 118.045 115.180  0.00  0.00    +0.000 A 
ATOM     10  C   UNL     1     132.271 119.044 114.682  0.00  0.00    +0.000 C 
ATOM     11  C   UNL     1     136.734 116.581 114.400  0.00  0.00    +0.000 A 
ATOM     12  C   UNL     1     133.005 117.278 116.252  0.00  0.00    +0.000 A 
ATOM     13  C   UNL     1     138.478 115.026 114.930  0.00  0.00    +0.000 A 
ATOM     14  C   UNL     1     134.550 117.876 114.473  0.00  0.00    +0.000 A 
ATOM     15  C   UNL     1     133.977 116.244 116.729  0.00  0.00    +0.000 A 
ATOM     16  C   UNL     1     139.168 115.549 113.799  0.00  0.00    +0.000 A 
ATOM     17  C   UNL     1     131.729 117.385 117.011  0.00  0.00    +0.000 C 
ATOM     18  C   UNL     1     138.549 116.598 113.045  0.00  0.00    +0.000 A 
ATOM     19  C   UNL     1     131.361 119.508 115.842  0.00  0.00    +0.000 C 
ATOM     20  C   UNL     1     141.053 115.630 112.257  0.00  0.00    +0.000 A 
ATOM     21  C   UNL     1     140.435 115.086 113.381  0.00  0.00    +0.000 A 
ATOM     22  C   UNL     1     139.213 117.125 111.944  0.00  0.00    +0.000 A 
ATOM     23  C   UNL     1     140.465 116.660 111.542  0.00  0.00    +0.000 A 
ENDROOT
BRANCH  10  24
ATOM     24  O   UNL     1     132.966 120.189 114.167  0.00  0.00    +0.000 OA
ATOM     25  H   UNL     1     133.561 120.491 114.882  0.00  0.00    +0.000 HD
ENDBRANCH  10  24
BRANCH  10  26
ATOM     26  C   UNL     1     131.415 118.429 113.555  0.00  0.00    +0.000 C 
ATOM     27  C   UNL     1     131.704 118.986 112.164  0.00  0.00    +0.000 C 
ENDBRANCH  10  26
BRANCH  13  28
ATOM     28  C   UNL     1     139.023 113.914 115.792  0.00  0.00    +0.000 C 
ATOM     29  C   UNL     1     139.249 114.359 117.229  0.00  0.00    +0.000 C 
ENDBRANCH  13  28
BRANCH  20  30
ATOM     30  O   UNL     1     142.324 115.181 111.895  0.00  0.00    +0.000 OA
BRANCH  30  38
ATOM     31  O   UNL     1     142.001 112.918 111.519  0.00  0.00    +0.000 OA
ATOM     32  N   UNL     1     142.697 114.282 109.799  0.00  0.00    +0.000 N 
ATOM     33  C   UNL     1     144.405 114.496 107.433  0.00  0.00    +0.000 C 
ATOM     34  C   UNL     1     144.347 115.587 108.532  0.00  0.00    +0.000 C 
ATOM     35  C   UNL     1     144.014 113.139 108.071  0.00  0.00    +0.000 C 
ATOM     36  C   UNL     1     143.015 115.600 109.277  0.00  0.00    +0.000 C 
ATOM     37  C   UNL     1     142.689 113.209 108.824  0.00  0.00    +0.000 C 
ATOM     38  C   UNL     1     142.311 114.033 111.108  0.00  0.00    +0.000 C 
BRANCH  33  39
ATOM     39  N   UNL     1     145.748 114.434 106.773  0.00  0.00    +0.000 NA
ATOM     40  C   UNL     1     145.644 114.492 105.299  0.00  0.00    +0.000 C 
ATOM     41  C   UNL     1     146.657 115.495 107.255  0.00  0.00    +0.000 C 
ATOM     42  C   UNL     1     147.005 114.399 104.604  0.00  0.00    +0.000 C 
ATOM     43  C   UNL     1     148.043 115.429 106.608  0.00  0.00    +0.000 C 
ATOM     44  C   UNL     1     147.954 115.479 105.093  0.00  0.00    +0.000 C 
ENDBRANCH  33  39
ENDBRANCH  30  38
ENDBRANCH  20  30
TORSDOF 6
ENDMDL
MODEL 7
REMARK VINA RESULT:      -7.0     18.551     21.601
REMARK  Name = 
REMARK  8 active torsions:
REMARK  status: ('A' for Active; 'I' for Inactive)
REMARK    1  A    between atoms: O_1  and  C_21
REMARK    2  A    between atoms: O_1  and  C_38
REMARK    3  A    between atoms: O_4  and  C_26
REMARK    4  A    between atoms: N_7  and  C_11
REMARK    5  A    between atoms: C_26  and  C_33
REMARK    6  A    between atoms: C_29  and  C_37
REMARK    7  A    between atoms: C_33  and  C_42
REMARK    8  A    between atoms: C_37  and  C_43
REMARK                            x       y       z     vdW  Elec       q    Type
REMARK                         _______ _______ _______ _____ _____    ______ ____
ROOT
ATOM      1  O   UNL     1     130.985 118.429 116.598  0.00  0.00    +0.000 OA
ATOM      2  O   UNL     1     133.621 115.267 117.496  0.00  0.00    +0.000 OA
ATOM      3  O   UNL     1     131.010 120.520 115.777  0.00  0.00    +0.000 OA
ATOM      4  N   UNL     1     135.088 115.914 115.853  0.00  0.00    +0.000 N 
ATOM      5  N   UNL     1     137.375 116.872 113.262  0.00  0.00    +0.000 NA
ATOM      6  C   UNL     1     135.412 116.724 114.784  0.00  0.00    +0.000 A 
ATOM      7  C   UNL     1     137.180 115.277 115.084  0.00  0.00    +0.000 A 
ATOM      8  C   UNL     1     136.156 114.949 116.132  0.00  0.00    +0.000 C 
ATOM      9  C   UNL     1     133.303 117.861 115.045  0.00  0.00    +0.000 A 
ATOM     10  C   UNL     1     132.325 118.899 114.555  0.00  0.00    +0.000 C 
ATOM     11  C   UNL     1     136.727 116.327 114.294  0.00  0.00    +0.000 A 
ATOM     12  C   UNL     1     132.980 117.073 116.090  0.00  0.00    +0.000 A 
ATOM     13  C   UNL     1     138.419 114.712 114.816  0.00  0.00    +0.000 A 
ATOM     14  C   UNL     1     134.577 117.677 114.359  0.00  0.00    +0.000 A 
ATOM     15  C   UNL     1     133.916 116.000 116.558  0.00  0.00    +0.000 A 
ATOM     16  C   UNL     1     139.146 115.247 113.714  0.00  0.00    +0.000 A 
ATOM     17  C   UNL     1     131.693 117.193 116.826  0.00  0.00    +0.000 C 
ATOM     18  C   UNL     1     138.570 116.332 112.976  0.00  0.00    +0.000 A 
ATOM     19  C   UNL     1     131.404 119.355 115.709  0.00  0.00    +0.000 C 
ATOM     20  C   UNL     1     141.064 115.320 112.212  0.00  0.00    +0.000 A 
ATOM     21  C   UNL     1     140.409 114.762 113.308  0.00  0.00    +0.000 A 
ATOM     22  C   UNL     1     139.270 116.871 111.904  0.00  0.00    +0.000 A 
ATOM     23  C   UNL     1     140.517 116.384 111.514  0.00  0.00    +0.000 A 
ENDROOT
BRANCH  10  24
ATOM     24  O   UNL     1     133.060 120.038 114.086  0.00  0.00    +0.000 OA
ATOM     25  H   UNL     1     132.797 120.167 113.153  0.00  0.00    +0.000 HD
ENDBRANCH  10  24
BRANCH  10  26
ATOM     26  C   UNL     1     131.477 118.337 113.394  0.00  0.00    +0.000 C 
ATOM     27  C   UNL     1     131.696 119.035 112.055  0.00  0.00    +0.000 C 
ENDBRANCH  10  26
BRANCH  13  28
ATOM     28  C   UNL     1     138.918 113.563 115.658  0.00  0.00    +0.000 C 
ATOM     29  C   UNL     1     138.432 112.218 115.138  0.00  0.00    +0.000 C 
ENDBRANCH  13  28
BRANCH  20  30
ATOM     30  O   UNL     1     142.330 114.847 111.863  0.00  0.00    +0.000 OA
BRANCH  30  38
ATOM     31  O   UNL     1     143.213 116.232 113.496  0.00  0.00    +0.000 OA
ATOM     32  N   UNL     1     144.567 114.708 112.425  0.00  0.00    +0.000 N 
ATOM     33  C   UNL     1     147.229 114.207 111.319  0.00  0.00    +0.000 C 
ATOM     34  C   UNL     1     145.922 113.876 110.554  0.00  0.00    +0.000 C 
ATOM     35  C   UNL     1     146.932 115.355 112.317  0.00  0.00    +0.000 C 
ATOM     36  C   UNL     1     144.746 113.611 111.489  0.00  0.00    +0.000 C 
ATOM     37  C   UNL     1     145.734 115.055 113.212  0.00  0.00    +0.000 C 
ATOM     38  C   UNL     1     143.355 115.338 112.667  0.00  0.00    +0.000 C 
BRANCH  33  39
ATOM     39  N   UNL     1     148.351 114.554 110.390  0.00  0.00    +0.000 NA
ATOM     40  C   UNL     1     149.490 113.621 110.524  0.00  0.00    +0.000 C 
ATOM     41  C   UNL     1     147.912 114.612 108.980  0.00  0.00    +0.000 C 
ATOM     42  C   UNL     1     150.661 113.977 109.605  0.00  0.00    +0.000 C 
ATOM     43  C   UNL     1     149.043 114.991 108.021  0.00  0.00    +0.000 C 
ATOM     44  C   UNL     1     150.225 114.047 108.151  0.00  0.00    +0.000 C 
ENDBRANCH  33  39
ENDBRANCH  30  38
ENDBRANCH  20  30
TORSDOF 6
ENDMDL
MODEL 8
REMARK VINA RESULT:      -6.8     41.336     45.651
REMARK  Name = 
REMARK  8 active torsions:
REMARK  status: ('A' for Active; 'I' for Inactive)
REMARK    1  A    between atoms: O_1  and  C_21
REMARK    2  A    between atoms: O_1  and  C_38
REMARK    3  A    between atoms: O_4  and  C_26
REMARK    4  A    between atoms: N_7  and  C_11
REMARK    5  A    between atoms: C_26  and  C_33
REMARK    6  A    between atoms: C_29  and  C_37
REMARK    7  A    between atoms: C_33  and  C_42
REMARK    8  A    between atoms: C_37  and  C_43
REMARK                            x       y       z     vdW  Elec       q    Type
REMARK                         _______ _______ _______ _____ _____    ______ ____
ROOT
ATOM      1  O   UNL     1     134.548 125.849 146.760  0.00  0.00    +0.000 OA
ATOM      2  O   UNL     1     131.948 124.125 143.929  0.00  0.00    +0.000 OA
ATOM      3  O   UNL     1     136.688 125.737 147.436  0.00  0.00    +0.000 OA
ATOM      4  N   UNL     1     133.669 123.734 142.462  0.00  0.00    +0.000 N 
ATOM      5  N   UNL     1     136.333 123.156 140.131  0.00  0.00    +0.000 NA
ATOM      6  C   UNL     1     134.995 123.869 142.105  0.00  0.00    +0.000 A 
ATOM      7  C   UNL     1     133.962 122.703 140.407  0.00  0.00    +0.000 A 
ATOM      8  C   UNL     1     132.916 123.000 141.442  0.00  0.00    +0.000 C 
ATOM      9  C   UNL     1     135.396 125.066 144.157  0.00  0.00    +0.000 A 
ATOM     10  C   UNL     1     136.348 125.831 145.043  0.00  0.00    +0.000 C 
ATOM     11  C   UNL     1     135.186 123.224 140.811  0.00  0.00    +0.000 A 
ATOM     12  C   UNL     1     134.102 124.939 144.512  0.00  0.00    +0.000 A 
ATOM     13  C   UNL     1     133.876 122.037 139.192  0.00  0.00    +0.000 A 
ATOM     14  C   UNL     1     135.865 124.507 142.894  0.00  0.00    +0.000 A 
ATOM     15  C   UNL     1     133.130 124.229 143.621  0.00  0.00    +0.000 A 
ATOM     16  C   UNL     1     135.070 121.949 138.420  0.00  0.00    +0.000 A 
ATOM     17  C   UNL     1     133.552 125.497 145.777  0.00  0.00    +0.000 C 
ATOM     18  C   UNL     1     136.270 122.527 138.947  0.00  0.00    +0.000 A 
ATOM     19  C   UNL     1     135.873 125.777 146.513  0.00  0.00    +0.000 C 
ATOM     20  C   UNL     1     136.329 121.280 136.444  0.00  0.00    +0.000 A 
ATOM     21  C   UNL     1     135.132 121.321 137.156  0.00  0.00    +0.000 A 
ATOM     22  C   UNL     1     137.445 122.442 138.211  0.00  0.00    +0.000 A 
ATOM     23  C   UNL     1     137.494 121.817 136.965  0.00  0.00    +0.000 A 
ENDROOT
BRANCH  10  24
ATOM     24  O   UNL     1     137.643 125.218 144.964  0.00  0.00    +0.000 OA
ATOM     25  H   UNL     1     137.538 124.312 145.318  0.00  0.00    +0.000 HD
ENDBRANCH  10  24
BRANCH  10  26
ATOM     26  C   UNL     1     136.459 127.298 144.578  0.00  0.00    +0.000 C 
ATOM     27  C   UNL     1     137.760 127.991 144.973  0.00  0.00    +0.000 C 
ENDBRANCH  10  26
BRANCH  13  28
ATOM     28  C   UNL     1     132.551 121.479 138.735  0.00  0.00    +0.000 C 
ATOM     29  C   UNL     1     132.327 120.056 139.226  0.00  0.00    +0.000 C 
ENDBRANCH  13  28
BRANCH  20  30
ATOM     30  O   UNL     1     136.368 120.614 135.218  0.00  0.00    +0.000 OA
BRANCH  30  38
ATOM     31  O   UNL     1     135.035 121.945 133.869  0.00  0.00    +0.000 OA
ATOM     32  N   UNL     1     134.440 119.757 134.274  0.00  0.00    +0.000 N 
ATOM     33  C   UNL     1     132.221 117.912 134.757  0.00  0.00    +0.000 C 
ATOM     34  C   UNL     1     133.509 117.925 135.618  0.00  0.00    +0.000 C 
ATOM     35  C   UNL     1     132.027 119.325 134.149  0.00  0.00    +0.000 C 
ATOM     36  C   UNL     1     134.720 118.455 134.855  0.00  0.00    +0.000 C 
ATOM     37  C   UNL     1     133.271 119.822 133.419  0.00  0.00    +0.000 C 
ATOM     38  C   UNL     1     135.265 120.865 134.407  0.00  0.00    +0.000 C 
BRANCH  33  39
ATOM     39  N   UNL     1     131.024 117.476 135.543  0.00  0.00    +0.000 NA
ATOM     40  C   UNL     1     131.344 117.264 136.970  0.00  0.00    +0.000 C 
ATOM     41  C   UNL     1     129.896 118.423 135.417  0.00  0.00    +0.000 C 
ATOM     42  C   UNL     1     130.139 116.787 137.786  0.00  0.00    +0.000 C 
ATOM     43  C   UNL     1     128.655 117.977 136.193  0.00  0.00    +0.000 C 
ATOM     44  C   UNL     1     128.969 117.747 137.661  0.00  0.00    +0.000 C 
ENDBRANCH  33  39
ENDBRANCH  30  38
ENDBRANCH  20  30
TORSDOF 6
ENDMDL
MODEL 9
REMARK VINA RESULT:      -6.8     33.116     39.205
REMARK  Name = 
REMARK  8 active torsions:
REMARK  status: ('A' for Active; 'I' for Inactive)
REMARK    1  A    between atoms: O_1  and  C_21
REMARK    2  A    between atoms: O_1  and  C_38
REMARK    3  A    between atoms: O_4  and  C_26
REMARK    4  A    between atoms: N_7  and  C_11
REMARK    5  A    between atoms: C_26  and  C_33
REMARK    6  A    between atoms: C_29  and  C_37
REMARK    7  A    between atoms: C_33  and  C_42
REMARK    8  A    between atoms: C_37  and  C_43
REMARK                            x       y       z     vdW  Elec       q    Type
REMARK                         _______ _______ _______ _____ _____    ______ ____
ROOT
ATOM      1  O   UNL     1     142.259 144.219 132.741  0.00  0.00    +0.000 OA
ATOM      2  O   UNL     1     143.786 142.341 129.293  0.00  0.00    +0.000 OA
ATOM      3  O   UNL     1     142.096 143.893 134.959  0.00  0.00    +0.000 OA
ATOM      4  N   UNL     1     145.435 141.289 130.494  0.00  0.00    +0.000 N 
ATOM      5  N   UNL     1     148.051 139.671 132.338  0.00  0.00    +0.000 NA
ATOM      6  C   UNL     1     146.114 141.087 131.678  0.00  0.00    +0.000 A 
ATOM      7  C   UNL     1     147.113 139.740 130.098  0.00  0.00    +0.000 A 
ATOM      8  C   UNL     1     145.995 140.471 129.414  0.00  0.00    +0.000 C 
ATOM      9  C   UNL     1     144.647 142.667 132.754  0.00  0.00    +0.000 A 
ATOM     10  C   UNL     1     144.267 143.443 133.990  0.00  0.00    +0.000 C 
ATOM     11  C   UNL     1     147.173 140.114 131.435  0.00  0.00    +0.000 A 
ATOM     12  C   UNL     1     143.980 142.870 131.601  0.00  0.00    +0.000 A 
ATOM     13  C   UNL     1     148.029 138.818 129.610  0.00  0.00    +0.000 A 
ATOM     14  C   UNL     1     145.768 141.734 132.795  0.00  0.00    +0.000 A 
ATOM     15  C   UNL     1     144.377 142.148 130.350  0.00  0.00    +0.000 A 
ATOM     16  C   UNL     1     148.998 138.324 130.530  0.00  0.00    +0.000 A 
ATOM     17  C   UNL     1     142.839 143.818 131.482  0.00  0.00    +0.000 C 
ATOM     18  C   UNL     1     148.954 138.788 131.885  0.00  0.00    +0.000 A 
ATOM     19  C   UNL     1     142.776 143.847 133.932  0.00  0.00    +0.000 C 
ATOM     20  C   UNL     1     150.932 136.963 131.119  0.00  0.00    +0.000 A 
ATOM     21  C   UNL     1     150.004 137.399 130.175  0.00  0.00    +0.000 A 
ATOM     22  C   UNL     1     149.886 138.309 132.797  0.00  0.00    +0.000 A 
ATOM     23  C   UNL     1     150.874 137.394 132.434  0.00  0.00    +0.000 A 
ENDROOT
BRANCH  10  24
ATOM     24  O   UNL     1     144.464 142.606 135.138  0.00  0.00    +0.000 OA
ATOM     25  H   UNL     1     144.761 141.739 134.796  0.00  0.00    +0.000 HD
ENDBRANCH  10  24
BRANCH  10  26
ATOM     26  C   UNL     1     145.149 144.702 134.131  0.00  0.00    +0.000 C 
ATOM     27  C   UNL     1     145.993 144.745 135.402  0.00  0.00    +0.000 C 
ENDBRANCH  10  26
BRANCH  13  28
ATOM     28  C   UNL     1     147.984 138.413 128.157  0.00  0.00    +0.000 C 
ATOM     29  C   UNL     1     148.760 139.373 127.269  0.00  0.00    +0.000 C 
ENDBRANCH  13  28
BRANCH  20  30
ATOM     30  O   UNL     1     151.887 136.016 130.747  0.00  0.00    +0.000 OA
BRANCH  30  38
ATOM     31  O   UNL     1     153.516 137.309 129.729  0.00  0.00    +0.000 OA
ATOM     32  N   UNL     1     152.425 135.676 128.526  0.00  0.00    +0.000 N 
ATOM     33  C   UNL     1     151.289 134.948 125.930  0.00  0.00    +0.000 C 
ATOM     34  C   UNL     1     150.537 134.737 127.268  0.00  0.00    +0.000 C 
ATOM     35  C   UNL     1     152.294 136.113 126.114  0.00  0.00    +0.000 C 
ATOM     36  C   UNL     1     151.483 134.572 128.454  0.00  0.00    +0.000 C 
ATOM     37  C   UNL     1     153.201 135.915 127.324  0.00  0.00    +0.000 C 
ATOM     38  C   UNL     1     152.682 136.409 129.675  0.00  0.00    +0.000 C 
BRANCH  33  39
ATOM     39  N   UNL     1     150.350 135.199 124.791  0.00  0.00    +0.000 NA
ATOM     40  C   UNL     1     151.047 135.743 123.606  0.00  0.00    +0.000 C 
ATOM     41  C   UNL     1     149.592 133.987 124.414  0.00  0.00    +0.000 C 
ATOM     42  C   UNL     1     150.099 136.036 122.441  0.00  0.00    +0.000 C 
ATOM     43  C   UNL     1     148.608 134.234 123.268  0.00  0.00    +0.000 C 
ATOM     44  C   UNL     1     149.307 134.801 122.046  0.00  0.00    +0.000 C 
ENDBRANCH  33  39
ENDBRANCH  30  38
ENDBRANCH  20  30
TORSDOF 6
ENDMDL
