MODEL 1
REMARK VINA RESULT:      -5.8      0.000      0.000
REMARK  Name = 
REMARK  4 active torsions:
REMARK  status: ('A' for Active; 'I' for Inactive)
REMARK    1  A    between atoms: C_1  and  C_6
REMARK    2  A    between atoms: C_1  and  C_7
REMARK    3  A    between atoms: C_9  and  C_14
REMARK    4  A    between atoms: C_11  and  C_15
REMARK                            x       y       z     vdW  Elec       q    Type
REMARK                         _______ _______ _______ _____ _____    ______ ____
ROOT
ATOM      1  C   UNL     1     137.450 123.152 133.499  0.00  0.00    +0.000 C 
ATOM      2  C   UNL     1     136.985 121.937 134.295  0.00  0.00    +0.000 C 
ATOM      3  C   UNL     1     136.685 122.028 132.821  0.00  0.00    +0.000 C 
ATOM      4  C   UNL     1     135.955 122.083 135.322  0.00  0.00    +0.000 C 
ATOM      5  C   UNL     1     135.280 122.135 132.320  0.00  0.00    +0.000 C 
ATOM      6  C   UNL     1     136.800 124.503 133.685  0.00  0.00    +0.000 C 
ATOM      7  C   UNL     1     138.928 123.251 133.201  0.00  0.00    +0.000 C 
ATOM      8  C   UNL     1     134.638 121.799 135.297  0.00  0.00    +0.000 C 
ATOM      9  C   UNL     1     136.366 122.641 136.670  0.00  0.00    +0.000 C 
ATOM     10  C   UNL     1     134.442 120.965 132.834  0.00  0.00    +0.000 C 
ATOM     11  C   UNL     1     133.771 121.236 134.195  0.00  0.00    +0.000 C 
ATOM     12  C   UNL     1     133.988 122.169 136.606  0.00  0.00    +0.000 C 
ATOM     13  C   UNL     1     135.025 123.070 137.265  0.00  0.00    +0.000 C 
ATOM     14  C   UNL     1     137.074 121.600 137.534  0.00  0.00    +0.000 C 
ATOM     15  C   UNL     1     133.072 119.949 134.656  0.00  0.00    +0.000 C 
ENDROOT
TORSDOF 0
ENDMDL
MODEL 2
REMARK VINA RESULT:      -5.6     33.390     35.664
REMARK  Name = 
REMARK  4 active torsions:
REMARK  status: ('A' for Active; 'I' for Inactive)
REMARK    1  A    between atoms: C_1  and  C_6
REMARK    2  A    between atoms: C_1  and  C_7
REMARK    3  A    between atoms: C_9  and  C_14
REMARK    4  A    between atoms: C_11  and  C_15
REMARK                            x       y       z     vdW  Elec       q    Type
REMARK                         _______ _______ _______ _____ _____    ______ ____
ROOT
ATOM      1  C   UNL     1     141.611 124.241  98.376  0.00  0.00    +0.000 C 
ATOM      2  C   UNL     1     142.579 125.346  98.787  0.00  0.00    +0.000 C 
ATOM      3  C   UNL     1     143.111 124.003  98.358  0.00  0.00    +0.000 C 
ATOM      4  C   UNL     1     142.621 125.807 100.174  0.00  0.00    +0.000 C 
ATOM      5  C   UNL     1     143.845 123.117  99.315  0.00  0.00    +0.000 C 
ATOM      6  C   UNL     1     140.747 123.539  99.399  0.00  0.00    +0.000 C 
ATOM      7  C   UNL     1     140.926 124.392  97.039  0.00  0.00    +0.000 C 
ATOM      8  C   UNL     1     143.484 125.529 101.170  0.00  0.00    +0.000 C 
ATOM      9  C   UNL     1     141.542 126.764 100.640  0.00  0.00    +0.000 C 
ATOM     10  C   UNL     1     145.042 123.857  99.912  0.00  0.00    +0.000 C 
ATOM     11  C   UNL     1     144.705 124.638 101.198  0.00  0.00    +0.000 C 
ATOM     12  C   UNL     1     143.073 126.226 102.442  0.00  0.00    +0.000 C 
ATOM     13  C   UNL     1     141.634 126.639 102.161  0.00  0.00    +0.000 C 
ATOM     14  C   UNL     1     141.791 128.192 100.162  0.00  0.00    +0.000 C 
ATOM     15  C   UNL     1     145.949 125.434 101.621  0.00  0.00    +0.000 C 
ENDROOT
TORSDOF 0
ENDMDL
MODEL 3
REMARK VINA RESULT:      -5.5     32.707     35.197
REMARK  Name = 
REMARK  4 active torsions:
REMARK  status: ('A' for Active; 'I' for Inactive)
REMARK    1  A    between atoms: C_1  and  C_6
REMARK    2  A    between atoms: C_1  and  C_7
REMARK    3  A    between atoms: C_9  and  C_14
REMARK    4  A    between atoms: C_11  and  C_15
REMARK                            x       y       z     vdW  Elec       q    Type
REMARK                         _______ _______ _______ _____ _____    ______ ____
ROOT
ATOM      1  C   UNL     1     142.738 126.095 100.835  0.00  0.00    +0.000 C 
ATOM      2  C   UNL     1     144.192 125.703 101.082  0.00  0.00    +0.000 C 
ATOM      3  C   UNL     1     143.253 125.885 102.249  0.00  0.00    +0.000 C 
ATOM      4  C   UNL     1     145.267 126.645 100.779  0.00  0.00    +0.000 C 
ATOM      5  C   UNL     1     143.463 126.977 103.249  0.00  0.00    +0.000 C 
ATOM      6  C   UNL     1     142.373 127.483 100.362  0.00  0.00    +0.000 C 
ATOM      7  C   UNL     1     141.827 125.029 100.273  0.00  0.00    +0.000 C 
ATOM      8  C   UNL     1     145.992 127.446 101.584  0.00  0.00    +0.000 C 
ATOM      9  C   UNL     1     145.695 126.795  99.332  0.00  0.00    +0.000 C 
ATOM     10  C   UNL     1     144.859 126.875 103.863  0.00  0.00    +0.000 C 
ATOM     11  C   UNL     1     145.936 127.652 103.080  0.00  0.00    +0.000 C 
ATOM     12  C   UNL     1     146.966 128.269 100.780  0.00  0.00    +0.000 C 
ATOM     13  C   UNL     1     146.447 128.126  99.355  0.00  0.00    +0.000 C 
ATOM     14  C   UNL     1     146.581 125.641  98.869  0.00  0.00    +0.000 C 
ATOM     15  C   UNL     1     147.302 127.366 103.720  0.00  0.00    +0.000 C 
ENDROOT
TORSDOF 0
ENDMDL
MODEL 4
REMARK VINA RESULT:      -5.4     33.101     35.540
REMARK  Name = 
REMARK  4 active torsions:
REMARK  status: ('A' for Active; 'I' for Inactive)
REMARK    1  A    between atoms: C_1  and  C_6
REMARK    2  A    between atoms: C_1  and  C_7
REMARK    3  A    between atoms: C_9  and  C_14
REMARK    4  A    between atoms: C_11  and  C_15
REMARK                            x       y       z     vdW  Elec       q    Type
REMARK                         _______ _______ _______ _____ _____    ______ ____
ROOT
ATOM      1  C   UNL     1     143.079 126.631 101.636  0.00  0.00    +0.000 C 
ATOM      2  C   UNL     1     144.271 127.572 101.776  0.00  0.00    +0.000 C 
ATOM      3  C   UNL     1     143.281 127.774 100.657  0.00  0.00    +0.000 C 
ATOM      4  C   UNL     1     145.628 127.077 101.551  0.00  0.00    +0.000 C 
ATOM      5  C   UNL     1     143.684 127.608  99.225  0.00  0.00    +0.000 C 
ATOM      6  C   UNL     1     143.261 125.202 101.178  0.00  0.00    +0.000 C 
ATOM      7  C   UNL     1     141.965 126.782 102.644  0.00  0.00    +0.000 C 
ATOM      8  C   UNL     1     146.445 127.194 100.487  0.00  0.00    +0.000 C 
ATOM      9  C   UNL     1     146.291 126.288 102.663  0.00  0.00    +0.000 C 
ATOM     10  C   UNL     1     144.862 128.524  98.896  0.00  0.00    +0.000 C 
ATOM     11  C   UNL     1     146.238 127.876  99.154  0.00  0.00    +0.000 C 
ATOM     12  C   UNL     1     147.743 126.466 100.728  0.00  0.00    +0.000 C 
ATOM     13  C   UNL     1     147.424 125.576 101.923  0.00  0.00    +0.000 C 
ATOM     14  C   UNL     1     146.811 127.190 103.780  0.00  0.00    +0.000 C 
ATOM     15  C   UNL     1     147.325 128.933  98.909  0.00  0.00    +0.000 C 
ENDROOT
TORSDOF 0
ENDMDL
MODEL 5
REMARK VINA RESULT:      -5.4     32.825     34.903
REMARK  Name = 
REMARK  4 active torsions:
REMARK  status: ('A' for Active; 'I' for Inactive)
REMARK    1  A    between atoms: C_1  and  C_6
REMARK    2  A    between atoms: C_1  and  C_7
REMARK    3  A    between atoms: C_9  and  C_14
REMARK    4  A    between atoms: C_11  and  C_15
REMARK                            x       y       z     vdW  Elec       q    Type
REMARK                         _______ _______ _______ _____ _____    ______ ____
ROOT
ATOM      1  C   UNL     1     142.257 127.044 102.134  0.00  0.00    +0.000 C 
ATOM      2  C   UNL     1     143.214 125.857 102.071  0.00  0.00    +0.000 C 
ATOM      3  C   UNL     1     143.373 126.894 103.155  0.00  0.00    +0.000 C 
ATOM      4  C   UNL     1     144.151 125.728 100.958  0.00  0.00    +0.000 C 
ATOM      5  C   UNL     1     144.588 127.764 103.223  0.00  0.00    +0.000 C 
ATOM      6  C   UNL     1     142.318 128.150 101.106  0.00  0.00    +0.000 C 
ATOM      7  C   UNL     1     140.851 126.767 102.611  0.00  0.00    +0.000 C 
ATOM      8  C   UNL     1     145.467 126.002 100.875  0.00  0.00    +0.000 C 
ATOM      9  C   UNL     1     143.622 125.198  99.639  0.00  0.00    +0.000 C 
ATOM     10  C   UNL     1     145.851 126.907 103.291  0.00  0.00    +0.000 C 
ATOM     11  C   UNL     1     146.428 126.546 101.908  0.00  0.00    +0.000 C 
ATOM     12  C   UNL     1     145.982 125.736  99.484  0.00  0.00    +0.000 C 
ATOM     13  C   UNL     1     144.706 125.639  98.656  0.00  0.00    +0.000 C 
ATOM     14  C   UNL     1     143.440 123.683  99.656  0.00  0.00    +0.000 C 
ATOM     15  C   UNL     1     147.609 125.586 102.110  0.00  0.00    +0.000 C 
ENDROOT
TORSDOF 0
ENDMDL
MODEL 6
REMARK VINA RESULT:      -5.4     34.190     36.508
REMARK  Name = 
REMARK  4 active torsions:
REMARK  status: ('A' for Active; 'I' for Inactive)
REMARK    1  A    between atoms: C_1  and  C_6
REMARK    2  A    between atoms: C_1  and  C_7
REMARK    3  A    between atoms: C_9  and  C_14
REMARK    4  A    between atoms: C_11  and  C_15
REMARK                            x       y       z     vdW  Elec       q    Type
REMARK                         _______ _______ _______ _____ _____    ______ ____
ROOT
ATOM      1  C   UNL     1     141.984 126.401 101.476  0.00  0.00    +0.000 C 
ATOM      2  C   UNL     1     141.291 126.844 100.191  0.00  0.00    +0.000 C 
ATOM      3  C   UNL     1     141.152 125.420 100.667  0.00  0.00    +0.000 C 
ATOM      4  C   UNL     1     142.083 127.211  99.019  0.00  0.00    +0.000 C 
ATOM      5  C   UNL     1     141.710 124.279  99.876  0.00  0.00    +0.000 C 
ATOM      6  C   UNL     1     143.485 126.245 101.540  0.00  0.00    +0.000 C 
ATOM      7  C   UNL     1     141.393 126.889 102.777  0.00  0.00    +0.000 C 
ATOM      8  C   UNL     1     142.371 126.524  97.897  0.00  0.00    +0.000 C 
ATOM      9  C   UNL     1     142.719 128.588  98.992  0.00  0.00    +0.000 C 
ATOM     10  C   UNL     1     141.144 124.291  98.456  0.00  0.00    +0.000 C 
ATOM     11  C   UNL     1     141.977 125.130  97.466  0.00  0.00    +0.000 C 
ATOM     12  C   UNL     1     143.270 127.329  96.994  0.00  0.00    +0.000 C 
ATOM     13  C   UNL     1     143.789 128.429  97.912  0.00  0.00    +0.000 C 
ATOM     14  C   UNL     1     141.711 129.682  98.649  0.00  0.00    +0.000 C 
ATOM     15  C   UNL     1     141.240 125.165  96.120  0.00  0.00    +0.000 C 
ENDROOT
TORSDOF 0
ENDMDL
MODEL 7
REMARK VINA RESULT:      -5.3     32.919     35.292
REMARK  Name = 
REMARK  4 active torsions:
REMARK  status: ('A' for Active; 'I' for Inactive)
REMARK    1  A    between atoms: C_1  and  C_6
REMARK    2  A    between atoms: C_1  and  C_7
REMARK    3  A    between atoms: C_9  and  C_14
REMARK    4  A    between atoms: C_11  and  C_15
REMARK                            x       y       z     vdW  Elec       q    Type
REMARK                         _______ _______ _______ _____ _____    ______ ____
ROOT
ATOM      1  C   UNL     1     144.147 126.354 103.057  0.00  0.00    +0.000 C 
ATOM      2  C   UNL     1     144.365 127.606 102.212  0.00  0.00    +0.000 C 
ATOM      3  C   UNL     1     143.008 127.328 102.807  0.00  0.00    +0.000 C 
ATOM      4  C   UNL     1     144.641 127.488 100.782  0.00  0.00    +0.000 C 
ATOM      5  C   UNL     1     141.823 127.048 101.938  0.00  0.00    +0.000 C 
ATOM      6  C   UNL     1     144.120 124.982 102.426  0.00  0.00    +0.000 C 
ATOM      7  C   UNL     1     144.750 126.348 104.441  0.00  0.00    +0.000 C 
ATOM      8  C   UNL     1     143.840 127.655  99.712  0.00  0.00    +0.000 C 
ATOM      9  C   UNL     1     146.048 127.118 100.356  0.00  0.00    +0.000 C 
ATOM     10  C   UNL     1     141.607 128.193 100.949  0.00  0.00    +0.000 C 
ATOM     11  C   UNL     1     142.375 128.017  99.623  0.00  0.00    +0.000 C 
ATOM     12  C   UNL     1     144.591 127.377  98.435  0.00  0.00    +0.000 C 
ATOM     13  C   UNL     1     145.837 126.645  98.918  0.00  0.00    +0.000 C 
ATOM     14  C   UNL     1     147.007 128.304 100.438  0.00  0.00    +0.000 C 
ATOM     15  C   UNL     1     142.179 129.283  98.777  0.00  0.00    +0.000 C 
ENDROOT
TORSDOF 0
ENDMDL
MODEL 8
REMARK VINA RESULT:      -5.2      9.777     12.165
REMARK  Name = 
REMARK  4 active torsions:
REMARK  status: ('A' for Active; 'I' for Inactive)
REMARK    1  A    between atoms: C_1  and  C_6
REMARK    2  A    between atoms: C_1  and  C_7
REMARK    3  A    between atoms: C_9  and  C_14
REMARK    4  A    between atoms: C_11  and  C_15
REMARK                            x       y       z     vdW  Elec       q    Type
REMARK                         _______ _______ _______ _____ _____    ______ ____
ROOT
ATOM      1  C   UNL     1     136.723 135.522 132.741  0.00  0.00    +0.000 C 
ATOM      2  C   UNL     1     138.017 134.800 133.103  0.00  0.00    +0.000 C 
ATOM      3  C   UNL     1     137.112 134.231 132.040  0.00  0.00    +0.000 C 
ATOM      4  C   UNL     1     138.172 134.187 134.421  0.00  0.00    +0.000 C 
ATOM      5  C   UNL     1     136.423 132.917 132.230  0.00  0.00    +0.000 C 
ATOM      6  C   UNL     1     135.548 135.540 133.691  0.00  0.00    +0.000 C 
ATOM      7  C   UNL     1     136.850 136.798 131.944  0.00  0.00    +0.000 C 
ATOM      8  C   UNL     1     138.071 132.903 134.814  0.00  0.00    +0.000 C 
ATOM      9  C   UNL     1     138.506 135.090 135.592  0.00  0.00    +0.000 C 
ATOM     10  C   UNL     1     137.445 131.819 132.525  0.00  0.00    +0.000 C 
ATOM     11  C   UNL     1     137.756 131.652 134.026  0.00  0.00    +0.000 C 
ATOM     12  C   UNL     1     138.279 132.782 136.302  0.00  0.00    +0.000 C 
ATOM     13  C   UNL     1     138.130 134.218 136.790  0.00  0.00    +0.000 C 
ATOM     14  C   UNL     1     139.979 135.492 135.611  0.00  0.00    +0.000 C 
ATOM     15  C   UNL     1     138.880 130.617 134.176  0.00  0.00    +0.000 C 
ENDROOT
TORSDOF 0
ENDMDL
MODEL 9
REMARK VINA RESULT:      -5.2     35.091     37.251
REMARK  Name = 
REMARK  4 active torsions:
REMARK  status: ('A' for Active; 'I' for Inactive)
REMARK    1  A    between atoms: C_1  and  C_6
REMARK    2  A    between atoms: C_1  and  C_7
REMARK    3  A    between atoms: C_9  and  C_14
REMARK    4  A    between atoms: C_11  and  C_15
REMARK                            x       y       z     vdW  Elec       q    Type
REMARK                         _______ _______ _______ _____ _____    ______ ____
ROOT
ATOM      1  C   UNL     1     142.906 127.972  97.808  0.00  0.00    +0.000 C 
ATOM      2  C   UNL     1     143.213 126.497  98.049  0.00  0.00    +0.000 C 
ATOM      3  C   UNL     1     142.938 126.988  96.651  0.00  0.00    +0.000 C 
ATOM      4  C   UNL     1     142.272 125.663  98.794  0.00  0.00    +0.000 C 
ATOM      5  C   UNL     1     141.734 126.528  95.890  0.00  0.00    +0.000 C 
ATOM      6  C   UNL     1     141.593 128.578  98.249  0.00  0.00    +0.000 C 
ATOM      7  C   UNL     1     144.060 128.939  97.916  0.00  0.00    +0.000 C 
ATOM      8  C   UNL     1     141.360 124.768  98.370  0.00  0.00    +0.000 C 
ATOM      9  C   UNL     1     142.267 125.771 100.306  0.00  0.00    +0.000 C 
ATOM     10  C   UNL     1     141.715 125.003  95.797  0.00  0.00    +0.000 C 
ATOM     11  C   UNL     1     140.991 124.321  96.974  0.00  0.00    +0.000 C 
ATOM     12  C   UNL     1     140.596 124.192  99.535  0.00  0.00    +0.000 C 
ATOM     13  C   UNL     1     140.915 125.157 100.670  0.00  0.00    +0.000 C 
ATOM     14  C   UNL     1     143.433 125.016 100.942  0.00  0.00    +0.000 C 
ATOM     15  C   UNL     1     141.153 122.801  96.829  0.00  0.00    +0.000 C 
ENDROOT
TORSDOF 0
ENDMDL
