MODEL 1
REMARK VINA RESULT:      -7.7      0.000      0.000
REMARK  Name = JAK3_Inhibitor.pdbqt.pdb
REMARK  1 active torsions:
REMARK  status: ('A' for Active; 'I' for Inactive)
REMARK    1  A    between atoms: C_7  and  C_20
REMARK                            x       y       z     vdW  Elec       q    Type
REMARK                         _______ _______ _______ _____ _____    ______ ____
ROOT
ATOM      1  O   UNL     1     135.482 121.899 131.410  0.00  0.00    +0.000 OA
ATOM      2  N   UNL     1     134.041 121.391 133.185  0.00  0.00    +0.000 N 
ATOM      3  C   UNL     1     135.313 122.074 134.968  0.00  0.00    +0.000 A 
ATOM      4  C   UNL     1     134.097 121.513 134.574  0.00  0.00    +0.000 A 
ATOM      5  C   UNL     1     136.053 122.312 133.740  0.00  0.00    +0.000 C 
ATOM      6  C   UNL     1     135.599 122.291 136.302  0.00  0.00    +0.000 A 
ATOM      7  C   UNL     1     134.641 121.939 137.268  0.00  0.00    +0.000 A 
ATOM      8  C   UNL     1     135.208 121.861 132.593  0.00  0.00    +0.000 C 
ATOM      9  C   UNL     1     133.127 121.152 135.483  0.00  0.00    +0.000 A 
ATOM     10  C   UNL     1     137.237 122.821 133.612  0.00  0.00    +0.000 C 
ATOM     11  C   UNL     1     133.419 121.374 136.831  0.00  0.00    +0.000 A 
ATOM     12  H   UNL     1     133.267 121.016 132.656  0.00  0.00    +0.000 HD
ATOM     13  N   UNL     1     139.112 123.541 132.190  0.00  0.00    +0.000 N 
ATOM     14  C   UNL     1     138.529 123.373 133.419  0.00  0.00    +0.000 C 
ATOM     15  C   UNL     1     139.411 123.829 134.372  0.00  0.00    +0.000 C 
ATOM     16  C   UNL     1     140.354 124.096 132.348  0.00  0.00    +0.000 C 
ATOM     17  C   UNL     1     140.565 124.285 133.694  0.00  0.00    +0.000 C 
ATOM     18  H   UNL     1     138.689 123.293 131.306  0.00  0.00    +0.000 HD
ENDROOT
BRANCH   7  20
ATOM     19  N   UNL     1     134.697 121.377 140.999  0.00  0.00    +0.000 NA
ATOM     20  C   UNL     1     134.900 122.152 138.696  0.00  0.00    +0.000 A 
ATOM     21  C   UNL     1     135.573 123.280 139.170  0.00  0.00    +0.000 A 
ATOM     22  C   UNL     1     134.492 121.245 139.669  0.00  0.00    +0.000 A 
ATOM     23  C   UNL     1     135.810 123.465 140.527  0.00  0.00    +0.000 A 
ATOM     24  C   UNL     1     135.353 122.488 141.394  0.00  0.00    +0.000 A 
ENDBRANCH   7  20
TORSDOF 1
ENDMDL
MODEL 2
REMARK VINA RESULT:      -7.5     32.694     37.359
REMARK  Name = JAK3_Inhibitor.pdbqt.pdb
REMARK  1 active torsions:
REMARK  status: ('A' for Active; 'I' for Inactive)
REMARK    1  A    between atoms: C_7  and  C_20
REMARK                            x       y       z     vdW  Elec       q    Type
REMARK                         _______ _______ _______ _____ _____    ______ ____
ROOT
ATOM      1  O   UNL     1     141.021 127.247 103.038  0.00  0.00    +0.000 OA
ATOM      2  N   UNL     1     141.091 127.901 100.790  0.00  0.00    +0.000 N 
ATOM      3  C   UNL     1     143.353 127.863 100.410  0.00  0.00    +0.000 A 
ATOM      4  C   UNL     1     142.099 128.110  99.848  0.00  0.00    +0.000 A 
ATOM      5  C   UNL     1     143.098 127.476 101.788  0.00  0.00    +0.000 C 
ATOM      6  C   UNL     1     144.507 128.006  99.666  0.00  0.00    +0.000 A 
ATOM      7  C   UNL     1     144.405 128.406  98.322  0.00  0.00    +0.000 A 
ATOM      8  C   UNL     1     141.621 127.507 102.013  0.00  0.00    +0.000 C 
ATOM      9  C   UNL     1     141.947 128.504  98.537  0.00  0.00    +0.000 A 
ATOM     10  C   UNL     1     143.964 127.154 102.695  0.00  0.00    +0.000 C 
ATOM     11  C   UNL     1     143.117 128.647  97.788  0.00  0.00    +0.000 A 
ATOM     12  H   UNL     1     140.100 128.013 100.629  0.00  0.00    +0.000 HD
ATOM     13  N   UNL     1     144.489 126.448 104.994  0.00  0.00    +0.000 N 
ATOM     14  C   UNL     1     144.871 126.793 103.724  0.00  0.00    +0.000 C 
ATOM     15  C   UNL     1     146.243 126.719 103.660  0.00  0.00    +0.000 C 
ATOM     16  C   UNL     1     145.599 126.157 105.740  0.00  0.00    +0.000 C 
ATOM     17  C   UNL     1     146.704 126.317 104.936  0.00  0.00    +0.000 C 
ATOM     18  H   UNL     1     143.534 126.415 105.326  0.00  0.00    +0.000 HD
ENDROOT
BRANCH   7  20
ATOM     19  N   UNL     1     146.798 128.093  95.421  0.00  0.00    +0.000 NA
ATOM     20  C   UNL     1     145.605 128.570  97.493  0.00  0.00    +0.000 A 
ATOM     21  C   UNL     1     146.702 129.324  97.914  0.00  0.00    +0.000 A 
ATOM     22  C   UNL     1     145.725 127.984  96.237  0.00  0.00    +0.000 A 
ATOM     23  C   UNL     1     147.829 129.468  97.114  0.00  0.00    +0.000 A 
ATOM     24  C   UNL     1     147.825 128.836  95.884  0.00  0.00    +0.000 A 
ENDBRANCH   7  20
TORSDOF 1
ENDMDL
MODEL 3
REMARK VINA RESULT:      -7.0     35.194     38.540
REMARK  Name = JAK3_Inhibitor.pdbqt.pdb
REMARK  1 active torsions:
REMARK  status: ('A' for Active; 'I' for Inactive)
REMARK    1  A    between atoms: C_7  and  C_20
REMARK                            x       y       z     vdW  Elec       q    Type
REMARK                         _______ _______ _______ _____ _____    ______ ____
ROOT
ATOM      1  O   UNL     1     141.333 125.789 101.721  0.00  0.00    +0.000 OA
ATOM      2  N   UNL     1     140.487 124.694  99.831  0.00  0.00    +0.000 N 
ATOM      3  C   UNL     1     142.437 124.020  98.827  0.00  0.00    +0.000 A 
ATOM      4  C   UNL     1     141.043 124.023  98.741  0.00  0.00    +0.000 A 
ATOM      5  C   UNL     1     142.758 124.737 100.049  0.00  0.00    +0.000 C 
ATOM      6  C   UNL     1     143.209 123.413  97.856  0.00  0.00    +0.000 A 
ATOM      7  C   UNL     1     142.569 122.790  96.770  0.00  0.00    +0.000 A 
ATOM      8  C   UNL     1     141.476 125.167 100.686  0.00  0.00    +0.000 C 
ATOM      9  C   UNL     1     140.371 123.426  97.697  0.00  0.00    +0.000 A 
ATOM     10  C   UNL     1     143.930 124.986 100.540  0.00  0.00    +0.000 C 
ATOM     11  C   UNL     1     141.155 122.812  96.718  0.00  0.00    +0.000 A 
ATOM     12  H   UNL     1     139.501 124.832  99.999  0.00  0.00    +0.000 HD
ATOM     13  N   UNL     1     145.349 125.977 102.289  0.00  0.00    +0.000 N 
ATOM     14  C   UNL     1     145.190 125.283 101.118  0.00  0.00    +0.000 C 
ATOM     15  C   UNL     1     146.441 124.953 100.649  0.00  0.00    +0.000 C 
ATOM     16  C   UNL     1     146.684 126.095 102.572  0.00  0.00    +0.000 C 
ATOM     17  C   UNL     1     147.385 125.467 101.568  0.00  0.00    +0.000 C 
ATOM     18  H   UNL     1     144.595 126.345 102.855  0.00  0.00    +0.000 HD
ENDROOT
BRANCH   7  20
ATOM     19  N   UNL     1     143.587 120.302  94.121  0.00  0.00    +0.000 NA
ATOM     20  C   UNL     1     143.349 122.131  95.716  0.00  0.00    +0.000 A 
ATOM     21  C   UNL     1     144.570 122.639  95.267  0.00  0.00    +0.000 A 
ATOM     22  C   UNL     1     142.921 120.961  95.097  0.00  0.00    +0.000 A 
ATOM     23  C   UNL     1     145.294 122.001  94.266  0.00  0.00    +0.000 A 
ATOM     24  C   UNL     1     144.760 120.843  93.730  0.00  0.00    +0.000 A 
ENDBRANCH   7  20
TORSDOF 1
ENDMDL
MODEL 4
REMARK VINA RESULT:      -6.3      3.174      6.592
REMARK  Name = JAK3_Inhibitor.pdbqt.pdb
REMARK  1 active torsions:
REMARK  status: ('A' for Active; 'I' for Inactive)
REMARK    1  A    between atoms: C_7  and  C_20
REMARK                            x       y       z     vdW  Elec       q    Type
REMARK                         _______ _______ _______ _____ _____    ______ ____
ROOT
ATOM      1  O   UNL     1     131.603 120.386 136.587  0.00  0.00    +0.000 OA
ATOM      2  N   UNL     1     132.695 122.384 136.038  0.00  0.00    +0.000 N 
ATOM      3  C   UNL     1     134.756 121.584 135.428  0.00  0.00    +0.000 A 
ATOM      4  C   UNL     1     133.969 122.727 135.582  0.00  0.00    +0.000 A 
ATOM      5  C   UNL     1     133.911 120.467 135.813  0.00  0.00    +0.000 C 
ATOM      6  C   UNL     1     136.062 121.674 134.987  0.00  0.00    +0.000 A 
ATOM      7  C   UNL     1     136.594 122.941 134.691  0.00  0.00    +0.000 A 
ATOM      8  C   UNL     1     132.575 121.010 136.206  0.00  0.00    +0.000 C 
ATOM      9  C   UNL     1     134.444 123.989 135.305  0.00  0.00    +0.000 A 
ATOM     10  C   UNL     1     134.216 119.209 135.831  0.00  0.00    +0.000 C 
ATOM     11  C   UNL     1     135.765 124.076 134.859  0.00  0.00    +0.000 A 
ATOM     12  H   UNL     1     131.942 123.031 136.226  0.00  0.00    +0.000 HD
ATOM     13  N   UNL     1     133.598 116.866 136.259  0.00  0.00    +0.000 N 
ATOM     14  C   UNL     1     134.500 117.820 135.868  0.00  0.00    +0.000 C 
ATOM     15  C   UNL     1     135.673 117.183 135.536  0.00  0.00    +0.000 C 
ATOM     16  C   UNL     1     134.181 115.629 136.182  0.00  0.00    +0.000 C 
ATOM     17  C   UNL     1     135.472 115.797 135.735  0.00  0.00    +0.000 C 
ATOM     18  H   UNL     1     132.649 117.048 136.558  0.00  0.00    +0.000 HD
ENDROOT
BRANCH   7  20
ATOM     19  N   UNL     1     140.364 122.799 134.618  0.00  0.00    +0.000 NA
ATOM     20  C   UNL     1     137.976 123.084 134.219  0.00  0.00    +0.000 A 
ATOM     21  C   UNL     1     138.282 123.620 132.966  0.00  0.00    +0.000 A 
ATOM     22  C   UNL     1     139.068 122.696 134.989  0.00  0.00    +0.000 A 
ATOM     23  C   UNL     1     139.598 123.747 132.536  0.00  0.00    +0.000 A 
ATOM     24  C   UNL     1     140.595 123.324 133.396  0.00  0.00    +0.000 A 
ENDBRANCH   7  20
TORSDOF 1
ENDMDL
MODEL 5
REMARK VINA RESULT:      -6.2      2.229      3.058
REMARK  Name = JAK3_Inhibitor.pdbqt.pdb
REMARK  1 active torsions:
REMARK  status: ('A' for Active; 'I' for Inactive)
REMARK    1  A    between atoms: C_7  and  C_20
REMARK                            x       y       z     vdW  Elec       q    Type
REMARK                         _______ _______ _______ _____ _____    ______ ____
ROOT
ATOM      1  O   UNL     1     135.472 119.795 134.887  0.00  0.00    +0.000 OA
ATOM      2  N   UNL     1     134.377 119.876 136.956  0.00  0.00    +0.000 N 
ATOM      3  C   UNL     1     135.541 121.567 137.982  0.00  0.00    +0.000 A 
ATOM      4  C   UNL     1     134.505 120.640 138.118  0.00  0.00    +0.000 A 
ATOM      5  C   UNL     1     136.084 121.359 136.651  0.00  0.00    +0.000 C 
ATOM      6  C   UNL     1     135.857 122.436 139.008  0.00  0.00    +0.000 A 
ATOM      7  C   UNL     1     135.116 122.377 140.201  0.00  0.00    +0.000 A 
ATOM      8  C   UNL     1     135.313 120.255 136.001  0.00  0.00    +0.000 C 
ATOM      9  C   UNL     1     133.751 120.544 139.266  0.00  0.00    +0.000 A 
ATOM     10  C   UNL     1     137.063 121.991 136.085  0.00  0.00    +0.000 C 
ATOM     11  C   UNL     1     134.074 121.425 140.301  0.00  0.00    +0.000 A 
ATOM     12  H   UNL     1     133.702 119.141 136.805  0.00  0.00    +0.000 HD
ATOM     13  N   UNL     1     138.540 122.350 134.150  0.00  0.00    +0.000 N 
ATOM     14  C   UNL     1     138.126 122.653 135.421  0.00  0.00    +0.000 C 
ATOM     15  C   UNL     1     138.915 123.678 135.890  0.00  0.00    +0.000 C 
ATOM     16  C   UNL     1     139.583 123.168 133.803  0.00  0.00    +0.000 C 
ATOM     17  C   UNL     1     139.837 124.003 134.867  0.00  0.00    +0.000 C 
ATOM     18  H   UNL     1     138.136 121.634 133.561  0.00  0.00    +0.000 HD
ENDROOT
BRANCH   7  20
ATOM     19  N   UNL     1     135.545 123.668 143.721  0.00  0.00    +0.000 NA
ATOM     20  C   UNL     1     135.416 123.281 141.317  0.00  0.00    +0.000 A 
ATOM     21  C   UNL     1     135.850 124.593 141.116  0.00  0.00    +0.000 A 
ATOM     22  C   UNL     1     135.287 122.889 142.646  0.00  0.00    +0.000 A 
ATOM     23  C   UNL     1     136.129 125.435 142.186  0.00  0.00    +0.000 A 
ATOM     24  C   UNL     1     135.962 124.925 143.461  0.00  0.00    +0.000 A 
ENDBRANCH   7  20
TORSDOF 1
ENDMDL
MODEL 6
REMARK VINA RESULT:      -6.2     33.779     38.377
REMARK  Name = JAK3_Inhibitor.pdbqt.pdb
REMARK  1 active torsions:
REMARK  status: ('A' for Active; 'I' for Inactive)
REMARK    1  A    between atoms: C_7  and  C_20
REMARK                            x       y       z     vdW  Elec       q    Type
REMARK                         _______ _______ _______ _____ _____    ______ ____
ROOT
ATOM      1  O   UNL     1     141.300 125.749 101.347  0.00  0.00    +0.000 OA
ATOM      2  N   UNL     1     141.691 125.224  99.098  0.00  0.00    +0.000 N 
ATOM      3  C   UNL     1     143.982 125.330  99.033  0.00  0.00    +0.000 A 
ATOM      4  C   UNL     1     142.822 125.089  98.292  0.00  0.00    +0.000 A 
ATOM      5  C   UNL     1     143.532 125.633 100.381  0.00  0.00    +0.000 C 
ATOM      6  C   UNL     1     145.229 125.255  98.446  0.00  0.00    +0.000 A 
ATOM      7  C   UNL     1     145.320 124.928  97.082  0.00  0.00    +0.000 A 
ATOM      8  C   UNL     1     142.039 125.559 100.401  0.00  0.00    +0.000 C 
ATOM      9  C   UNL     1     142.860 124.766  96.954  0.00  0.00    +0.000 A 
ATOM     10  C   UNL     1     144.258 125.923 101.413  0.00  0.00    +0.000 C 
ATOM     11  C   UNL     1     144.124 124.690  96.364  0.00  0.00    +0.000 A 
ATOM     12  H   UNL     1     140.734 125.100  98.798  0.00  0.00    +0.000 HD
ATOM     13  N   UNL     1     144.447 126.513 103.795  0.00  0.00    +0.000 N 
ATOM     14  C   UNL     1     145.007 126.245 102.573  0.00  0.00    +0.000 C 
ATOM     15  C   UNL     1     146.373 126.347 102.703  0.00  0.00    +0.000 C 
ATOM     16  C   UNL     1     145.438 126.786 104.700  0.00  0.00    +0.000 C 
ATOM     17  C   UNL     1     146.645 126.690 104.048  0.00  0.00    +0.000 C 
ATOM     18  H   UNL     1     143.455 126.510 103.994  0.00  0.00    +0.000 HD
ENDROOT
BRANCH   7  20
ATOM     19  N   UNL     1     148.952 125.549  96.265  0.00  0.00    +0.000 NA
ATOM     20  C   UNL     1     146.625 124.837  96.416  0.00  0.00    +0.000 A 
ATOM     21  C   UNL     1     146.846 123.993  95.325  0.00  0.00    +0.000 A 
ATOM     22  C   UNL     1     147.724 125.584  96.830  0.00  0.00    +0.000 A 
ATOM     23  C   UNL     1     148.090 123.920  94.708  0.00  0.00    +0.000 A 
ATOM     24  C   UNL     1     149.102 124.714  95.215  0.00  0.00    +0.000 A 
ENDBRANCH   7  20
TORSDOF 1
ENDMDL
MODEL 7
REMARK VINA RESULT:      -6.0     12.338     15.017
REMARK  Name = JAK3_Inhibitor.pdbqt.pdb
REMARK  1 active torsions:
REMARK  status: ('A' for Active; 'I' for Inactive)
REMARK    1  A    between atoms: C_7  and  C_20
REMARK                            x       y       z     vdW  Elec       q    Type
REMARK                         _______ _______ _______ _____ _____    ______ ____
ROOT
ATOM      1  O   UNL     1     138.659 138.516 141.103  0.00  0.00    +0.000 OA
ATOM      2  N   UNL     1     139.814 137.902 139.159  0.00  0.00    +0.000 N 
ATOM      3  C   UNL     1     138.594 136.072 138.505  0.00  0.00    +0.000 A 
ATOM      4  C   UNL     1     139.682 136.894 138.203  0.00  0.00    +0.000 A 
ATOM      5  C   UNL     1     138.020 136.611 139.726  0.00  0.00    +0.000 C 
ATOM      6  C   UNL     1     138.266 135.001 137.698  0.00  0.00    +0.000 A 
ATOM      7  C   UNL     1     139.046 134.745 136.557  0.00  0.00    +0.000 A 
ATOM      8  C   UNL     1     138.828 137.800 140.135  0.00  0.00    +0.000 C 
ATOM      9  C   UNL     1     140.476 136.684 137.097  0.00  0.00    +0.000 A 
ATOM     10  C   UNL     1     136.993 136.173 140.382  0.00  0.00    +0.000 C 
ATOM     11  C   UNL     1     140.140 135.600 136.283  0.00  0.00    +0.000 A 
ATOM     12  H   UNL     1     140.521 138.623 139.164  0.00  0.00    +0.000 HD
ATOM     13  N   UNL     1     135.441 136.342 142.284  0.00  0.00    +0.000 N 
ATOM     14  C   UNL     1     135.875 135.733 141.135  0.00  0.00    +0.000 C 
ATOM     15  C   UNL     1     135.045 134.666 140.882  0.00  0.00    +0.000 C 
ATOM     16  C   UNL     1     134.345 135.676 142.765  0.00  0.00    +0.000 C 
ATOM     17  C   UNL     1     134.077 134.629 141.913  0.00  0.00    +0.000 C 
ATOM     18  H   UNL     1     135.864 137.156 142.708  0.00  0.00    +0.000 HD
ENDROOT
BRANCH   7  20
ATOM     19  N   UNL     1     137.683 131.443 135.341  0.00  0.00    +0.000 NA
ATOM     20  C   UNL     1     138.734 133.618 135.670  0.00  0.00    +0.000 A 
ATOM     21  C   UNL     1     139.148 133.584 134.337  0.00  0.00    +0.000 A 
ATOM     22  C   UNL     1     138.005 132.513 136.101  0.00  0.00    +0.000 A 
ATOM     23  C   UNL     1     138.842 132.507 133.513  0.00  0.00    +0.000 A 
ATOM     24  C   UNL     1     138.111 131.469 134.061  0.00  0.00    +0.000 A 
ENDBRANCH   7  20
TORSDOF 1
ENDMDL
MODEL 8
REMARK VINA RESULT:      -5.9     24.036     27.202
REMARK  Name = JAK3_Inhibitor.pdbqt.pdb
REMARK  1 active torsions:
REMARK  status: ('A' for Active; 'I' for Inactive)
REMARK    1  A    between atoms: C_7  and  C_20
REMARK                            x       y       z     vdW  Elec       q    Type
REMARK                         _______ _______ _______ _____ _____    ______ ____
ROOT
ATOM      1  O   UNL     1     129.972 132.589 108.769  0.00  0.00    +0.000 OA
ATOM      2  N   UNL     1     131.200 132.674 110.761  0.00  0.00    +0.000 N 
ATOM      3  C   UNL     1     132.594 130.874 110.473  0.00  0.00    +0.000 A 
ATOM      4  C   UNL     1     132.231 131.920 111.325  0.00  0.00    +0.000 A 
ATOM      5  C   UNL     1     131.730 130.993 109.312  0.00  0.00    +0.000 C 
ATOM      6  C   UNL     1     133.596 129.990 110.820  0.00  0.00    +0.000 A 
ATOM      7  C   UNL     1     134.255 130.157 112.050  0.00  0.00    +0.000 A 
ATOM      8  C   UNL     1     130.831 132.170 109.519  0.00  0.00    +0.000 C 
ATOM      9  C   UNL     1     132.846 132.125 112.540  0.00  0.00    +0.000 A 
ATOM     10  C   UNL     1     131.704 130.238 108.260  0.00  0.00    +0.000 C 
ATOM     11  C   UNL     1     133.860 131.229 112.886  0.00  0.00    +0.000 A 
ATOM     12  H   UNL     1     130.764 133.483 111.179  0.00  0.00    +0.000 HD
ATOM     13  N   UNL     1     130.760 129.670 106.059  0.00  0.00    +0.000 N 
ATOM     14  C   UNL     1     131.636 129.442 107.089  0.00  0.00    +0.000 C 
ATOM     15  C   UNL     1     132.394 128.341 106.763  0.00  0.00    +0.000 C 
ATOM     16  C   UNL     1     130.950 128.728 105.083  0.00  0.00    +0.000 C 
ATOM     17  C   UNL     1     131.959 127.889 105.495  0.00  0.00    +0.000 C 
ATOM     18  H   UNL     1     130.080 130.418 106.028  0.00  0.00    +0.000 HD
ENDROOT
BRANCH   7  20
ATOM     19  N   UNL     1     136.992 127.566 111.857  0.00  0.00    +0.000 NA
ATOM     20  C   UNL     1     135.327 129.242 112.460  0.00  0.00    +0.000 A 
ATOM     21  C   UNL     1     135.741 129.129 113.788  0.00  0.00    +0.000 A 
ATOM     22  C   UNL     1     135.998 128.430 111.550  0.00  0.00    +0.000 A 
ATOM     23  C   UNL     1     136.758 128.256 114.157  0.00  0.00    +0.000 A 
ATOM     24  C   UNL     1     137.347 127.503 113.157  0.00  0.00    +0.000 A 
ENDBRANCH   7  20
TORSDOF 1
ENDMDL
MODEL 9
REMARK VINA RESULT:      -5.9     37.261     39.907
REMARK  Name = JAK3_Inhibitor.pdbqt.pdb
REMARK  1 active torsions:
REMARK  status: ('A' for Active; 'I' for Inactive)
REMARK    1  A    between atoms: C_7  and  C_20
REMARK                            x       y       z     vdW  Elec       q    Type
REMARK                         _______ _______ _______ _____ _____    ______ ____
ROOT
ATOM      1  O   UNL     1     142.904 128.091 100.197  0.00  0.00    +0.000 OA
ATOM      2  N   UNL     1     141.964 126.020  99.636  0.00  0.00    +0.000 N 
ATOM      3  C   UNL     1     143.384 125.353  97.963  0.00  0.00    +0.000 A 
ATOM      4  C   UNL     1     142.257 125.014  98.714  0.00  0.00    +0.000 A 
ATOM      5  C   UNL     1     143.811 126.651  98.455  0.00  0.00    +0.000 C 
ATOM      6  C   UNL     1     143.865 124.508  96.982  0.00  0.00    +0.000 A 
ATOM      7  C   UNL     1     143.203 123.290  96.748  0.00  0.00    +0.000 A 
ATOM      8  C   UNL     1     142.874 127.067  99.543  0.00  0.00    +0.000 C 
ATOM      9  C   UNL     1     141.574 123.834  98.522  0.00  0.00    +0.000 A 
ATOM     10  C   UNL     1     144.817 127.362  98.054  0.00  0.00    +0.000 C 
ATOM     11  C   UNL     1     142.065 122.982  97.531  0.00  0.00    +0.000 A 
ATOM     12  H   UNL     1     141.199 126.013 100.295  0.00  0.00    +0.000 HD
ATOM     13  N   UNL     1     146.194 129.395  98.208  0.00  0.00    +0.000 N 
ATOM     14  C   UNL     1     145.905 128.176  97.651  0.00  0.00    +0.000 C 
ATOM     15  C   UNL     1     146.841 127.924  96.676  0.00  0.00    +0.000 C 
ATOM     16  C   UNL     1     147.301 129.923  97.599  0.00  0.00    +0.000 C 
ATOM     17  C   UNL     1     147.724 129.029  96.642  0.00  0.00    +0.000 C 
ATOM     18  H   UNL     1     145.669 129.835  98.953  0.00  0.00    +0.000 HD
ENDROOT
BRANCH   7  20
ATOM     19  N   UNL     1     145.314 121.803  93.997  0.00  0.00    +0.000 NA
ATOM     20  C   UNL     1     143.680 122.361  95.718  0.00  0.00    +0.000 A 
ATOM     21  C   UNL     1     143.019 121.165  95.432  0.00  0.00    +0.000 A 
ATOM     22  C   UNL     1     144.820 122.613  94.960  0.00  0.00    +0.000 A 
ATOM     23  C   UNL     1     143.486 120.297  94.452  0.00  0.00    +0.000 A 
ATOM     24  C   UNL     1     144.632 120.662  93.768  0.00  0.00    +0.000 A 
ENDBRANCH   7  20
TORSDOF 1
ENDMDL
