MODEL 1
REMARK VINA RESULT:      -6.3      0.000      0.000
REMARK  Name = Leptomycin.pdbqt.pdb
REMARK  12 active torsions:
REMARK  status: ('A' for Active; 'I' for Inactive)
REMARK    1  A    between atoms: C_2  and  C_4
REMARK    2  A    between atoms: C_5  and  C_6
REMARK    3  A    between atoms: C_6  and  C_7
REMARK    4  A    between atoms: C_10  and  C_11
REMARK    5  A    between atoms: C_10  and  C_21
REMARK    6  A    between atoms: C_12  and  C_13
REMARK    7  A    between atoms: C_23  and  C_25
REMARK    8  A    between atoms: C_25  and  C_27
REMARK    9  A    between atoms: C_27  and  C_29
REMARK   10  A    between atoms: C_29  and  O_30
REMARK   11  A    between atoms: C_29  and  C_32
REMARK   12  A    between atoms: C_38  and  O_40
REMARK                            x       y       z     vdW  Elec       q    Type
REMARK                         _______ _______ _______ _____ _____    ______ ____
ROOT
ATOM      1  C   UNL     1     145.057 114.751 112.819  0.00  0.00    +0.000 C 
ATOM      2  C   UNL     1     146.181 114.140 113.013  0.00  0.00    +0.000 C 
ATOM      3  C   UNL     1     146.195 112.909 113.871  0.00  0.00    +0.000 C 
ATOM      4  C   UNL     1     143.846 115.430 112.532  0.00  0.00    +0.000 C 
ATOM      5  C   UNL     1     143.370 116.387 113.614  0.00  0.00    +0.000 C 
ENDROOT
BRANCH   2   6
ATOM      6  C   UNL     1     147.227 114.322 112.074  0.00  0.00    +0.000 C 
ATOM      7  C   UNL     1     148.117 114.411 111.272  0.00  0.00    +0.000 C 
BRANCH   7   8
ATOM      8  C   UNL     1     149.254 114.399 110.246  0.00  0.00    +0.000 C 
BRANCH   8   9
ATOM      9  C   UNL     1     150.303 114.187 109.318  0.00  0.00    +0.000 C 
ATOM     10  C   UNL     1     151.724 114.232 109.786  0.00  0.00    +0.000 C 
ATOM     11  C   UNL     1     150.040 114.042 107.934  0.00  0.00    +0.000 C 
ATOM     12  C   UNL     1     149.611 113.946 106.712  0.00  0.00    +0.000 C 
BRANCH  12  13
ATOM     13  C   UNL     1     148.218 114.159 106.532  0.00  0.00    +0.000 C 
ATOM     14  C   UNL     1     147.056 114.455 106.452  0.00  0.00    +0.000 C 
BRANCH  14  15
ATOM     15  C   UNL     1     145.717 114.921 106.425  0.00  0.00    +0.000 A 
ATOM     16  O   UNL     1     145.440 116.149 107.163  0.00  0.00    +0.000 OA
ATOM     17  C   UNL     1     144.175 116.729 107.188  0.00  0.00    +0.000 A 
ATOM     18  O   UNL     1     143.899 117.773 107.760  0.00  0.00    +0.000 OA
ATOM     19  C   UNL     1     143.225 115.963 106.436  0.00  0.00    +0.000 A 
ATOM     20  C   UNL     1     143.399 114.954 105.823  0.00  0.00    +0.000 A 
ATOM     21  C   UNL     1     144.625 114.262 105.699  0.00  0.00    +0.000 A 
ATOM     22  C   UNL     1     144.734 113.027 104.862  0.00  0.00    +0.000 C 
ENDBRANCH  14  15
ENDBRANCH  12  13
BRANCH  12  23
ATOM     23  C   UNL     1     150.533 113.666 105.674  0.00  0.00    +0.000 C 
ATOM     24  C   UNL     1     151.527 113.357 104.548  0.00  0.00    +0.000 C 
ENDBRANCH  12  23
ENDBRANCH   8   9
ENDBRANCH   7   8
ENDBRANCH   2   6
BRANCH   4  25
ATOM     25  C   UNL     1     143.438 115.613 111.105  0.00  0.00    +0.000 C 
ATOM     26  O   UNL     1     143.271 116.730 110.604  0.00  0.00    +0.000 OA
BRANCH  25  27
ATOM     27  C   UNL     1     143.177 114.375 110.309  0.00  0.00    +0.000 C 
ATOM     28  C   UNL     1     144.326 113.705 109.559  0.00  0.00    +0.000 C 
BRANCH  27  29
ATOM     29  C   UNL     1     141.793 114.006 110.027  0.00  0.00    +0.000 C 
BRANCH  29  30
ATOM     30  C   UNL     1     140.707 113.783 110.963  0.00  0.00    +0.000 C 
ATOM     31  C   UNL     1     140.278 112.375 111.316  0.00  0.00    +0.000 C 
ATOM     32  C   UNL     1     140.108 114.809 111.730  0.00  0.00    +0.000 C 
ATOM     33  C   UNL     1     139.461 115.790 112.511  0.00  0.00    +0.000 C 
ATOM     34  C   UNL     1     139.128 117.108 111.883  0.00  0.00    +0.000 C 
ATOM     35  C   UNL     1     139.268 115.596 113.770  0.00  0.00    +0.000 C 
ATOM     36  C   UNL     1     139.081 115.368 115.161  0.00  0.00    +0.000 C 
ATOM     37  O   UNL     1     140.004 115.175 115.930  0.00  0.00    +0.000 OA
BRANCH  36  38
ATOM     38  O   UNL     1     137.795 115.363 115.547  0.00  0.00    +0.000 OA
ATOM     39  H   UNL     1     137.825 115.584 116.501  0.00  0.00    +0.000 HD
ENDBRANCH  36  38
ENDBRANCH  29  30
BRANCH  29  40
ATOM     40  O   UNL     1     141.462 113.889 108.675  0.00  0.00    +0.000 OA
ATOM     41  H   UNL     1     141.511 114.750 108.210  0.00  0.00    +0.000 HD
ENDBRANCH  29  40
ENDBRANCH  27  29
ENDBRANCH  25  27
ENDBRANCH   4  25
TORSDOF 12
ENDMDL
MODEL 2
REMARK VINA RESULT:      -6.2     17.055     20.416
REMARK  Name = Leptomycin.pdbqt.pdb
REMARK  12 active torsions:
REMARK  status: ('A' for Active; 'I' for Inactive)
REMARK    1  A    between atoms: C_2  and  C_4
REMARK    2  A    between atoms: C_5  and  C_6
REMARK    3  A    between atoms: C_6  and  C_7
REMARK    4  A    between atoms: C_10  and  C_11
REMARK    5  A    between atoms: C_10  and  C_21
REMARK    6  A    between atoms: C_12  and  C_13
REMARK    7  A    between atoms: C_23  and  C_25
REMARK    8  A    between atoms: C_25  and  C_27
REMARK    9  A    between atoms: C_27  and  C_29
REMARK   10  A    between atoms: C_29  and  O_30
REMARK   11  A    between atoms: C_29  and  C_32
REMARK   12  A    between atoms: C_38  and  O_40
REMARK                            x       y       z     vdW  Elec       q    Type
REMARK                         _______ _______ _______ _____ _____    ______ ____
ROOT
ATOM      1  C   UNL     1     157.380 130.104 119.433  0.00  0.00    +0.000 C 
ATOM      2  C   UNL     1     156.977 129.684 118.279  0.00  0.00    +0.000 C 
ATOM      3  C   UNL     1     157.030 130.625 117.110  0.00  0.00    +0.000 C 
ATOM      4  C   UNL     1     157.855 130.496 120.710  0.00  0.00    +0.000 C 
ATOM      5  C   UNL     1     156.878 131.311 121.542  0.00  0.00    +0.000 C 
ENDROOT
BRANCH   2   6
ATOM      6  C   UNL     1     156.969 128.289 118.025  0.00  0.00    +0.000 C 
ATOM      7  C   UNL     1     156.958 127.097 117.874  0.00  0.00    +0.000 C 
BRANCH   7   8
ATOM      8  C   UNL     1     156.937 125.568 117.808  0.00  0.00    +0.000 C 
BRANCH   8   9
ATOM      9  C   UNL     1     156.718 124.170 117.750  0.00  0.00    +0.000 C 
ATOM     10  C   UNL     1     157.613 123.249 118.521  0.00  0.00    +0.000 C 
ATOM     11  C   UNL     1     155.738 123.615 116.891  0.00  0.00    +0.000 C 
ATOM     12  C   UNL     1     154.812 123.292 116.040  0.00  0.00    +0.000 C 
BRANCH  12  13
ATOM     13  C   UNL     1     154.274 124.366 115.280  0.00  0.00    +0.000 C 
ATOM     14  C   UNL     1     153.943 125.331 114.647  0.00  0.00    +0.000 C 
BRANCH  14  15
ATOM     15  C   UNL     1     153.684 126.515 113.910  0.00  0.00    +0.000 A 
ATOM     16  O   UNL     1     153.509 126.359 112.470  0.00  0.00    +0.000 OA
ATOM     17  C   UNL     1     153.216 127.437 111.638  0.00  0.00    +0.000 A 
ATOM     18  O   UNL     1     153.025 127.354 110.434  0.00  0.00    +0.000 OA
ATOM     19  C   UNL     1     153.141 128.666 112.370  0.00  0.00    +0.000 A 
ATOM     20  C   UNL     1     153.281 128.847 113.541  0.00  0.00    +0.000 A 
ATOM     21  C   UNL     1     153.567 127.852 114.503  0.00  0.00    +0.000 A 
ATOM     22  C   UNL     1     153.675 128.191 115.956  0.00  0.00    +0.000 C 
ENDBRANCH  14  15
ENDBRANCH  12  13
BRANCH  12  23
ATOM     23  C   UNL     1     154.429 121.934 115.915  0.00  0.00    +0.000 C 
ATOM     24  C   UNL     1     154.015 120.464 115.773  0.00  0.00    +0.000 C 
ENDBRANCH  12  23
ENDBRANCH   8   9
ENDBRANCH   7   8
ENDBRANCH   2   6
BRANCH   4  25
ATOM     25  C   UNL     1     158.938 129.693 121.359  0.00  0.00    +0.000 C 
ATOM     26  O   UNL     1     159.974 130.209 121.792  0.00  0.00    +0.000 OA
BRANCH  25  27
ATOM     27  C   UNL     1     158.745 128.212 121.414  0.00  0.00    +0.000 C 
ATOM     28  C   UNL     1     157.545 127.636 122.163  0.00  0.00    +0.000 C 
BRANCH  27  29
ATOM     29  C   UNL     1     159.851 127.349 121.012  0.00  0.00    +0.000 C 
BRANCH  29  30
ATOM     30  C   UNL     1     160.392 127.132 119.682  0.00  0.00    +0.000 C 
ATOM     31  C   UNL     1     160.705 125.730 119.203  0.00  0.00    +0.000 C 
ATOM     32  C   UNL     1     160.495 128.145 118.701  0.00  0.00    +0.000 C 
ATOM     33  C   UNL     1     160.637 129.114 117.686  0.00  0.00    +0.000 C 
ATOM     34  C   UNL     1     161.131 130.479 118.056  0.00  0.00    +0.000 C 
ATOM     35  C   UNL     1     160.237 128.864 116.487  0.00  0.00    +0.000 C 
ATOM     36  C   UNL     1     159.773 128.573 115.175  0.00  0.00    +0.000 C 
ATOM     37  O   UNL     1     158.615 128.294 114.930  0.00  0.00    +0.000 OA
BRANCH  36  38
ATOM     38  O   UNL     1     160.730 128.613 114.235  0.00  0.00    +0.000 OA
ATOM     39  H   UNL     1     160.261 128.412 113.399  0.00  0.00    +0.000 HD
ENDBRANCH  36  38
ENDBRANCH  29  30
BRANCH  29  40
ATOM     40  O   UNL     1     160.498 126.672 122.048  0.00  0.00    +0.000 OA
ATOM     41  H   UNL     1     161.014 125.906 121.720  0.00  0.00    +0.000 HD
ENDBRANCH  29  40
ENDBRANCH  27  29
ENDBRANCH  25  27
ENDBRANCH   4  25
TORSDOF 12
ENDMDL
MODEL 3
REMARK VINA RESULT:      -6.2      2.610      5.749
REMARK  Name = Leptomycin.pdbqt.pdb
REMARK  12 active torsions:
REMARK  status: ('A' for Active; 'I' for Inactive)
REMARK    1  A    between atoms: C_2  and  C_4
REMARK    2  A    between atoms: C_5  and  C_6
REMARK    3  A    between atoms: C_6  and  C_7
REMARK    4  A    between atoms: C_10  and  C_11
REMARK    5  A    between atoms: C_10  and  C_21
REMARK    6  A    between atoms: C_12  and  C_13
REMARK    7  A    between atoms: C_23  and  C_25
REMARK    8  A    between atoms: C_25  and  C_27
REMARK    9  A    between atoms: C_27  and  C_29
REMARK   10  A    between atoms: C_29  and  O_30
REMARK   11  A    between atoms: C_29  and  C_32
REMARK   12  A    between atoms: C_38  and  O_40
REMARK                            x       y       z     vdW  Elec       q    Type
REMARK                         _______ _______ _______ _____ _____    ______ ____
ROOT
ATOM      1  C   UNL     1     142.914 114.386 112.141  0.00  0.00    +0.000 C 
ATOM      2  C   UNL     1     143.574 113.461 112.759  0.00  0.00    +0.000 C 
ATOM      3  C   UNL     1     143.105 112.040 112.641  0.00  0.00    +0.000 C 
ATOM      4  C   UNL     1     142.260 115.433 111.444  0.00  0.00    +0.000 C 
ATOM      5  C   UNL     1     141.006 115.971 112.115  0.00  0.00    +0.000 C 
ENDROOT
BRANCH   2   6
ATOM      6  C   UNL     1     144.928 113.701 113.101  0.00  0.00    +0.000 C 
ATOM      7  C   UNL     1     146.090 113.844 113.368  0.00  0.00    +0.000 C 
BRANCH   7   8
ATOM      8  C   UNL     1     147.591 113.910 113.667  0.00  0.00    +0.000 C 
BRANCH   8   9
ATOM      9  C   UNL     1     148.965 113.775 113.984  0.00  0.00    +0.000 C 
ATOM     10  C   UNL     1     149.408 113.887 115.410  0.00  0.00    +0.000 C 
ATOM     11  C   UNL     1     149.943 113.644 112.968  0.00  0.00    +0.000 C 
ATOM     12  C   UNL     1     150.691 113.550 111.911  0.00  0.00    +0.000 C 
BRANCH  12  13
ATOM     13  C   UNL     1     150.017 113.691 110.668  0.00  0.00    +0.000 C 
ATOM     14  C   UNL     1     149.350 113.878 109.687  0.00  0.00    +0.000 C 
BRANCH  14  15
ATOM     15  C   UNL     1     148.477 114.171 108.608  0.00  0.00    +0.000 A 
ATOM     16  O   UNL     1     148.357 115.576 108.232  0.00  0.00    +0.000 OA
ATOM     17  C   UNL     1     147.559 115.992 107.169  0.00  0.00    +0.000 A 
ATOM     18  O   UNL     1     147.452 117.149 106.792  0.00  0.00    +0.000 OA
ATOM     19  C   UNL     1     146.887 114.890 106.546  0.00  0.00    +0.000 A 
ATOM     20  C   UNL     1     146.947 113.730 106.820  0.00  0.00    +0.000 A 
ATOM     21  C   UNL     1     147.720 113.162 107.857  0.00  0.00    +0.000 A 
ATOM     22  C   UNL     1     147.753 111.683 108.076  0.00  0.00    +0.000 C 
ENDBRANCH  14  15
ENDBRANCH  12  13
BRANCH  12  23
ATOM     23  C   UNL     1     152.084 113.342 112.064  0.00  0.00    +0.000 C 
ATOM     24  C   UNL     1     153.590 113.110 112.235  0.00  0.00    +0.000 C 
ENDBRANCH  12  23
ENDBRANCH   8   9
ENDBRANCH   7   8
ENDBRANCH   2   6
BRANCH   4  25
ATOM     25  C   UNL     1     143.049 116.277 110.494  0.00  0.00    +0.000 C 
ATOM     26  O   UNL     1     142.966 117.509 110.480  0.00  0.00    +0.000 OA
BRANCH  25  27
ATOM     27  C   UNL     1     143.911 115.560 109.505  0.00  0.00    +0.000 C 
ATOM     28  C   UNL     1     145.259 114.997 109.949  0.00  0.00    +0.000 C 
BRANCH  27  29
ATOM     29  C   UNL     1     143.586 115.672 108.087  0.00  0.00    +0.000 C 
BRANCH  29  30
ATOM     30  C   UNL     1     143.232 114.617 107.154  0.00  0.00    +0.000 C 
ATOM     31  C   UNL     1     142.736 114.959 105.765  0.00  0.00    +0.000 C 
ATOM     32  C   UNL     1     143.485 113.245 107.386  0.00  0.00    +0.000 C 
ATOM     33  C   UNL     1     143.696 111.862 107.567  0.00  0.00    +0.000 C 
ATOM     34  C   UNL     1     143.423 111.260 108.910  0.00  0.00    +0.000 C 
ATOM     35  C   UNL     1     144.227 111.157 106.627  0.00  0.00    +0.000 C 
ATOM     36  C   UNL     1     144.828 110.402 105.584  0.00  0.00    +0.000 C 
ATOM     37  O   UNL     1     145.935 110.648 105.143  0.00  0.00    +0.000 OA
BRANCH  36  38
ATOM     38  O   UNL     1     144.059 109.407 105.114  0.00  0.00    +0.000 OA
ATOM     39  H   UNL     1     143.963 108.793 105.872  0.00  0.00    +0.000 HD
ENDBRANCH  36  38
ENDBRANCH  29  30
BRANCH  29  40
ATOM     40  O   UNL     1     143.578 116.968 107.567  0.00  0.00    +0.000 OA
ATOM     41  H   UNL     1     143.353 117.635 108.249  0.00  0.00    +0.000 HD
ENDBRANCH  29  40
ENDBRANCH  27  29
ENDBRANCH  25  27
ENDBRANCH   4  25
TORSDOF 12
ENDMDL
MODEL 4
REMARK VINA RESULT:      -6.2      2.930      7.187
REMARK  Name = Leptomycin.pdbqt.pdb
REMARK  12 active torsions:
REMARK  status: ('A' for Active; 'I' for Inactive)
REMARK    1  A    between atoms: C_2  and  C_4
REMARK    2  A    between atoms: C_5  and  C_6
REMARK    3  A    between atoms: C_6  and  C_7
REMARK    4  A    between atoms: C_10  and  C_11
REMARK    5  A    between atoms: C_10  and  C_21
REMARK    6  A    between atoms: C_12  and  C_13
REMARK    7  A    between atoms: C_23  and  C_25
REMARK    8  A    between atoms: C_25  and  C_27
REMARK    9  A    between atoms: C_27  and  C_29
REMARK   10  A    between atoms: C_29  and  O_30
REMARK   11  A    between atoms: C_29  and  C_32
REMARK   12  A    between atoms: C_38  and  O_40
REMARK                            x       y       z     vdW  Elec       q    Type
REMARK                         _______ _______ _______ _____ _____    ______ ____
ROOT
ATOM      1  C   UNL     1     146.837 113.250 113.684  0.00  0.00    +0.000 C 
ATOM      2  C   UNL     1     146.317 114.362 113.276  0.00  0.00    +0.000 C 
ATOM      3  C   UNL     1     147.192 115.346 112.556  0.00  0.00    +0.000 C 
ATOM      4  C   UNL     1     147.342 111.996 114.109  0.00  0.00    +0.000 C 
ATOM      5  C   UNL     1     148.106 112.018 115.423  0.00  0.00    +0.000 C 
ENDROOT
BRANCH   2   6
ATOM      6  C   UNL     1     144.916 114.425 113.070  0.00  0.00    +0.000 C 
ATOM      7  C   UNL     1     143.721 114.436 112.945  0.00  0.00    +0.000 C 
BRANCH   7   8
ATOM      8  C   UNL     1     142.193 114.366 112.878  0.00  0.00    +0.000 C 
BRANCH   8   9
ATOM      9  C   UNL     1     140.782 114.365 113.008  0.00  0.00    +0.000 C 
ATOM     10  C   UNL     1     140.166 114.400 114.372  0.00  0.00    +0.000 C 
ATOM     11  C   UNL     1     139.942 114.221 111.877  0.00  0.00    +0.000 C 
ATOM     12  C   UNL     1     139.338 114.066 110.738  0.00  0.00    +0.000 C 
BRANCH  12  13
ATOM     13  C   UNL     1     140.184 113.838 109.620  0.00  0.00    +0.000 C 
ATOM     14  C   UNL     1     140.787 113.658 108.597  0.00  0.00    +0.000 C 
BRANCH  14  15
ATOM     15  C   UNL     1     141.380 113.470 107.322  0.00  0.00    +0.000 A 
ATOM     16  O   UNL     1     141.936 114.658 106.683  0.00  0.00    +0.000 OA
ATOM     17  C   UNL     1     142.575 114.603 105.447  0.00  0.00    +0.000 A 
ATOM     18  O   UNL     1     143.088 115.559 104.886  0.00  0.00    +0.000 OA
ATOM     19  C   UNL     1     142.583 113.274 104.912  0.00  0.00    +0.000 A 
ATOM     20  C   UNL     1     142.138 112.275 105.391  0.00  0.00    +0.000 A 
ATOM     21  C   UNL     1     141.479 112.177 106.637  0.00  0.00    +0.000 A 
ATOM     22  C   UNL     1     141.004 110.858 107.158  0.00  0.00    +0.000 C 
ENDBRANCH  14  15
ENDBRANCH  12  13
BRANCH  12  23
ATOM     23  C   UNL     1     137.922 114.111 110.693  0.00  0.00    +0.000 C 
ATOM     24  C   UNL     1     136.391 114.163 110.637  0.00  0.00    +0.000 C 
ENDBRANCH  12  23
ENDBRANCH   8   9
ENDBRANCH   7   8
ENDBRANCH   2   6
BRANCH   4  25
ATOM     25  C   UNL     1     146.683 110.745 113.621  0.00  0.00    +0.000 C 
ATOM     26  O   UNL     1     147.210 109.633 113.732  0.00  0.00    +0.000 OA
BRANCH  25  27
ATOM     27  C   UNL     1     145.367 110.897 112.929  0.00  0.00    +0.000 C 
ATOM     28  C   UNL     1     144.079 110.886 113.749  0.00  0.00    +0.000 C 
BRANCH  27  29
ATOM     29  C   UNL     1     145.322 110.756 111.477  0.00  0.00    +0.000 C 
BRANCH  29  30
ATOM     30  C   UNL     1     144.561 111.533 110.515  0.00  0.00    +0.000 C 
ATOM     31  C   UNL     1     143.134 111.153 110.181  0.00  0.00    +0.000 C 
ATOM     32  C   UNL     1     145.003 112.762 109.973  0.00  0.00    +0.000 C 
ATOM     33  C   UNL     1     145.395 113.984 109.387  0.00  0.00    +0.000 C 
ATOM     34  C   UNL     1     146.815 114.145 108.937  0.00  0.00    +0.000 C 
ATOM     35  C   UNL     1     144.578 114.979 109.349  0.00  0.00    +0.000 C 
ATOM     36  C   UNL     1     143.666 116.070 109.333  0.00  0.00    +0.000 C 
ATOM     37  O   UNL     1     143.197 116.554 110.346  0.00  0.00    +0.000 OA
BRANCH  36  38
ATOM     38  O   UNL     1     143.352 116.504 108.102  0.00  0.00    +0.000 OA
ATOM     39  H   UNL     1     142.402 116.736 108.159  0.00  0.00    +0.000 HD
ENDBRANCH  36  38
ENDBRANCH  29  30
BRANCH  29  40
ATOM     40  O   UNL     1     146.149 109.767 110.939  0.00  0.00    +0.000 OA
ATOM     41  H   UNL     1     145.821 108.866 111.140  0.00  0.00    +0.000 HD
ENDBRANCH  29  40
ENDBRANCH  27  29
ENDBRANCH  25  27
ENDBRANCH   4  25
TORSDOF 12
ENDMDL
MODEL 5
REMARK VINA RESULT:      -6.1      5.999     13.067
REMARK  Name = Leptomycin.pdbqt.pdb
REMARK  12 active torsions:
REMARK  status: ('A' for Active; 'I' for Inactive)
REMARK    1  A    between atoms: C_2  and  C_4
REMARK    2  A    between atoms: C_5  and  C_6
REMARK    3  A    between atoms: C_6  and  C_7
REMARK    4  A    between atoms: C_10  and  C_11
REMARK    5  A    between atoms: C_10  and  C_21
REMARK    6  A    between atoms: C_12  and  C_13
REMARK    7  A    between atoms: C_23  and  C_25
REMARK    8  A    between atoms: C_25  and  C_27
REMARK    9  A    between atoms: C_27  and  C_29
REMARK   10  A    between atoms: C_29  and  O_30
REMARK   11  A    between atoms: C_29  and  C_32
REMARK   12  A    between atoms: C_38  and  O_40
REMARK                            x       y       z     vdW  Elec       q    Type
REMARK                         _______ _______ _______ _____ _____    ______ ____
ROOT
ATOM      1  C   UNL     1     135.272 115.218 116.511  0.00  0.00    +0.000 C 
ATOM      2  C   UNL     1     134.233 115.769 117.050  0.00  0.00    +0.000 C 
ATOM      3  C   UNL     1     133.952 115.510 118.502  0.00  0.00    +0.000 C 
ATOM      4  C   UNL     1     136.423 114.680 115.882  0.00  0.00    +0.000 C 
ATOM      5  C   UNL     1     136.295 113.236 115.424  0.00  0.00    +0.000 C 
ENDROOT
BRANCH   2   6
ATOM      6  C   UNL     1     133.692 116.934 116.453  0.00  0.00    +0.000 C 
ATOM      7  C   UNL     1     133.294 117.939 115.927  0.00  0.00    +0.000 C 
BRANCH   7   8
ATOM      8  C   UNL     1     132.905 119.245 115.228  0.00  0.00    +0.000 C 
BRANCH   8   9
ATOM      9  C   UNL     1     132.404 120.469 114.723  0.00  0.00    +0.000 C 
ATOM     10  C   UNL     1     132.358 121.672 115.614  0.00  0.00    +0.000 C 
ATOM     11  C   UNL     1     131.842 120.553 113.426  0.00  0.00    +0.000 C 
ATOM     12  C   UNL     1     131.356 120.435 112.228  0.00  0.00    +0.000 C 
BRANCH  12  13
ATOM     13  C   UNL     1     131.333 119.116 111.701  0.00  0.00    +0.000 C 
ATOM     14  C   UNL     1     131.438 117.984 111.313  0.00  0.00    +0.000 C 
BRANCH  14  15
ATOM     15  C   UNL     1     131.681 116.641 110.926  0.00  0.00    +0.000 A 
ATOM     16  O   UNL     1     130.914 116.144 109.788  0.00  0.00    +0.000 OA
ATOM     17  C   UNL     1     131.083 114.856 109.287  0.00  0.00    +0.000 A 
ATOM     18  O   UNL     1     130.495 114.404 108.317  0.00  0.00    +0.000 OA
ATOM     19  C   UNL     1     132.057 114.118 110.037  0.00  0.00    +0.000 A 
ATOM     20  C   UNL     1     132.703 114.476 110.975  0.00  0.00    +0.000 A 
ATOM     21  C   UNL     1     132.648 115.752 111.580  0.00  0.00    +0.000 A 
ATOM     22  C   UNL     1     133.543 116.103 112.726  0.00  0.00    +0.000 C 
ENDBRANCH  14  15
ENDBRANCH  12  13
BRANCH  12  23
ATOM     23  C   UNL     1     130.876 121.588 111.558  0.00  0.00    +0.000 C 
ATOM     24  C   UNL     1     130.349 122.833 110.834  0.00  0.00    +0.000 C 
ENDBRANCH  12  23
ENDBRANCH   8   9
ENDBRANCH   7   8
ENDBRANCH   2   6
BRANCH   4  25
ATOM     25  C   UNL     1     137.398 115.612 115.234  0.00  0.00    +0.000 C 
ATOM     26  O   UNL     1     137.117 116.788 114.979  0.00  0.00    +0.000 OA
BRANCH  25  27
ATOM     27  C   UNL     1     138.724 115.044 114.846  0.00  0.00    +0.000 C 
ATOM     28  C   UNL     1     139.884 115.092 115.838  0.00  0.00    +0.000 C 
BRANCH  27  29
ATOM     29  C   UNL     1     138.965 114.730 113.441  0.00  0.00    +0.000 C 
BRANCH  29  30
ATOM     30  C   UNL     1     139.272 115.638 112.350  0.00  0.00    +0.000 C 
ATOM     31  C   UNL     1     138.191 116.518 111.760  0.00  0.00    +0.000 C 
ATOM     32  C   UNL     1     140.584 115.899 111.891  0.00  0.00    +0.000 C 
ATOM     33  C   UNL     1     141.866 116.189 111.380  0.00  0.00    +0.000 C 
ATOM     34  C   UNL     1     142.842 115.067 111.200  0.00  0.00    +0.000 C 
ATOM     35  C   UNL     1     142.227 117.411 111.185  0.00  0.00    +0.000 C 
ATOM     36  C   UNL     1     142.611 118.766 110.993  0.00  0.00    +0.000 C 
ATOM     37  O   UNL     1     142.643 119.579 111.898  0.00  0.00    +0.000 OA
BRANCH  36  38
ATOM     38  O   UNL     1     142.915 119.075 109.723  0.00  0.00    +0.000 OA
ATOM     39  H   UNL     1     143.014 120.049 109.724  0.00  0.00    +0.000 HD
ENDBRANCH  36  38
ENDBRANCH  29  30
BRANCH  29  40
ATOM     40  O   UNL     1     138.931 113.374 113.110  0.00  0.00    +0.000 OA
ATOM     41  H   UNL     1     139.457 112.831 113.733  0.00  0.00    +0.000 HD
ENDBRANCH  29  40
ENDBRANCH  27  29
ENDBRANCH  25  27
ENDBRANCH   4  25
TORSDOF 12
ENDMDL
MODEL 6
REMARK VINA RESULT:      -6.0     31.417     37.093
REMARK  Name = Leptomycin.pdbqt.pdb
REMARK  12 active torsions:
REMARK  status: ('A' for Active; 'I' for Inactive)
REMARK    1  A    between atoms: C_2  and  C_4
REMARK    2  A    between atoms: C_5  and  C_6
REMARK    3  A    between atoms: C_6  and  C_7
REMARK    4  A    between atoms: C_10  and  C_11
REMARK    5  A    between atoms: C_10  and  C_21
REMARK    6  A    between atoms: C_12  and  C_13
REMARK    7  A    between atoms: C_23  and  C_25
REMARK    8  A    between atoms: C_25  and  C_27
REMARK    9  A    between atoms: C_27  and  C_29
REMARK   10  A    between atoms: C_29  and  O_30
REMARK   11  A    between atoms: C_29  and  C_32
REMARK   12  A    between atoms: C_38  and  O_40
REMARK                            x       y       z     vdW  Elec       q    Type
REMARK                         _______ _______ _______ _____ _____    ______ ____
ROOT
ATOM      1  C   UNL     1     131.146 137.477 140.819  0.00  0.00    +0.000 C 
ATOM      2  C   UNL     1     131.971 137.745 139.860  0.00  0.00    +0.000 C 
ATOM      3  C   UNL     1     131.780 139.012 139.077  0.00  0.00    +0.000 C 
ATOM      4  C   UNL     1     130.302 137.159 141.913  0.00  0.00    +0.000 C 
ATOM      5  C   UNL     1     128.971 136.526 141.539  0.00  0.00    +0.000 C 
ENDROOT
BRANCH   2   6
ATOM      6  C   UNL     1     133.256 137.148 139.879  0.00  0.00    +0.000 C 
ATOM      7  C   UNL     1     134.356 136.670 139.954  0.00  0.00    +0.000 C 
BRANCH   7   8
ATOM      8  C   UNL     1     135.770 136.120 140.159  0.00  0.00    +0.000 C 
BRANCH   8   9
ATOM      9  C   UNL     1     137.033 135.608 140.546  0.00  0.00    +0.000 C 
ATOM     10  C   UNL     1     137.569 135.916 141.909  0.00  0.00    +0.000 C 
ATOM     11  C   UNL     1     137.851 134.902 139.629  0.00  0.00    +0.000 C 
ATOM     12  C   UNL     1     138.461 134.297 138.656  0.00  0.00    +0.000 C 
BRANCH  12  13
ATOM     13  C   UNL     1     137.805 134.343 137.397  0.00  0.00    +0.000 C 
ATOM     14  C   UNL     1     137.365 134.326 136.280  0.00  0.00    +0.000 C 
BRANCH  14  15
ATOM     15  C   UNL     1     136.961 134.241 134.922  0.00  0.00    +0.000 A 
ATOM     16  O   UNL     1     137.169 132.958 134.261  0.00  0.00    +0.000 OA
ATOM     17  C   UNL     1     136.786 132.734 132.941  0.00  0.00    +0.000 A 
ATOM     18  O   UNL     1     136.904 131.670 132.353  0.00  0.00    +0.000 OA
ATOM     19  C   UNL     1     136.207 133.904 132.351  0.00  0.00    +0.000 A 
ATOM     20  C   UNL     1     136.021 134.975 132.845  0.00  0.00    +0.000 A 
ATOM     21  C   UNL     1     136.345 135.341 134.171  0.00  0.00    +0.000 A 
ATOM     22  C   UNL     1     136.021 136.703 134.697  0.00  0.00    +0.000 C 
ENDBRANCH  14  15
ENDBRANCH  12  13
BRANCH  12  23
ATOM     23  C   UNL     1     139.708 133.671 138.903  0.00  0.00    +0.000 C 
ATOM     24  C   UNL     1     141.056 132.989 139.165  0.00  0.00    +0.000 C 
ENDBRANCH  12  23
ENDBRANCH   8   9
ENDBRANCH   7   8
ENDBRANCH   2   6
BRANCH   4  25
ATOM     25  C   UNL     1     130.913 136.933 143.259  0.00  0.00    +0.000 C 
ATOM     26  O   UNL     1     130.561 137.568 144.259  0.00  0.00    +0.000 OA
BRANCH  25  27
ATOM     27  C   UNL     1     132.024 135.937 143.343  0.00  0.00    +0.000 C 
ATOM     28  C   UNL     1     133.438 136.411 143.668  0.00  0.00    +0.000 C 
BRANCH  27  29
ATOM     29  C   UNL     1     131.794 134.591 142.826  0.00  0.00    +0.000 C 
BRANCH  29  30
ATOM     30  C   UNL     1     132.339 133.975 141.630  0.00  0.00    +0.000 C 
ATOM     31  C   UNL     1     133.707 133.327 141.659  0.00  0.00    +0.000 C 
ATOM     32  C   UNL     1     131.598 133.775 140.442  0.00  0.00    +0.000 C 
ATOM     33  C   UNL     1     130.917 133.561 139.226  0.00  0.00    +0.000 C 
ATOM     34  C   UNL     1     130.026 134.643 138.699  0.00  0.00    +0.000 C 
ATOM     35  C   UNL     1     130.969 132.413 138.644  0.00  0.00    +0.000 C 
ATOM     36  C   UNL     1     131.027 131.133 138.028  0.00  0.00    +0.000 C 
ATOM     37  O   UNL     1     130.641 130.117 138.576  0.00  0.00    +0.000 OA
BRANCH  36  38
ATOM     38  O   UNL     1     131.564 131.141 136.798  0.00  0.00    +0.000 OA
ATOM     39  H   UNL     1     131.358 132.032 136.446  0.00  0.00    +0.000 HD
ENDBRANCH  36  38
ENDBRANCH  29  30
BRANCH  29  40
ATOM     40  O   UNL     1     130.971 133.776 143.606  0.00  0.00    +0.000 OA
ATOM     41  H   UNL     1     131.007 134.019 144.555  0.00  0.00    +0.000 HD
ENDBRANCH  29  40
ENDBRANCH  27  29
ENDBRANCH  25  27
ENDBRANCH   4  25
TORSDOF 12
ENDMDL
MODEL 7
REMARK VINA RESULT:      -6.0     17.756     20.244
REMARK  Name = Leptomycin.pdbqt.pdb
REMARK  12 active torsions:
REMARK  status: ('A' for Active; 'I' for Inactive)
REMARK    1  A    between atoms: C_2  and  C_4
REMARK    2  A    between atoms: C_5  and  C_6
REMARK    3  A    between atoms: C_6  and  C_7
REMARK    4  A    between atoms: C_10  and  C_11
REMARK    5  A    between atoms: C_10  and  C_21
REMARK    6  A    between atoms: C_12  and  C_13
REMARK    7  A    between atoms: C_23  and  C_25
REMARK    8  A    between atoms: C_25  and  C_27
REMARK    9  A    between atoms: C_27  and  C_29
REMARK   10  A    between atoms: C_29  and  O_30
REMARK   11  A    between atoms: C_29  and  C_32
REMARK   12  A    between atoms: C_38  and  O_40
REMARK                            x       y       z     vdW  Elec       q    Type
REMARK                         _______ _______ _______ _____ _____    ______ ____
ROOT
ATOM      1  C   UNL     1     157.317 129.779 119.137  0.00  0.00    +0.000 C 
ATOM      2  C   UNL     1     156.824 129.264 118.057  0.00  0.00    +0.000 C 
ATOM      3  C   UNL     1     156.712 130.126 116.834  0.00  0.00    +0.000 C 
ATOM      4  C   UNL     1     157.896 130.276 120.332  0.00  0.00    +0.000 C 
ATOM      5  C   UNL     1     156.964 131.100 121.207  0.00  0.00    +0.000 C 
ENDROOT
BRANCH   2   6
ATOM      6  C   UNL     1     156.864 127.857 117.893  0.00  0.00    +0.000 C 
ATOM      7  C   UNL     1     156.850 126.659 117.799  0.00  0.00    +0.000 C 
BRANCH   7   8
ATOM      8  C   UNL     1     156.745 125.132 117.769  0.00  0.00    +0.000 C 
BRANCH   8   9
ATOM      9  C   UNL     1     156.571 123.742 117.558  0.00  0.00    +0.000 C 
ATOM     10  C   UNL     1     157.429 122.768 118.303  0.00  0.00    +0.000 C 
ATOM     11  C   UNL     1     155.676 123.257 116.573  0.00  0.00    +0.000 C 
ATOM     12  C   UNL     1     154.829 123.001 115.623  0.00  0.00    +0.000 C 
BRANCH  12  13
ATOM     13  C   UNL     1     154.321 124.134 114.931  0.00  0.00    +0.000 C 
ATOM     14  C   UNL     1     154.005 125.157 114.388  0.00  0.00    +0.000 C 
BRANCH  14  15
ATOM     15  C   UNL     1     153.753 126.417 113.787  0.00  0.00    +0.000 A 
ATOM     16  O   UNL     1     153.669 126.438 112.331  0.00  0.00    +0.000 OA
ATOM     17  C   UNL     1     153.394 127.604 111.621  0.00  0.00    +0.000 A 
ATOM     18  O   UNL     1     153.277 127.669 110.407  0.00  0.00    +0.000 OA
ATOM     19  C   UNL     1     153.237 128.731 112.493  0.00  0.00    +0.000 A 
ATOM     20  C   UNL     1     153.303 128.767 113.684  0.00  0.00    +0.000 A 
ATOM     21  C   UNL     1     153.560 127.667 114.532  0.00  0.00    +0.000 A 
ATOM     22  C   UNL     1     153.572 127.824 116.020  0.00  0.00    +0.000 C 
ENDBRANCH  14  15
ENDBRANCH  12  13
BRANCH  12  23
ATOM     23  C   UNL     1     154.495 121.654 115.336  0.00  0.00    +0.000 C 
ATOM     24  C   UNL     1     154.139 120.197 115.020  0.00  0.00    +0.000 C 
ENDBRANCH  12  23
ENDBRANCH   8   9
ENDBRANCH   7   8
ENDBRANCH   2   6
BRANCH   4  25
ATOM     25  C   UNL     1     159.078 129.569 120.915  0.00  0.00    +0.000 C 
ATOM     26  O   UNL     1     160.238 129.853 120.602  0.00  0.00    +0.000 OA
BRANCH  25  27
ATOM     27  C   UNL     1     158.798 128.447 121.862  0.00  0.00    +0.000 C 
ATOM     28  C   UNL     1     158.182 127.152 121.335  0.00  0.00    +0.000 C 
BRANCH  27  29
ATOM     29  C   UNL     1     158.843 128.716 123.295  0.00  0.00    +0.000 C 
BRANCH  29  30
ATOM     30  C   UNL     1     157.958 128.225 124.337  0.00  0.00    +0.000 C 
ATOM     31  C   UNL     1     158.472 127.267 125.389  0.00  0.00    +0.000 C 
ATOM     32  C   UNL     1     156.651 128.721 124.555  0.00  0.00    +0.000 C 
ATOM     33  C   UNL     1     155.337 129.163 124.813  0.00  0.00    +0.000 C 
ATOM     34  C   UNL     1     154.422 129.420 123.655  0.00  0.00    +0.000 C 
ATOM     35  C   UNL     1     154.972 129.453 126.014  0.00  0.00    +0.000 C 
ATOM     36  C   UNL     1     154.595 129.782 127.345  0.00  0.00    +0.000 C 
ATOM     37  O   UNL     1     155.155 130.645 127.996  0.00  0.00    +0.000 OA
BRANCH  36  38
ATOM     38  O   UNL     1     153.583 129.044 127.827  0.00  0.00    +0.000 OA
ATOM     39  H   UNL     1     153.757 128.987 128.789  0.00  0.00    +0.000 HD
ENDBRANCH  36  38
ENDBRANCH  29  30
BRANCH  29  40
ATOM     40  O   UNL     1     159.899 129.521 123.727  0.00  0.00    +0.000 OA
ATOM     41  H   UNL     1     159.642 130.465 123.782  0.00  0.00    +0.000 HD
ENDBRANCH  29  40
ENDBRANCH  27  29
ENDBRANCH  25  27
ENDBRANCH   4  25
TORSDOF 12
ENDMDL
MODEL 8
REMARK VINA RESULT:      -5.9      2.944      8.607
REMARK  Name = Leptomycin.pdbqt.pdb
REMARK  12 active torsions:
REMARK  status: ('A' for Active; 'I' for Inactive)
REMARK    1  A    between atoms: C_2  and  C_4
REMARK    2  A    between atoms: C_5  and  C_6
REMARK    3  A    between atoms: C_6  and  C_7
REMARK    4  A    between atoms: C_10  and  C_11
REMARK    5  A    between atoms: C_10  and  C_21
REMARK    6  A    between atoms: C_12  and  C_13
REMARK    7  A    between atoms: C_23  and  C_25
REMARK    8  A    between atoms: C_25  and  C_27
REMARK    9  A    between atoms: C_27  and  C_29
REMARK   10  A    between atoms: C_29  and  O_30
REMARK   11  A    between atoms: C_29  and  C_32
REMARK   12  A    between atoms: C_38  and  O_40
REMARK                            x       y       z     vdW  Elec       q    Type
REMARK                         _______ _______ _______ _____ _____    ______ ____
ROOT
ATOM      1  C   UNL     1     144.322 111.660 107.022  0.00  0.00    +0.000 C 
ATOM      2  C   UNL     1     144.980 111.811 108.126  0.00  0.00    +0.000 C 
ATOM      3  C   UNL     1     146.420 111.388 108.170  0.00  0.00    +0.000 C 
ATOM      4  C   UNL     1     143.568 111.564 105.825  0.00  0.00    +0.000 C 
ATOM      5  C   UNL     1     142.995 110.187 105.532  0.00  0.00    +0.000 C 
ENDROOT
BRANCH   2   6
ATOM      6  C   UNL     1     144.528 112.772 109.064  0.00  0.00    +0.000 C 
ATOM      7  C   UNL     1     144.090 113.594 109.823  0.00  0.00    +0.000 C 
BRANCH   7   8
ATOM      8  C   UNL     1     143.432 114.651 110.714  0.00  0.00    +0.000 C 
BRANCH   8   9
ATOM      9  C   UNL     1     142.655 115.590 111.437  0.00  0.00    +0.000 C 
ATOM     10  C   UNL     1     143.337 116.593 112.314  0.00  0.00    +0.000 C 
ATOM     11  C   UNL     1     141.240 115.529 111.433  0.00  0.00    +0.000 C 
ATOM     12  C   UNL     1     139.966 115.309 111.322  0.00  0.00    +0.000 C 
BRANCH  12  13
ATOM     13  C   UNL     1     139.604 114.144 110.594  0.00  0.00    +0.000 C 
ATOM     14  C   UNL     1     139.298 113.093 110.099  0.00  0.00    +0.000 C 
BRANCH  14  15
ATOM     15  C   UNL     1     138.930 111.801 109.642  0.00  0.00    +0.000 A 
ATOM     16  O   UNL     1     137.504 111.560 109.452  0.00  0.00    +0.000 OA
ATOM     17  C   UNL     1     137.014 110.346 108.976  0.00  0.00    +0.000 A 
ATOM     18  O   UNL     1     135.835 110.106 108.766  0.00  0.00    +0.000 OA
ATOM     19  C   UNL     1     138.069 109.406 108.737  0.00  0.00    +0.000 A 
ATOM     20  C   UNL     1     139.245 109.552 108.883  0.00  0.00    +0.000 A 
ATOM     21  C   UNL     1     139.883 110.726 109.342  0.00  0.00    +0.000 A 
ATOM     22  C   UNL     1     141.373 110.808 109.439  0.00  0.00    +0.000 C 
ENDBRANCH  14  15
ENDBRANCH  12  13
BRANCH  12  23
ATOM     23  C   UNL     1     139.052 116.203 111.933  0.00  0.00    +0.000 C 
ATOM     24  C   UNL     1     138.060 117.171 112.588  0.00  0.00    +0.000 C 
ENDBRANCH  12  23
ENDBRANCH   8   9
ENDBRANCH   7   8
ENDBRANCH   2   6
BRANCH   4  25
ATOM     25  C   UNL     1     142.937 112.799 105.264  0.00  0.00    +0.000 C 
ATOM     26  O   UNL     1     142.760 112.957 104.052  0.00  0.00    +0.000 OA
BRANCH  25  27
ATOM     27  C   UNL     1     142.575 113.877 106.234  0.00  0.00    +0.000 C 
ATOM     28  C   UNL     1     141.387 113.679 107.172  0.00  0.00    +0.000 C 
BRANCH  27  29
ATOM     29  C   UNL     1     143.172 115.198 106.062  0.00  0.00    +0.000 C 
BRANCH  29  30
ATOM     30  C   UNL     1     144.227 115.823 106.840  0.00  0.00    +0.000 C 
ATOM     31  C   UNL     1     143.894 116.890 107.861  0.00  0.00    +0.000 C 
ATOM     32  C   UNL     1     145.569 115.378 106.843  0.00  0.00    +0.000 C 
ATOM     33  C   UNL     1     146.925 114.992 106.877  0.00  0.00    +0.000 C 
ATOM     34  C   UNL     1     147.600 114.615 105.594  0.00  0.00    +0.000 C 
ATOM     35  C   UNL     1     147.534 114.853 108.004  0.00  0.00    +0.000 C 
ATOM     36  C   UNL     1     148.182 114.690 109.259  0.00  0.00    +0.000 C 
ATOM     37  O   UNL     1     147.799 113.901 110.103  0.00  0.00    +0.000 OA
BRANCH  36  38
ATOM     38  O   UNL     1     149.239 115.496 109.439  0.00  0.00    +0.000 OA
ATOM     39  H   UNL     1     148.858 116.399 109.460  0.00  0.00    +0.000 HD
ENDBRANCH  36  38
ENDBRANCH  29  30
BRANCH  29  40
ATOM     40  O   UNL     1     142.690 115.944 104.984  0.00  0.00    +0.000 OA
ATOM     41  H   UNL     1     141.751 115.745 104.791  0.00  0.00    +0.000 HD
ENDBRANCH  29  40
ENDBRANCH  27  29
ENDBRANCH  25  27
ENDBRANCH   4  25
TORSDOF 12
ENDMDL
MODEL 9
REMARK VINA RESULT:      -5.9     33.108     38.151
REMARK  Name = Leptomycin.pdbqt.pdb
REMARK  12 active torsions:
REMARK  status: ('A' for Active; 'I' for Inactive)
REMARK    1  A    between atoms: C_2  and  C_4
REMARK    2  A    between atoms: C_5  and  C_6
REMARK    3  A    between atoms: C_6  and  C_7
REMARK    4  A    between atoms: C_10  and  C_11
REMARK    5  A    between atoms: C_10  and  C_21
REMARK    6  A    between atoms: C_12  and  C_13
REMARK    7  A    between atoms: C_23  and  C_25
REMARK    8  A    between atoms: C_25  and  C_27
REMARK    9  A    between atoms: C_27  and  C_29
REMARK   10  A    between atoms: C_29  and  O_30
REMARK   11  A    between atoms: C_29  and  C_32
REMARK   12  A    between atoms: C_38  and  O_40
REMARK                            x       y       z     vdW  Elec       q    Type
REMARK                         _______ _______ _______ _____ _____    ______ ____
ROOT
ATOM      1  C   UNL     1     140.613 123.006 147.868  0.00  0.00    +0.000 C 
ATOM      2  C   UNL     1     140.860 123.464 146.684  0.00  0.00    +0.000 C 
ATOM      3  C   UNL     1     139.750 123.484 145.673  0.00  0.00    +0.000 C 
ATOM      4  C   UNL     1     140.385 122.562 149.195  0.00  0.00    +0.000 C 
ATOM      5  C   UNL     1     140.414 121.054 149.386  0.00  0.00    +0.000 C 
ENDROOT
BRANCH   2   6
ATOM      6  C   UNL     1     141.951 124.351 146.509  0.00  0.00    +0.000 C 
ATOM      7  C   UNL     1     142.866 125.125 146.422  0.00  0.00    +0.000 C 
BRANCH   7   8
ATOM      8  C   UNL     1     144.002 126.152 146.426  0.00  0.00    +0.000 C 
BRANCH   8   9
ATOM      9  C   UNL     1     145.150 126.972 146.549  0.00  0.00    +0.000 C 
ATOM     10  C   UNL     1     145.021 128.338 147.150  0.00  0.00    +0.000 C 
ATOM     11  C   UNL     1     146.399 126.571 146.015  0.00  0.00    +0.000 C 
ATOM     12  C   UNL     1     147.446 126.048 145.455  0.00  0.00    +0.000 C 
BRANCH  12  13
ATOM     13  C   UNL     1     147.227 124.827 144.762  0.00  0.00    +0.000 C 
ATOM     14  C   UNL     1     147.067 123.865 144.060  0.00  0.00    +0.000 C 
BRANCH  14  15
ATOM     15  C   UNL     1     146.913 122.810 143.125  0.00  0.00    +0.000 A 
ATOM     16  O   UNL     1     145.576 122.620 142.573  0.00  0.00    +0.000 OA
ATOM     17  C   UNL     1     145.300 121.642 141.621  0.00  0.00    +0.000 A 
ATOM     18  O   UNL     1     144.208 121.465 141.102  0.00  0.00    +0.000 OA
ATOM     19  C   UNL     1     146.464 120.870 141.300  0.00  0.00    +0.000 A 
ATOM     20  C   UNL     1     147.573 120.982 141.727  0.00  0.00    +0.000 A 
ATOM     21  C   UNL     1     148.002 121.932 142.681  0.00  0.00    +0.000 A 
ATOM     22  C   UNL     1     149.433 122.008 143.107  0.00  0.00    +0.000 C 
ENDBRANCH  14  15
ENDBRANCH  12  13
BRANCH  12  23
ATOM     23  C   UNL     1     148.691 126.717 145.552  0.00  0.00    +0.000 C 
ATOM     24  C   UNL     1     150.041 127.437 145.651  0.00  0.00    +0.000 C 
ENDBRANCH  12  23
ENDBRANCH   8   9
ENDBRANCH   7   8
ENDBRANCH   2   6
BRANCH   4  25
ATOM     25  C   UNL     1     140.680 123.490 150.331  0.00  0.00    +0.000 C 
ATOM     26  O   UNL     1     140.007 123.499 151.367  0.00  0.00    +0.000 OA
BRANCH  25  27
ATOM     27  C   UNL     1     141.799 124.461 150.142  0.00  0.00    +0.000 C 
ATOM     28  C   UNL     1     143.229 123.945 149.999  0.00  0.00    +0.000 C 
BRANCH  27  29
ATOM     29  C   UNL     1     141.544 125.876 150.391  0.00  0.00    +0.000 C 
BRANCH  29  30
ATOM     30  C   UNL     1     141.134 126.902 149.449  0.00  0.00    +0.000 C 
ATOM     31  C   UNL     1     141.958 128.160 149.281  0.00  0.00    +0.000 C 
ATOM     32  C   UNL     1     140.081 126.738 148.519  0.00  0.00    +0.000 C 
ATOM     33  C   UNL     1     139.033 126.640 147.579  0.00  0.00    +0.000 C 
ATOM     34  C   UNL     1     137.745 126.002 147.999  0.00  0.00    +0.000 C 
ATOM     35  C   UNL     1     139.225 126.987 146.353  0.00  0.00    +0.000 C 
ATOM     36  C   UNL     1     139.463 127.359 145.001  0.00  0.00    +0.000 C 
ATOM     37  O   UNL     1     140.311 126.828 144.309  0.00  0.00    +0.000 OA
BRANCH  36  38
ATOM     38  O   UNL     1     138.684 128.361 144.564  0.00  0.00    +0.000 OA
ATOM     39  H   UNL     1     138.824 129.081 145.213  0.00  0.00    +0.000 HD
ENDBRANCH  36  38
ENDBRANCH  29  30
BRANCH  29  40
ATOM     40  O   UNL     1     141.677 126.291 151.718  0.00  0.00    +0.000 OA
ATOM     41  H   UNL     1     140.873 126.749 152.041  0.00  0.00    +0.000 HD
ENDBRANCH  29  40
ENDBRANCH  27  29
ENDBRANCH  25  27
ENDBRANCH   4  25
TORSDOF 12
ENDMDL
