MODEL 1
REMARK VINA RESULT:      -7.3      0.000      0.000
REMARK  Name = Lobelin.pdbqt.pdb
REMARK  3 active torsions:
REMARK  status: ('A' for Active; 'I' for Inactive)
REMARK    1  A    between atoms: C_9  and  O_10
REMARK    2  A    between atoms: C_9  and  C_12
REMARK    3  A    between atoms: C_19  and  C_21
REMARK                            x       y       z     vdW  Elec       q    Type
REMARK                         _______ _______ _______ _____ _____    ______ ____
ROOT
ATOM      1  N   UNL     1     143.231 126.717  98.655  0.00  0.00    +0.000 N 
ATOM      2  C   UNL     1     142.960 126.878  97.231  0.00  0.00    +0.000 C 
ATOM      3  C   UNL     1     142.671 127.659  99.620  0.00  0.00    +0.000 C 
ATOM      4  C   UNL     1     142.099 127.971  96.906  0.00  0.00    +0.000 C 
ATOM      5  C   UNL     1     141.841 128.674  99.052  0.00  0.00    +0.000 C 
ATOM      6  C   UNL     1     141.373 129.067  97.664  0.00  0.00    +0.000 C 
ATOM      7  C   UNL     1     144.156 125.700  99.104  0.00  0.00    +0.000 C 
ATOM      8  C   UNL     1     143.499 126.008  96.245  0.00  0.00    +0.000 C 
ATOM      9  C   UNL     1     144.021 125.120  95.269  0.00  0.00    +0.000 C 
ATOM     10  C   UNL     1     142.925 127.562 101.011  0.00  0.00    +0.000 C 
ATOM     11  C   UNL     1     143.157 127.443 102.427  0.00  0.00    +0.000 C 
ATOM     12  O   UNL     1     142.200 127.428 103.188  0.00  0.00    +0.000 OA
ENDROOT
BRANCH   9  13
ATOM     13  C   UNL     1     143.708 123.692  95.204  0.00  0.00    +0.000 A 
ATOM     14  C   UNL     1     144.504 122.819  94.458  0.00  0.00    +0.000 A 
ATOM     15  C   UNL     1     144.207 121.458  94.395  0.00  0.00    +0.000 A 
ATOM     16  C   UNL     1     143.105 120.956  95.081  0.00  0.00    +0.000 A 
ATOM     17  C   UNL     1     142.302 121.813  95.827  0.00  0.00    +0.000 A 
ATOM     18  C   UNL     1     142.604 123.172  95.886  0.00  0.00    +0.000 A 
ENDBRANCH   9  13
BRANCH  11  19
ATOM     19  C   UNL     1     144.546 127.357 102.908  0.00  0.00    +0.000 A 
ATOM     20  C   UNL     1     144.856 126.733 104.116  0.00  0.00    +0.000 A 
ATOM     21  C   UNL     1     146.180 126.661 104.541  0.00  0.00    +0.000 A 
ATOM     22  C   UNL     1     147.193 127.210 103.758  0.00  0.00    +0.000 A 
ATOM     23  C   UNL     1     146.884 127.830 102.549  0.00  0.00    +0.000 A 
ATOM     24  C   UNL     1     145.560 127.904 102.122  0.00  0.00    +0.000 A 
ENDBRANCH  11  19
BRANCH   9  25
ATOM     25  O   UNL     1     144.874 125.614  94.308  0.00  0.00    +0.000 OA
ATOM     26  H   UNL     1     145.051 124.962  93.610  0.00  0.00    +0.000 HD
ENDBRANCH   9  25
TORSDOF 3
ENDMDL
MODEL 2
REMARK VINA RESULT:      -7.2     14.504     18.119
REMARK  Name = Lobelin.pdbqt.pdb
REMARK  3 active torsions:
REMARK  status: ('A' for Active; 'I' for Inactive)
REMARK    1  A    between atoms: C_9  and  O_10
REMARK    2  A    between atoms: C_9  and  C_12
REMARK    3  A    between atoms: C_19  and  C_21
REMARK                            x       y       z     vdW  Elec       q    Type
REMARK                         _______ _______ _______ _____ _____    ______ ____
ROOT
ATOM      1  N   UNL     1     144.223 114.848 110.965  0.00  0.00    +0.000 N 
ATOM      2  C   UNL     1     143.876 114.357 112.294  0.00  0.00    +0.000 C 
ATOM      3  C   UNL     1     143.317 115.747 110.256  0.00  0.00    +0.000 C 
ATOM      4  C   UNL     1     142.643 114.858 112.815  0.00  0.00    +0.000 C 
ATOM      5  C   UNL     1     142.141 116.105 110.983  0.00  0.00    +0.000 C 
ATOM      6  C   UNL     1     141.541 115.786 112.339  0.00  0.00    +0.000 C 
ATOM      7  C   UNL     1     145.403 114.347 110.295  0.00  0.00    +0.000 C 
ATOM      8  C   UNL     1     144.705 113.460 113.020  0.00  0.00    +0.000 C 
ATOM      9  C   UNL     1     145.551 112.584 113.749  0.00  0.00    +0.000 C 
ATOM     10  C   UNL     1     143.595 116.231 108.953  0.00  0.00    +0.000 C 
ATOM     11  C   UNL     1     143.893 116.750 107.644  0.00  0.00    +0.000 C 
ATOM     12  O   UNL     1     143.852 117.957 107.457  0.00  0.00    +0.000 OA
ENDROOT
BRANCH   9  13
ATOM     13  C   UNL     1     146.905 112.923 114.189  0.00  0.00    +0.000 A 
ATOM     14  C   UNL     1     147.617 112.070 115.037  0.00  0.00    +0.000 A 
ATOM     15  C   UNL     1     148.907 112.392 115.456  0.00  0.00    +0.000 A 
ATOM     16  C   UNL     1     149.501 113.576 115.029  0.00  0.00    +0.000 A 
ATOM     17  C   UNL     1     148.805 114.436 114.185  0.00  0.00    +0.000 A 
ATOM     18  C   UNL     1     147.515 114.109 113.770  0.00  0.00    +0.000 A 
ENDBRANCH   9  13
BRANCH  11  19
ATOM     19  C   UNL     1     144.227 115.798 106.570  0.00  0.00    +0.000 A 
ATOM     20  C   UNL     1     143.307 115.484 105.570  0.00  0.00    +0.000 A 
ATOM     21  C   UNL     1     143.655 114.586 104.564  0.00  0.00    +0.000 A 
ATOM     22  C   UNL     1     144.920 114.004 104.557  0.00  0.00    +0.000 A 
ATOM     23  C   UNL     1     145.840 114.320 105.555  0.00  0.00    +0.000 A 
ATOM     24  C   UNL     1     145.495 115.218 106.562  0.00  0.00    +0.000 A 
ENDBRANCH  11  19
BRANCH   9  25
ATOM     25  O   UNL     1     145.086 111.332 114.080  0.00  0.00    +0.000 OA
ATOM     26  H   UNL     1     144.286 111.097 113.579  0.00  0.00    +0.000 HD
ENDBRANCH   9  25
TORSDOF 3
ENDMDL
MODEL 3
REMARK VINA RESULT:      -7.0     14.579     16.894
REMARK  Name = Lobelin.pdbqt.pdb
REMARK  3 active torsions:
REMARK  status: ('A' for Active; 'I' for Inactive)
REMARK    1  A    between atoms: C_9  and  O_10
REMARK    2  A    between atoms: C_9  and  C_12
REMARK    3  A    between atoms: C_19  and  C_21
REMARK                            x       y       z     vdW  Elec       q    Type
REMARK                         _______ _______ _______ _____ _____    ______ ____
ROOT
ATOM      1  N   UNL     1     144.153 114.567 110.975  0.00  0.00    +0.000 N 
ATOM      2  C   UNL     1     143.245 115.409 110.203  0.00  0.00    +0.000 C 
ATOM      3  C   UNL     1     143.745 114.054 112.279  0.00  0.00    +0.000 C 
ATOM      4  C   UNL     1     141.969 115.627 110.809  0.00  0.00    +0.000 C 
ATOM      5  C   UNL     1     142.419 114.411 112.675  0.00  0.00    +0.000 C 
ATOM      6  C   UNL     1     141.276 115.222 112.096  0.00  0.00    +0.000 C 
ATOM      7  C   UNL     1     145.503 114.343 110.508  0.00  0.00    +0.000 C 
ATOM      8  C   UNL     1     143.597 115.959 108.940  0.00  0.00    +0.000 C 
ATOM      9  C   UNL     1     143.947 116.483 107.669  0.00  0.00    +0.000 C 
ATOM     10  C   UNL     1     144.598 113.254 113.081  0.00  0.00    +0.000 C 
ATOM     11  C   UNL     1     145.453 112.415 113.878  0.00  0.00    +0.000 C 
ATOM     12  O   UNL     1     145.025 111.344 114.286  0.00  0.00    +0.000 OA
ENDROOT
BRANCH   9  13
ATOM     13  C   UNL     1     144.244 115.663 106.494  0.00  0.00    +0.000 A 
ATOM     14  C   UNL     1     143.270 115.431 105.518  0.00  0.00    +0.000 A 
ATOM     15  C   UNL     1     143.552 114.651 104.398  0.00  0.00    +0.000 A 
ATOM     16  C   UNL     1     144.817 114.092 104.241  0.00  0.00    +0.000 A 
ATOM     17  C   UNL     1     145.797 114.312 105.204  0.00  0.00    +0.000 A 
ATOM     18  C   UNL     1     145.509 115.093 106.323  0.00  0.00    +0.000 A 
ENDBRANCH   9  13
BRANCH  11  19
ATOM     19  C   UNL     1     146.814 112.886 114.185  0.00  0.00    +0.000 A 
ATOM     20  C   UNL     1     147.294 114.093 113.676  0.00  0.00    +0.000 A 
ATOM     21  C   UNL     1     148.583 114.515 113.990  0.00  0.00    +0.000 A 
ATOM     22  C   UNL     1     149.391 113.733 114.812  0.00  0.00    +0.000 A 
ATOM     23  C   UNL     1     148.910 112.529 115.323  0.00  0.00    +0.000 A 
ATOM     24  C   UNL     1     147.621 112.105 115.011  0.00  0.00    +0.000 A 
ENDBRANCH  11  19
BRANCH   9  25
ATOM     25  O   UNL     1     144.010 117.848 107.506  0.00  0.00    +0.000 OA
ATOM     26  H   UNL     1     143.130 118.239 107.375  0.00  0.00    +0.000 HD
ENDBRANCH   9  25
TORSDOF 3
ENDMDL
MODEL 4
REMARK VINA RESULT:      -7.0      3.013      7.953
REMARK  Name = Lobelin.pdbqt.pdb
REMARK  3 active torsions:
REMARK  status: ('A' for Active; 'I' for Inactive)
REMARK    1  A    between atoms: C_9  and  O_10
REMARK    2  A    between atoms: C_9  and  C_12
REMARK    3  A    between atoms: C_19  and  C_21
REMARK                            x       y       z     vdW  Elec       q    Type
REMARK                         _______ _______ _______ _____ _____    ______ ____
ROOT
ATOM      1  N   UNL     1     144.155 124.291  96.694  0.00  0.00    +0.000 N 
ATOM      2  C   UNL     1     143.577 123.380  97.675  0.00  0.00    +0.000 C 
ATOM      3  C   UNL     1     144.174 123.928  95.280  0.00  0.00    +0.000 C 
ATOM      4  C   UNL     1     143.024 122.182  97.127  0.00  0.00    +0.000 C 
ATOM      5  C   UNL     1     143.562 122.674  94.975  0.00  0.00    +0.000 C 
ATOM      6  C   UNL     1     142.881 121.562  95.749  0.00  0.00    +0.000 C 
ATOM      7  C   UNL     1     144.823 125.497  97.132  0.00  0.00    +0.000 C 
ATOM      8  C   UNL     1     143.555 123.667  99.067  0.00  0.00    +0.000 C 
ATOM      9  C   UNL     1     143.514 123.972 100.452  0.00  0.00    +0.000 C 
ATOM     10  C   UNL     1     144.747 124.766  94.289  0.00  0.00    +0.000 C 
ATOM     11  C   UNL     1     145.298 125.632  93.280  0.00  0.00    +0.000 C 
ATOM     12  O   UNL     1     144.617 125.925  92.308  0.00  0.00    +0.000 OA
ENDROOT
BRANCH   9  13
ATOM     13  C   UNL     1     142.787 125.106 101.024  0.00  0.00    +0.000 A 
ATOM     14  C   UNL     1     143.315 125.826 102.100  0.00  0.00    +0.000 A 
ATOM     15  C   UNL     1     142.624 126.906 102.645  0.00  0.00    +0.000 A 
ATOM     16  C   UNL     1     141.392 127.280 102.117  0.00  0.00    +0.000 A 
ATOM     17  C   UNL     1     140.852 126.574 101.047  0.00  0.00    +0.000 A 
ATOM     18  C   UNL     1     141.548 125.494 100.506  0.00  0.00    +0.000 A 
ENDBRANCH   9  13
BRANCH  11  19
ATOM     19  C   UNL     1     146.676 126.125  93.453  0.00  0.00    +0.000 A 
ATOM     20  C   UNL     1     147.300 126.888  92.466  0.00  0.00    +0.000 A 
ATOM     21  C   UNL     1     148.600 127.346  92.661  0.00  0.00    +0.000 A 
ATOM     22  C   UNL     1     149.275 127.042  93.841  0.00  0.00    +0.000 A 
ATOM     23  C   UNL     1     148.650 126.283  94.829  0.00  0.00    +0.000 A 
ATOM     24  C   UNL     1     147.350 125.824  94.636  0.00  0.00    +0.000 A 
ENDBRANCH  11  19
BRANCH   9  25
ATOM     25  O   UNL     1     144.189 123.158 101.334  0.00  0.00    +0.000 OA
ATOM     26  H   UNL     1     145.146 123.327 101.323  0.00  0.00    +0.000 HD
ENDBRANCH   9  25
TORSDOF 3
ENDMDL
MODEL 5
REMARK VINA RESULT:      -6.9      3.079      4.709
REMARK  Name = Lobelin.pdbqt.pdb
REMARK  3 active torsions:
REMARK  status: ('A' for Active; 'I' for Inactive)
REMARK    1  A    between atoms: C_9  and  O_10
REMARK    2  A    between atoms: C_9  and  C_12
REMARK    3  A    between atoms: C_19  and  C_21
REMARK                            x       y       z     vdW  Elec       q    Type
REMARK                         _______ _______ _______ _____ _____    ______ ____
ROOT
ATOM      1  N   UNL     1     142.942 125.797  97.660  0.00  0.00    +0.000 N 
ATOM      2  C   UNL     1     141.727 125.750  96.855  0.00  0.00    +0.000 C 
ATOM      3  C   UNL     1     143.291 124.675  98.527  0.00  0.00    +0.000 C 
ATOM      4  C   UNL     1     140.981 124.536  96.968  0.00  0.00    +0.000 C 
ATOM      5  C   UNL     1     142.386 123.572  98.471  0.00  0.00    +0.000 C 
ATOM      6  C   UNL     1     141.100 123.235  97.740  0.00  0.00    +0.000 C 
ATOM      7  C   UNL     1     143.737 127.004  97.698  0.00  0.00    +0.000 C 
ATOM      8  C   UNL     1     141.322 126.822  96.014  0.00  0.00    +0.000 C 
ATOM      9  C   UNL     1     140.939 127.886  95.157  0.00  0.00    +0.000 C 
ATOM     10  C   UNL     1     144.447 124.682  99.349  0.00  0.00    +0.000 C 
ATOM     11  C   UNL     1     145.637 124.676 100.157  0.00  0.00    +0.000 C 
ATOM     12  O   UNL     1     146.410 123.733 100.073  0.00  0.00    +0.000 OA
ENDROOT
BRANCH   9  13
ATOM     13  C   UNL     1     141.724 128.343  94.010  0.00  0.00    +0.000 A 
ATOM     14  C   UNL     1     142.943 127.738  93.690  0.00  0.00    +0.000 A 
ATOM     15  C   UNL     1     143.691 128.173  92.597  0.00  0.00    +0.000 A 
ATOM     16  C   UNL     1     143.226 129.222  91.810  0.00  0.00    +0.000 A 
ATOM     17  C   UNL     1     142.015 129.836  92.116  0.00  0.00    +0.000 A 
ATOM     18  C   UNL     1     141.272 129.397  93.211  0.00  0.00    +0.000 A 
ENDBRANCH   9  13
BRANCH  11  19
ATOM     19  C   UNL     1     145.874 125.808 101.070  0.00  0.00    +0.000 A 
ATOM     20  C   UNL     1     145.404 125.790 102.383  0.00  0.00    +0.000 A 
ATOM     21  C   UNL     1     145.649 126.872 103.223  0.00  0.00    +0.000 A 
ATOM     22  C   UNL     1     146.365 127.971 102.753  0.00  0.00    +0.000 A 
ATOM     23  C   UNL     1     146.837 127.988 101.441  0.00  0.00    +0.000 A 
ATOM     24  C   UNL     1     146.593 126.906 100.599  0.00  0.00    +0.000 A 
ENDBRANCH  11  19
BRANCH   9  25
ATOM     25  O   UNL     1     139.753 128.540  95.399  0.00  0.00    +0.000 OA
ATOM     26  H   UNL     1     139.541 129.179  94.698  0.00  0.00    +0.000 HD
ENDBRANCH   9  25
TORSDOF 3
ENDMDL
MODEL 6
REMARK VINA RESULT:      -6.7      3.020      5.169
REMARK  Name = Lobelin.pdbqt.pdb
REMARK  3 active torsions:
REMARK  status: ('A' for Active; 'I' for Inactive)
REMARK    1  A    between atoms: C_9  and  O_10
REMARK    2  A    between atoms: C_9  and  C_12
REMARK    3  A    between atoms: C_19  and  C_21
REMARK                            x       y       z     vdW  Elec       q    Type
REMARK                         _______ _______ _______ _____ _____    ______ ____
ROOT
ATOM      1  N   UNL     1     144.287 124.478  96.943  0.00  0.00    +0.000 N 
ATOM      2  C   UNL     1     144.284 124.161  95.518  0.00  0.00    +0.000 C 
ATOM      3  C   UNL     1     143.763 123.516  97.908  0.00  0.00    +0.000 C 
ATOM      4  C   UNL     1     143.781 122.863  95.195  0.00  0.00    +0.000 C 
ATOM      5  C   UNL     1     143.312 122.285  97.342  0.00  0.00    +0.000 C 
ATOM      6  C   UNL     1     143.210 121.680  95.955  0.00  0.00    +0.000 C 
ATOM      7  C   UNL     1     144.691 125.793  97.390  0.00  0.00    +0.000 C 
ATOM      8  C   UNL     1     144.755 125.068  94.531  0.00  0.00    +0.000 C 
ATOM      9  C   UNL     1     145.251 125.969  93.554  0.00  0.00    +0.000 C 
ATOM     10  C   UNL     1     143.720 123.785  99.300  0.00  0.00    +0.000 C 
ATOM     11  C   UNL     1     143.706 124.046 100.715  0.00  0.00    +0.000 C 
ATOM     12  O   UNL     1     144.209 123.231 101.476  0.00  0.00    +0.000 OA
ENDROOT
BRANCH   9  13
ATOM     13  C   UNL     1     146.639 126.428  93.485  0.00  0.00    +0.000 A 
ATOM     14  C   UNL     1     147.202 126.824  92.269  0.00  0.00    +0.000 A 
ATOM     15  C   UNL     1     148.524 127.262  92.203  0.00  0.00    +0.000 A 
ATOM     16  C   UNL     1     149.299 127.307  93.358  0.00  0.00    +0.000 A 
ATOM     17  C   UNL     1     148.753 126.915  94.576  0.00  0.00    +0.000 A 
ATOM     18  C   UNL     1     147.431 126.478  94.636  0.00  0.00    +0.000 A 
ENDBRANCH   9  13
BRANCH  11  19
ATOM     19  C   UNL     1     143.073 125.286 101.197  0.00  0.00    +0.000 A 
ATOM     20  C   UNL     1     141.980 125.844 100.534  0.00  0.00    +0.000 A 
ATOM     21  C   UNL     1     141.399 127.014 101.017  0.00  0.00    +0.000 A 
ATOM     22  C   UNL     1     141.909 127.623 102.161  0.00  0.00    +0.000 A 
ATOM     23  C   UNL     1     142.999 127.063 102.825  0.00  0.00    +0.000 A 
ATOM     24  C   UNL     1     143.581 125.893 102.344  0.00  0.00    +0.000 A 
ENDBRANCH  11  19
BRANCH   9  25
ATOM     25  O   UNL     1     144.389 126.450  92.594  0.00  0.00    +0.000 OA
ATOM     26  H   UNL     1     144.865 126.862  91.853  0.00  0.00    +0.000 HD
ENDBRANCH   9  25
TORSDOF 3
ENDMDL
MODEL 7
REMARK VINA RESULT:      -6.7     15.422     18.596
REMARK  Name = Lobelin.pdbqt.pdb
REMARK  3 active torsions:
REMARK  status: ('A' for Active; 'I' for Inactive)
REMARK    1  A    between atoms: C_9  and  O_10
REMARK    2  A    between atoms: C_9  and  C_12
REMARK    3  A    between atoms: C_19  and  C_21
REMARK                            x       y       z     vdW  Elec       q    Type
REMARK                         _______ _______ _______ _____ _____    ______ ____
ROOT
ATOM      1  N   UNL     1     143.044 114.806 111.464  0.00  0.00    +0.000 N 
ATOM      2  C   UNL     1     141.845 114.778 110.634  0.00  0.00    +0.000 C 
ATOM      3  C   UNL     1     144.360 114.945 110.846  0.00  0.00    +0.000 C 
ATOM      4  C   UNL     1     142.082 114.935 109.234  0.00  0.00    +0.000 C 
ATOM      5  C   UNL     1     144.342 115.084 109.425  0.00  0.00    +0.000 C 
ATOM      6  C   UNL     1     143.290 115.114 108.332  0.00  0.00    +0.000 C 
ATOM      7  C   UNL     1     142.944 114.571 112.888  0.00  0.00    +0.000 C 
ATOM      8  C   UNL     1     140.541 114.618 111.176  0.00  0.00    +0.000 C 
ATOM      9  C   UNL     1     139.241 114.484 111.729  0.00  0.00    +0.000 C 
ATOM     10  C   UNL     1     145.558 114.952 111.605  0.00  0.00    +0.000 C 
ATOM     11  C   UNL     1     146.771 114.992 112.379  0.00  0.00    +0.000 C 
ATOM     12  O   UNL     1     147.551 115.919 112.217  0.00  0.00    +0.000 OA
ENDROOT
BRANCH   9  13
ATOM     13  C   UNL     1     138.630 115.451 112.641  0.00  0.00    +0.000 A 
ATOM     14  C   UNL     1     138.833 115.360 114.021  0.00  0.00    +0.000 A 
ATOM     15  C   UNL     1     138.251 116.281 114.891  0.00  0.00    +0.000 A 
ATOM     16  C   UNL     1     137.458 117.307 114.387  0.00  0.00    +0.000 A 
ATOM     17  C   UNL     1     137.245 117.411 113.016  0.00  0.00    +0.000 A 
ATOM     18  C   UNL     1     137.829 116.486 112.151  0.00  0.00    +0.000 A 
ENDBRANCH   9  13
BRANCH  11  19
ATOM     19  C   UNL     1     147.032 113.902 113.334  0.00  0.00    +0.000 A 
ATOM     20  C   UNL     1     148.190 113.884 114.112  0.00  0.00    +0.000 A 
ATOM     21  C   UNL     1     148.406 112.843 115.011  0.00  0.00    +0.000 A 
ATOM     22  C   UNL     1     147.466 111.822 115.134  0.00  0.00    +0.000 A 
ATOM     23  C   UNL     1     146.308 111.842 114.359  0.00  0.00    +0.000 A 
ATOM     24  C   UNL     1     146.089 112.882 113.460  0.00  0.00    +0.000 A 
ENDBRANCH  11  19
BRANCH   9  25
ATOM     25  O   UNL     1     138.486 113.384 111.392  0.00  0.00    +0.000 OA
ATOM     26  H   UNL     1     138.744 112.597 111.901  0.00  0.00    +0.000 HD
ENDBRANCH   9  25
TORSDOF 3
ENDMDL
MODEL 8
REMARK VINA RESULT:      -6.5      2.517      8.146
REMARK  Name = Lobelin.pdbqt.pdb
REMARK  3 active torsions:
REMARK  status: ('A' for Active; 'I' for Inactive)
REMARK    1  A    between atoms: C_9  and  O_10
REMARK    2  A    between atoms: C_9  and  C_12
REMARK    3  A    between atoms: C_19  and  C_21
REMARK                            x       y       z     vdW  Elec       q    Type
REMARK                         _______ _______ _______ _____ _____    ______ ____
ROOT
ATOM      1  N   UNL     1     144.983 126.662  98.416  0.00  0.00    +0.000 N 
ATOM      2  C   UNL     1     146.199 126.794  99.210  0.00  0.00    +0.000 C 
ATOM      3  C   UNL     1     145.059 126.209  97.030  0.00  0.00    +0.000 C 
ATOM      4  C   UNL     1     147.400 126.413  98.536  0.00  0.00    +0.000 C 
ATOM      5  C   UNL     1     146.375 125.888  96.576  0.00  0.00    +0.000 C 
ATOM      6  C   UNL     1     147.776 125.902  97.157  0.00  0.00    +0.000 C 
ATOM      7  C   UNL     1     143.715 127.098  98.958  0.00  0.00    +0.000 C 
ATOM      8  C   UNL     1     146.190 127.256 100.555  0.00  0.00    +0.000 C 
ATOM      9  C   UNL     1     146.169 127.693 101.904  0.00  0.00    +0.000 C 
ATOM     10  C   UNL     1     143.910 126.088  96.207  0.00  0.00    +0.000 C 
ATOM     11  C   UNL     1     142.740 125.933  95.384  0.00  0.00    +0.000 C 
ATOM     12  O   UNL     1     142.548 124.868  94.815  0.00  0.00    +0.000 OA
ENDROOT
BRANCH   9  13
ATOM     13  C   UNL     1     145.495 126.981 102.990  0.00  0.00    +0.000 A 
ATOM     14  C   UNL     1     144.345 126.225 102.745  0.00  0.00    +0.000 A 
ATOM     15  C   UNL     1     143.702 125.546 103.779  0.00  0.00    +0.000 A 
ATOM     16  C   UNL     1     144.205 125.615 105.074  0.00  0.00    +0.000 A 
ATOM     17  C   UNL     1     145.348 126.365 105.335  0.00  0.00    +0.000 A 
ATOM     18  C   UNL     1     145.986 127.042 104.298  0.00  0.00    +0.000 A 
ENDBRANCH   9  13
BRANCH  11  19
ATOM     19  C   UNL     1     141.821 127.076  95.246  0.00  0.00    +0.000 A 
ATOM     20  C   UNL     1     141.218 127.377  94.024  0.00  0.00    +0.000 A 
ATOM     21  C   UNL     1     140.348 128.460  93.928  0.00  0.00    +0.000 A 
ATOM     22  C   UNL     1     140.080 129.240  95.050  0.00  0.00    +0.000 A 
ATOM     23  C   UNL     1     140.679 128.937  96.272  0.00  0.00    +0.000 A 
ATOM     24  C   UNL     1     141.549 127.854  96.371  0.00  0.00    +0.000 A 
ENDBRANCH  11  19
BRANCH   9  25
ATOM     25  O   UNL     1     146.825 128.856 102.237  0.00  0.00    +0.000 OA
ATOM     26  H   UNL     1     146.259 129.638 102.123  0.00  0.00    +0.000 HD
ENDBRANCH   9  25
TORSDOF 3
ENDMDL
MODEL 9
REMARK VINA RESULT:      -6.5      3.172      4.547
REMARK  Name = Lobelin.pdbqt.pdb
REMARK  3 active torsions:
REMARK  status: ('A' for Active; 'I' for Inactive)
REMARK    1  A    between atoms: C_9  and  O_10
REMARK    2  A    between atoms: C_9  and  C_12
REMARK    3  A    between atoms: C_19  and  C_21
REMARK                            x       y       z     vdW  Elec       q    Type
REMARK                         _______ _______ _______ _____ _____    ______ ____
ROOT
ATOM      1  N   UNL     1     143.446 125.470  96.545  0.00  0.00    +0.000 N 
ATOM      2  C   UNL     1     143.864 125.875  95.208  0.00  0.00    +0.000 C 
ATOM      3  C   UNL     1     142.030 125.272  96.842  0.00  0.00    +0.000 C 
ATOM      4  C   UNL     1     142.801 126.006  94.262  0.00  0.00    +0.000 C 
ATOM      5  C   UNL     1     141.153 125.466  95.731  0.00  0.00    +0.000 C 
ATOM      6  C   UNL     1     141.292 125.851  94.270  0.00  0.00    +0.000 C 
ATOM      7  C   UNL     1     144.418 125.387  97.613  0.00  0.00    +0.000 C 
ATOM      8  C   UNL     1     145.225 126.108  94.868  0.00  0.00    +0.000 C 
ATOM      9  C   UNL     1     146.587 126.314  94.531  0.00  0.00    +0.000 C 
ATOM     10  C   UNL     1     141.569 124.905  98.131  0.00  0.00    +0.000 C 
ATOM     11  C   UNL     1     141.104 124.500  99.432  0.00  0.00    +0.000 C 
ATOM     12  O   UNL     1     140.374 123.524  99.527  0.00  0.00    +0.000 OA
ENDROOT
BRANCH   9  13
ATOM     13  C   UNL     1     147.614 125.272  94.576  0.00  0.00    +0.000 A 
ATOM     14  C   UNL     1     147.692 124.301  93.573  0.00  0.00    +0.000 A 
ATOM     15  C   UNL     1     148.670 123.308  93.615  0.00  0.00    +0.000 A 
ATOM     16  C   UNL     1     149.583 123.276  94.664  0.00  0.00    +0.000 A 
ATOM     17  C   UNL     1     149.517 124.234  95.671  0.00  0.00    +0.000 A 
ATOM     18  C   UNL     1     148.537 125.224  95.624  0.00  0.00    +0.000 A 
ENDBRANCH   9  13
BRANCH  11  19
ATOM     19  C   UNL     1     141.520 125.288 100.605  0.00  0.00    +0.000 A 
ATOM     20  C   UNL     1     142.848 125.307 101.030  0.00  0.00    +0.000 A 
ATOM     21  C   UNL     1     143.211 126.068 102.138  0.00  0.00    +0.000 A 
ATOM     22  C   UNL     1     142.248 126.810 102.819  0.00  0.00    +0.000 A 
ATOM     23  C   UNL     1     140.922 126.793 102.392  0.00  0.00    +0.000 A 
ATOM     24  C   UNL     1     140.556 126.034 101.284  0.00  0.00    +0.000 A 
ENDBRANCH  11  19
BRANCH   9  25
ATOM     25  O   UNL     1     146.991 127.566  94.126  0.00  0.00    +0.000 OA
ATOM     26  H   UNL     1     147.733 127.898  94.659  0.00  0.00    +0.000 HD
ENDBRANCH   9  25
TORSDOF 3
ENDMDL
