MODEL 1
REMARK VINA RESULT:      -6.7      0.000      0.000
REMARK  Name = LUCANTHONE.pdbqt.pdb
REMARK  5 active torsions:
REMARK  status: ('A' for Active; 'I' for Inactive)
REMARK    1  A    between atoms: C_3  and  N_17
REMARK    2  A    between atoms: N_17  and  C_19
REMARK    3  A    between atoms: C_20  and  N_21
REMARK    4  A    between atoms: N_21  and  C_22
REMARK    5  A    between atoms: N_21  and  C_24
REMARK                            x       y       z     vdW  Elec       q    Type
REMARK                         _______ _______ _______ _____ _____    ______ ____
ROOT
ATOM      1  S   UNL     1     143.551 127.249 102.150  0.00  0.00    +0.000 S 
ATOM      2  O   UNL     1     145.758 124.347  99.803  0.00  0.00    +0.000 OA
ATOM      3  C   UNL     1     142.994 123.917  99.768  0.00  0.00    +0.000 A 
ATOM      4  C   UNL     1     143.605 124.941 100.546  0.00  0.00    +0.000 A 
ATOM      5  C   UNL     1     142.819 125.913 101.200  0.00  0.00    +0.000 A 
ATOM      6  C   UNL     1     141.412 125.837 101.070  0.00  0.00    +0.000 A 
ATOM      7  C   UNL     1     145.093 124.966 100.633  0.00  0.00    +0.000 A 
ATOM      8  C   UNL     1     141.597 123.873  99.695  0.00  0.00    +0.000 A 
ATOM      9  C   UNL     1     145.802 125.686 101.700  0.00  0.00    +0.000 A 
ATOM     10  C   UNL     1     140.814 124.826 100.324  0.00  0.00    +0.000 A 
ATOM     11  C   UNL     1     145.193 126.687 102.442  0.00  0.00    +0.000 A 
ATOM     12  C   UNL     1     140.457 126.815 101.719  0.00  0.00    +0.000 C 
ATOM     13  C   UNL     1     147.135 125.337 101.944  0.00  0.00    +0.000 A 
ATOM     14  C   UNL     1     145.930 127.332 103.437  0.00  0.00    +0.000 A 
ATOM     15  C   UNL     1     147.859 125.981 102.943  0.00  0.00    +0.000 A 
ATOM     16  C   UNL     1     147.254 126.981 103.695  0.00  0.00    +0.000 A 
ENDROOT
BRANCH   3  17
ATOM     17  N   UNL     1     143.749 122.855  99.204  0.00  0.00    +0.000 N 
ATOM     18  H   UNL     1     144.618 122.690  99.734  0.00  0.00    +0.000 HD
BRANCH  17  19
ATOM     19  C   UNL     1     143.838 122.728  97.759  0.00  0.00    +0.000 C 
ATOM     20  C   UNL     1     143.933 122.593  96.236  0.00  0.00    +0.000 C 
BRANCH  20  21
ATOM     21  N   UNL     1     144.033 122.459  94.792  0.00  0.00    +0.000 N 
BRANCH  21  22
ATOM     22  C   UNL     1     143.881 121.050  94.478  0.00  0.00    +0.000 C 
ATOM     23  C   UNL     1     143.731 119.565  94.135  0.00  0.00    +0.000 C 
ENDBRANCH  21  22
BRANCH  21  24
ATOM     24  C   UNL     1     145.389 122.819  94.423  0.00  0.00    +0.000 C 
ATOM     25  C   UNL     1     146.822 123.209  94.051  0.00  0.00    +0.000 C 
ENDBRANCH  21  24
ENDBRANCH  20  21
ENDBRANCH  17  19
ENDBRANCH   3  17
TORSDOF 5
ENDMDL
MODEL 2
REMARK VINA RESULT:      -6.1      3.533      4.922
REMARK  Name = LUCANTHONE.pdbqt.pdb
REMARK  5 active torsions:
REMARK  status: ('A' for Active; 'I' for Inactive)
REMARK    1  A    between atoms: C_3  and  N_17
REMARK    2  A    between atoms: N_17  and  C_19
REMARK    3  A    between atoms: C_20  and  N_21
REMARK    4  A    between atoms: N_21  and  C_22
REMARK    5  A    between atoms: N_21  and  C_24
REMARK                            x       y       z     vdW  Elec       q    Type
REMARK                         _______ _______ _______ _____ _____    ______ ____
ROOT
ATOM      1  S   UNL     1     143.944 125.099 100.671  0.00  0.00    +0.000 S 
ATOM      2  O   UNL     1     147.136 127.650  99.220  0.00  0.00    +0.000 OA
ATOM      3  C   UNL     1     146.625 125.467  97.547  0.00  0.00    +0.000 A 
ATOM      4  C   UNL     1     145.951 125.663  98.786  0.00  0.00    +0.000 A 
ATOM      5  C   UNL     1     144.852 124.854  99.143  0.00  0.00    +0.000 A 
ATOM      6  C   UNL     1     144.446 123.840  98.244  0.00  0.00    +0.000 A 
ATOM      7  C   UNL     1     146.427 126.756  99.682  0.00  0.00    +0.000 A 
ATOM      8  C   UNL     1     146.199 124.432  96.708  0.00  0.00    +0.000 A 
ATOM      9  C   UNL     1     146.103 126.791 101.114  0.00  0.00    +0.000 A 
ATOM     10  C   UNL     1     145.116 123.636  97.041  0.00  0.00    +0.000 A 
ATOM     11  C   UNL     1     145.044 126.069 101.646  0.00  0.00    +0.000 A 
ATOM     12  C   UNL     1     143.285 122.905  98.505  0.00  0.00    +0.000 C 
ATOM     13  C   UNL     1     146.895 127.594 101.941  0.00  0.00    +0.000 A 
ATOM     14  C   UNL     1     144.790 126.154 103.017  0.00  0.00    +0.000 A 
ATOM     15  C   UNL     1     146.639 127.667 103.307  0.00  0.00    +0.000 A 
ATOM     16  C   UNL     1     145.584 126.941 103.848  0.00  0.00    +0.000 A 
ENDROOT
BRANCH   3  17
ATOM     17  N   UNL     1     147.808 126.180  97.218  0.00  0.00    +0.000 N 
ATOM     18  H   UNL     1     148.065 126.844  97.964  0.00  0.00    +0.000 HD
BRANCH  17  19
ATOM     19  C   UNL     1     148.016 126.629  95.852  0.00  0.00    +0.000 C 
ATOM     20  C   UNL     1     148.238 127.102  94.412  0.00  0.00    +0.000 C 
BRANCH  20  21
ATOM     21  N   UNL     1     148.458 127.558  93.049  0.00  0.00    +0.000 N 
BRANCH  21  22
ATOM     22  C   UNL     1     148.639 126.377  92.224  0.00  0.00    +0.000 C 
ATOM     23  C   UNL     1     148.843 125.130  91.359  0.00  0.00    +0.000 C 
ENDBRANCH  21  22
BRANCH  21  24
ATOM     24  C   UNL     1     149.724 128.267  93.034  0.00  0.00    +0.000 C 
ATOM     25  C   UNL     1     151.065 129.006  93.037  0.00  0.00    +0.000 C 
ENDBRANCH  21  24
ENDBRANCH  20  21
ENDBRANCH  17  19
ENDBRANCH   3  17
TORSDOF 5
ENDMDL
MODEL 3
REMARK VINA RESULT:      -6.1     37.184     40.273
REMARK  Name = LUCANTHONE.pdbqt.pdb
REMARK  5 active torsions:
REMARK  status: ('A' for Active; 'I' for Inactive)
REMARK    1  A    between atoms: C_3  and  N_17
REMARK    2  A    between atoms: N_17  and  C_19
REMARK    3  A    between atoms: C_20  and  N_21
REMARK    4  A    between atoms: N_21  and  C_22
REMARK    5  A    between atoms: N_21  and  C_24
REMARK                            x       y       z     vdW  Elec       q    Type
REMARK                         _______ _______ _______ _____ _____    ______ ____
ROOT
ATOM      1  S   UNL     1     134.574 121.964 134.514  0.00  0.00    +0.000 S 
ATOM      2  O   UNL     1     137.688 121.849 137.528  0.00  0.00    +0.000 OA
ATOM      3  C   UNL     1     135.114 121.607 138.595  0.00  0.00    +0.000 A 
ATOM      4  C   UNL     1     135.356 121.825 137.210  0.00  0.00    +0.000 A 
ATOM      5  C   UNL     1     134.304 121.746 136.274  0.00  0.00    +0.000 A 
ATOM      6  C   UNL     1     133.004 121.454 136.751  0.00  0.00    +0.000 A 
ATOM      7  C   UNL     1     136.753 122.119 136.777  0.00  0.00    +0.000 A 
ATOM      8  C   UNL     1     133.805 121.349 139.015  0.00  0.00    +0.000 A 
ATOM      9  C   UNL     1     137.054 122.754 135.486  0.00  0.00    +0.000 A 
ATOM     10  C   UNL     1     132.763 121.259 138.107  0.00  0.00    +0.000 A 
ATOM     11  C   UNL     1     136.143 122.760 134.440  0.00  0.00    +0.000 A 
ATOM     12  C   UNL     1     131.789 121.340 135.855  0.00  0.00    +0.000 C 
ATOM     13  C   UNL     1     138.310 123.350 135.332  0.00  0.00    +0.000 A 
ATOM     14  C   UNL     1     136.499 123.377 133.238  0.00  0.00    +0.000 A 
ATOM     15  C   UNL     1     138.654 123.968 134.134  0.00  0.00    +0.000 A 
ATOM     16  C   UNL     1     137.743 123.985 133.083  0.00  0.00    +0.000 A 
ENDROOT
BRANCH   3  17
ATOM     17  N   UNL     1     136.126 121.805 139.572  0.00  0.00    +0.000 N 
ATOM     18  H   UNL     1     136.703 120.958 139.689  0.00  0.00    +0.000 HD
BRANCH  17  19
ATOM     19  C   UNL     1     135.819 122.551 140.780  0.00  0.00    +0.000 C 
ATOM     20  C   UNL     1     135.496 123.337 142.055  0.00  0.00    +0.000 C 
BRANCH  20  21
ATOM     21  N   UNL     1     135.184 124.073 143.270  0.00  0.00    +0.000 N 
BRANCH  21  22
ATOM     22  C   UNL     1     133.766 124.381 143.236  0.00  0.00    +0.000 C 
ATOM     23  C   UNL     1     132.273 124.717 143.190  0.00  0.00    +0.000 C 
ENDBRANCH  21  22
BRANCH  21  24
ATOM     24  C   UNL     1     135.883 125.342 143.191  0.00  0.00    +0.000 C 
ATOM     25  C   UNL     1     136.605 126.691 143.120  0.00  0.00    +0.000 C 
ENDBRANCH  21  24
ENDBRANCH  20  21
ENDBRANCH  17  19
ENDBRANCH   3  17
TORSDOF 5
ENDMDL
MODEL 4
REMARK VINA RESULT:      -6.0     37.205     40.632
REMARK  Name = LUCANTHONE.pdbqt.pdb
REMARK  5 active torsions:
REMARK  status: ('A' for Active; 'I' for Inactive)
REMARK    1  A    between atoms: C_3  and  N_17
REMARK    2  A    between atoms: N_17  and  C_19
REMARK    3  A    between atoms: C_20  and  N_21
REMARK    4  A    between atoms: N_21  and  C_22
REMARK    5  A    between atoms: N_21  and  C_24
REMARK                            x       y       z     vdW  Elec       q    Type
REMARK                         _______ _______ _______ _____ _____    ______ ____
ROOT
ATOM      1  S   UNL     1     139.333 138.513 139.982  0.00  0.00    +0.000 S 
ATOM      2  O   UNL     1     138.409 134.305 140.469  0.00  0.00    +0.000 OA
ATOM      3  C   UNL     1     138.796 135.044 137.800  0.00  0.00    +0.000 A 
ATOM      4  C   UNL     1     138.825 135.982 138.870  0.00  0.00    +0.000 A 
ATOM      5  C   UNL     1     139.236 137.313 138.651  0.00  0.00    +0.000 A 
ATOM      6  C   UNL     1     139.608 137.692 137.339  0.00  0.00    +0.000 A 
ATOM      7  C   UNL     1     138.427 135.511 140.229  0.00  0.00    +0.000 A 
ATOM      8  C   UNL     1     139.149 135.479 136.517  0.00  0.00    +0.000 A 
ATOM      9  C   UNL     1     138.025 136.442 141.292  0.00  0.00    +0.000 A 
ATOM     10  C   UNL     1     139.563 136.781 136.289  0.00  0.00    +0.000 A 
ATOM     11  C   UNL     1     138.354 137.789 141.253  0.00  0.00    +0.000 A 
ATOM     12  C   UNL     1     140.067 139.085 136.969  0.00  0.00    +0.000 C 
ATOM     13  C   UNL     1     137.299 135.923 142.370  0.00  0.00    +0.000 A 
ATOM     14  C   UNL     1     137.943 138.615 142.302  0.00  0.00    +0.000 A 
ATOM     15  C   UNL     1     136.888 136.755 143.406  0.00  0.00    +0.000 A 
ATOM     16  C   UNL     1     137.208 138.107 143.372  0.00  0.00    +0.000 A 
ENDROOT
BRANCH   3  17
ATOM     17  N   UNL     1     138.269 133.736 137.964  0.00  0.00    +0.000 N 
ATOM     18  H   UNL     1     138.670 133.272 138.792  0.00  0.00    +0.000 HD
BRANCH  17  19
ATOM     19  C   UNL     1     138.051 132.901 136.795  0.00  0.00    +0.000 C 
ATOM     20  C   UNL     1     137.823 132.018 135.563  0.00  0.00    +0.000 C 
BRANCH  20  21
ATOM     21  N   UNL     1     137.616 131.186 134.389  0.00  0.00    +0.000 N 
BRANCH  21  22
ATOM     22  C   UNL     1     138.910 130.651 134.006  0.00  0.00    +0.000 C 
ATOM     23  C   UNL     1     140.278 130.085 133.617  0.00  0.00    +0.000 C 
ENDBRANCH  21  22
BRANCH  21  24
ATOM     24  C   UNL     1     137.199 132.064 133.312  0.00  0.00    +0.000 C 
ATOM     25  C   UNL     1     136.743 132.977 132.170  0.00  0.00    +0.000 C 
ENDBRANCH  21  24
ENDBRANCH  20  21
ENDBRANCH  17  19
ENDBRANCH   3  17
TORSDOF 5
ENDMDL
MODEL 5
REMARK VINA RESULT:      -5.9      2.318      3.510
REMARK  Name = LUCANTHONE.pdbqt.pdb
REMARK  5 active torsions:
REMARK  status: ('A' for Active; 'I' for Inactive)
REMARK    1  A    between atoms: C_3  and  N_17
REMARK    2  A    between atoms: N_17  and  C_19
REMARK    3  A    between atoms: C_20  and  N_21
REMARK    4  A    between atoms: N_21  and  C_22
REMARK    5  A    between atoms: N_21  and  C_24
REMARK                            x       y       z     vdW  Elec       q    Type
REMARK                         _______ _______ _______ _____ _____    ______ ____
ROOT
ATOM      1  S   UNL     1     143.003 125.615 101.534  0.00  0.00    +0.000 S 
ATOM      2  O   UNL     1     146.965 125.915  99.799  0.00  0.00    +0.000 OA
ATOM      3  C   UNL     1     145.311 124.102  98.458  0.00  0.00    +0.000 A 
ATOM      4  C   UNL     1     144.904 124.789  99.636  0.00  0.00    +0.000 A 
ATOM      5  C   UNL     1     143.568 124.724 100.083  0.00  0.00    +0.000 A 
ATOM      6  C   UNL     1     142.648 123.952  99.334  0.00  0.00    +0.000 A 
ATOM      7  C   UNL     1     145.925 125.592 100.371  0.00  0.00    +0.000 A 
ATOM      8  C   UNL     1     144.367 123.330  97.772  0.00  0.00    +0.000 A 
ATOM      9  C   UNL     1     145.745 125.989 101.773  0.00  0.00    +0.000 A 
ATOM     10  C   UNL     1     143.049 123.265  98.193  0.00  0.00    +0.000 A 
ATOM     11  C   UNL     1     144.498 126.002 102.380  0.00  0.00    +0.000 A 
ATOM     12  C   UNL     1     141.189 123.799  99.703  0.00  0.00    +0.000 C 
ATOM     13  C   UNL     1     146.883 126.374 102.491  0.00  0.00    +0.000 A 
ATOM     14  C   UNL     1     144.401 126.397 103.717  0.00  0.00    +0.000 A 
ATOM     15  C   UNL     1     146.778 126.759 103.824  0.00  0.00    +0.000 A 
ATOM     16  C   UNL     1     145.533 126.768 104.440  0.00  0.00    +0.000 A 
ENDROOT
BRANCH   3  17
ATOM     17  N   UNL     1     146.671 124.045  98.056  0.00  0.00    +0.000 N 
ATOM     18  H   UNL     1     147.289 124.474  98.762  0.00  0.00    +0.000 HD
BRANCH  17  19
ATOM     19  C   UNL     1     147.017 124.282  96.665  0.00  0.00    +0.000 C 
ATOM     20  C   UNL     1     147.383 124.531  95.198  0.00  0.00    +0.000 C 
BRANCH  20  21
ATOM     21  N   UNL     1     147.742 124.767  93.809  0.00  0.00    +0.000 N 
BRANCH  21  22
ATOM     22  C   UNL     1     148.499 126.005  93.763  0.00  0.00    +0.000 C 
ATOM     23  C   UNL     1     149.308 127.304  93.707  0.00  0.00    +0.000 C 
ENDBRANCH  21  22
BRANCH  21  24
ATOM     24  C   UNL     1     146.509 125.014  93.085  0.00  0.00    +0.000 C 
ATOM     25  C   UNL     1     145.218 125.275  92.304  0.00  0.00    +0.000 C 
ENDBRANCH  21  24
ENDBRANCH  20  21
ENDBRANCH  17  19
ENDBRANCH   3  17
TORSDOF 5
ENDMDL
MODEL 6
REMARK VINA RESULT:      -5.9      2.947      6.345
REMARK  Name = LUCANTHONE.pdbqt.pdb
REMARK  5 active torsions:
REMARK  status: ('A' for Active; 'I' for Inactive)
REMARK    1  A    between atoms: C_3  and  N_17
REMARK    2  A    between atoms: N_17  and  C_19
REMARK    3  A    between atoms: C_20  and  N_21
REMARK    4  A    between atoms: N_21  and  C_22
REMARK    5  A    between atoms: N_21  and  C_24
REMARK                            x       y       z     vdW  Elec       q    Type
REMARK                         _______ _______ _______ _____ _____    ______ ____
ROOT
ATOM      1  S   UNL     1     146.242 125.083  95.982  0.00  0.00    +0.000 S 
ATOM      2  O   UNL     1     146.379 124.242 100.233  0.00  0.00    +0.000 OA
ATOM      3  C   UNL     1     144.189 123.067  98.949  0.00  0.00    +0.000 A 
ATOM      4  C   UNL     1     145.111 123.917  98.276  0.00  0.00    +0.000 A 
ATOM      5  C   UNL     1     145.067 124.061  96.873  0.00  0.00    +0.000 A 
ATOM      6  C   UNL     1     144.077 123.346  96.158  0.00  0.00    +0.000 A 
ATOM      7  C   UNL     1     146.134 124.634  99.092  0.00  0.00    +0.000 A 
ATOM      8  C   UNL     1     143.214 122.405  98.195  0.00  0.00    +0.000 A 
ATOM      9  C   UNL     1     146.845 125.818  98.592  0.00  0.00    +0.000 A 
ATOM     10  C   UNL     1     143.164 122.529  96.816  0.00  0.00    +0.000 A 
ATOM     11  C   UNL     1     146.920 126.113  97.238  0.00  0.00    +0.000 A 
ATOM     12  C   UNL     1     143.921 123.411  94.654  0.00  0.00    +0.000 C 
ATOM     13  C   UNL     1     147.466 126.648  99.531  0.00  0.00    +0.000 A 
ATOM     14  C   UNL     1     147.618 127.253  96.834  0.00  0.00    +0.000 A 
ATOM     15  C   UNL     1     148.153 127.786  99.119  0.00  0.00    +0.000 A 
ATOM     16  C   UNL     1     148.227 128.092  97.765  0.00  0.00    +0.000 A 
ENDROOT
BRANCH   3  17
ATOM     17  N   UNL     1     144.129 123.001 100.366  0.00  0.00    +0.000 N 
ATOM     18  H   UNL     1     143.737 122.101 100.682  0.00  0.00    +0.000 HD
BRANCH  17  19
ATOM     19  C   UNL     1     143.739 124.179 101.122  0.00  0.00    +0.000 C 
ATOM     20  C   UNL     1     143.328 125.420 101.920  0.00  0.00    +0.000 C 
BRANCH  20  21
ATOM     21  N   UNL     1     142.934 126.591 102.687  0.00  0.00    +0.000 N 
BRANCH  21  22
ATOM     22  C   UNL     1     142.489 127.597 101.740  0.00  0.00    +0.000 C 
ATOM     23  C   UNL     1     142.030 128.653 100.730  0.00  0.00    +0.000 C 
ENDBRANCH  21  22
BRANCH  21  24
ATOM     24  C   UNL     1     144.134 127.116 103.311  0.00  0.00    +0.000 C 
ATOM     25  C   UNL     1     145.408 127.651 103.971  0.00  0.00    +0.000 C 
ENDBRANCH  21  24
ENDBRANCH  20  21
ENDBRANCH  17  19
ENDBRANCH   3  17
TORSDOF 5
ENDMDL
MODEL 7
REMARK VINA RESULT:      -5.7      3.478      4.288
REMARK  Name = LUCANTHONE.pdbqt.pdb
REMARK  5 active torsions:
REMARK  status: ('A' for Active; 'I' for Inactive)
REMARK    1  A    between atoms: C_3  and  N_17
REMARK    2  A    between atoms: N_17  and  C_19
REMARK    3  A    between atoms: C_20  and  N_21
REMARK    4  A    between atoms: N_21  and  C_22
REMARK    5  A    between atoms: N_21  and  C_24
REMARK                            x       y       z     vdW  Elec       q    Type
REMARK                         _______ _______ _______ _____ _____    ______ ____
ROOT
ATOM      1  S   UNL     1     143.072 125.517 100.965  0.00  0.00    +0.000 S 
ATOM      2  O   UNL     1     145.064 128.786  98.931  0.00  0.00    +0.000 OA
ATOM      3  C   UNL     1     143.624 127.128  97.200  0.00  0.00    +0.000 A 
ATOM      4  C   UNL     1     143.745 126.866  98.594  0.00  0.00    +0.000 A 
ATOM      5  C   UNL     1     142.985 125.847  99.204  0.00  0.00    +0.000 A 
ATOM      6  C   UNL     1     142.107 125.089  98.392  0.00  0.00    +0.000 A 
ATOM      7  C   UNL     1     144.683 127.710  99.390  0.00  0.00    +0.000 A 
ATOM      8  C   UNL     1     142.761 126.330  96.440  0.00  0.00    +0.000 A 
ATOM      9  C   UNL     1     145.196 127.286 100.700  0.00  0.00    +0.000 A 
ATOM     10  C   UNL     1     142.001 125.333  97.027  0.00  0.00    +0.000 A 
ATOM     11  C   UNL     1     144.568 126.305 101.453  0.00  0.00    +0.000 A 
ATOM     12  C   UNL     1     141.236 123.969  98.920  0.00  0.00    +0.000 C 
ATOM     13  C   UNL     1     146.347 127.918 101.182  0.00  0.00    +0.000 A 
ATOM     14  C   UNL     1     145.109 125.957 102.693  0.00  0.00    +0.000 A 
ATOM     15  C   UNL     1     146.882 127.560 102.415  0.00  0.00    +0.000 A 
ATOM     16  C   UNL     1     146.262 126.573 103.173  0.00  0.00    +0.000 A 
ENDROOT
BRANCH   3  17
ATOM     17  N   UNL     1     144.466 128.059  96.537  0.00  0.00    +0.000 N 
ATOM     18  H   UNL     1     143.927 128.863  96.180  0.00  0.00    +0.000 HD
BRANCH  17  19
ATOM     19  C   UNL     1     145.543 127.575  95.691  0.00  0.00    +0.000 C 
ATOM     20  C   UNL     1     146.678 127.062  94.799  0.00  0.00    +0.000 C 
BRANCH  20  21
ATOM     21  N   UNL     1     147.758 126.567  93.961  0.00  0.00    +0.000 N 
BRANCH  21  22
ATOM     22  C   UNL     1     148.492 125.585  94.737  0.00  0.00    +0.000 C 
ATOM     23  C   UNL     1     149.273 124.560  95.564  0.00  0.00    +0.000 C 
ENDBRANCH  21  22
BRANCH  21  24
ATOM     24  C   UNL     1     148.666 127.676  93.737  0.00  0.00    +0.000 C 
ATOM     25  C   UNL     1     149.626 128.842  93.480  0.00  0.00    +0.000 C 
ENDBRANCH  21  24
ENDBRANCH  20  21
ENDBRANCH  17  19
ENDBRANCH   3  17
TORSDOF 5
ENDMDL
MODEL 8
REMARK VINA RESULT:      -5.6      2.323      2.712
REMARK  Name = LUCANTHONE.pdbqt.pdb
REMARK  5 active torsions:
REMARK  status: ('A' for Active; 'I' for Inactive)
REMARK    1  A    between atoms: C_3  and  N_17
REMARK    2  A    between atoms: N_17  and  C_19
REMARK    3  A    between atoms: C_20  and  N_21
REMARK    4  A    between atoms: N_21  and  C_22
REMARK    5  A    between atoms: N_21  and  C_24
REMARK                            x       y       z     vdW  Elec       q    Type
REMARK                         _______ _______ _______ _____ _____    ______ ____
ROOT
ATOM      1  S   UNL     1     142.974 126.516 102.494  0.00  0.00    +0.000 S 
ATOM      2  O   UNL     1     146.077 128.236 100.002  0.00  0.00    +0.000 OA
ATOM      3  C   UNL     1     144.101 126.906  98.537  0.00  0.00    +0.000 A 
ATOM      4  C   UNL     1     144.114 126.938  99.960  0.00  0.00    +0.000 A 
ATOM      5  C   UNL     1     143.018 126.449 100.701  0.00  0.00    +0.000 A 
ATOM      6  C   UNL     1     141.913 125.920  99.994  0.00  0.00    +0.000 A 
ATOM      7  C   UNL     1     145.308 127.518 100.640  0.00  0.00    +0.000 A 
ATOM      8  C   UNL     1     142.994 126.347  97.889  0.00  0.00    +0.000 A 
ATOM      9  C   UNL     1     145.619 127.238 102.048  0.00  0.00    +0.000 A 
ATOM     10  C   UNL     1     141.907 125.872  98.603  0.00  0.00    +0.000 A 
ATOM     11  C   UNL     1     144.660 126.766 102.933  0.00  0.00    +0.000 A 
ATOM     12  C   UNL     1     140.676 125.365 100.666  0.00  0.00    +0.000 C 
ATOM     13  C   UNL     1     146.926 127.477 102.485  0.00  0.00    +0.000 A 
ATOM     14  C   UNL     1     145.026 126.527 104.260  0.00  0.00    +0.000 A 
ATOM     15  C   UNL     1     147.283 127.229 103.807  0.00  0.00    +0.000 A 
ATOM     16  C   UNL     1     146.329 126.749 104.698  0.00  0.00    +0.000 A 
ENDROOT
BRANCH   3  17
ATOM     17  N   UNL     1     145.237 127.273  97.769  0.00  0.00    +0.000 N 
ATOM     18  H   UNL     1     145.252 128.287  97.583  0.00  0.00    +0.000 HD
BRANCH  17  19
ATOM     19  C   UNL     1     145.679 126.410  96.686  0.00  0.00    +0.000 C 
ATOM     20  C   UNL     1     146.143 125.499  95.545  0.00  0.00    +0.000 C 
BRANCH  20  21
ATOM     21  N   UNL     1     146.585 124.626  94.470  0.00  0.00    +0.000 N 
BRANCH  21  22
ATOM     22  C   UNL     1     145.737 123.448  94.495  0.00  0.00    +0.000 C 
ATOM     23  C   UNL     1     144.830 122.215  94.525  0.00  0.00    +0.000 C 
ENDBRANCH  21  22
BRANCH  21  24
ATOM     24  C   UNL     1     147.922 124.176  94.808  0.00  0.00    +0.000 C 
ATOM     25  C   UNL     1     149.337 123.719  95.176  0.00  0.00    +0.000 C 
ENDBRANCH  21  24
ENDBRANCH  20  21
ENDBRANCH  17  19
ENDBRANCH   3  17
TORSDOF 5
ENDMDL
MODEL 9
REMARK VINA RESULT:      -5.6     34.098     36.582
REMARK  Name = LUCANTHONE.pdbqt.pdb
REMARK  5 active torsions:
REMARK  status: ('A' for Active; 'I' for Inactive)
REMARK    1  A    between atoms: C_3  and  N_17
REMARK    2  A    between atoms: N_17  and  C_19
REMARK    3  A    between atoms: C_20  and  N_21
REMARK    4  A    between atoms: N_21  and  C_22
REMARK    5  A    between atoms: N_21  and  C_24
REMARK                            x       y       z     vdW  Elec       q    Type
REMARK                         _______ _______ _______ _____ _____    ______ ____
ROOT
ATOM      1  S   UNL     1     137.766 122.437 136.404  0.00  0.00    +0.000 S 
ATOM      2  O   UNL     1     134.144 120.058 136.531  0.00  0.00    +0.000 OA
ATOM      3  C   UNL     1     134.702 121.079 133.987  0.00  0.00    +0.000 A 
ATOM      4  C   UNL     1     135.493 121.384 135.130  0.00  0.00    +0.000 A 
ATOM      5  C   UNL     1     136.715 122.076 134.996  0.00  0.00    +0.000 A 
ATOM      6  C   UNL     1     137.126 122.465 133.699  0.00  0.00    +0.000 A 
ATOM      7  C   UNL     1     135.004 120.936 136.466  0.00  0.00    +0.000 A 
ATOM      8  C   UNL     1     135.142 121.511 132.731  0.00  0.00    +0.000 A 
ATOM      9  C   UNL     1     135.494 121.529 137.718  0.00  0.00    +0.000 A 
ATOM     10  C   UNL     1     136.344 122.183 132.583  0.00  0.00    +0.000 A 
ATOM     11  C   UNL     1     136.687 122.234 137.780  0.00  0.00    +0.000 A 
ATOM     12  C   UNL     1     138.412 123.211 133.416  0.00  0.00    +0.000 C 
ATOM     13  C   UNL     1     134.718 121.350 138.868  0.00  0.00    +0.000 A 
ATOM     14  C   UNL     1     137.093 122.766 139.006  0.00  0.00    +0.000 A 
ATOM     15  C   UNL     1     135.128 121.890 140.084  0.00  0.00    +0.000 A 
ATOM     16  C   UNL     1     136.319 122.603 140.153  0.00  0.00    +0.000 A 
ENDROOT
BRANCH   3  17
ATOM     17  N   UNL     1     133.412 120.497 134.104  0.00  0.00    +0.000 N 
ATOM     18  H   UNL     1     133.265 120.096 135.042  0.00  0.00    +0.000 HD
BRANCH  17  19
ATOM     19  C   UNL     1     132.860 119.749 132.987  0.00  0.00    +0.000 C 
ATOM     20  C   UNL     1     132.277 118.961 131.809  0.00  0.00    +0.000 C 
BRANCH  20  21
ATOM     21  N   UNL     1     131.714 118.211 130.698  0.00  0.00    +0.000 N 
BRANCH  21  22
ATOM     22  C   UNL     1     132.823 117.647 129.952  0.00  0.00    +0.000 C 
ATOM     23  C   UNL     1     133.986 117.039 129.162  0.00  0.00    +0.000 C 
ENDBRANCH  21  22
BRANCH  21  24
ATOM     24  C   UNL     1     131.072 119.170 129.819  0.00  0.00    +0.000 C 
ATOM     25  C   UNL     1     130.401 120.197 128.902  0.00  0.00    +0.000 C 
ENDBRANCH  21  24
ENDBRANCH  20  21
ENDBRANCH  17  19
ENDBRANCH   3  17
TORSDOF 5
ENDMDL
