MODEL 1
REMARK VINA RESULT:      -6.2      0.000      0.000
REMARK  Name = MeIQx.pdbqt.pdb
REMARK  0 active torsions:
REMARK  status: ('A' for Active; 'I' for Inactive)
REMARK                            x       y       z     vdW  Elec       q    Type
REMARK                         _______ _______ _______ _____ _____    ______ ____
ROOT
ATOM      1  N   UNL     1     145.723 126.276 102.839  0.00  0.00    +0.000 N 
ATOM      2  N   UNL     1     146.032 124.741 101.273  0.00  0.00    +0.000 NA
ATOM      3  N   UNL     1     143.855 123.743  99.575  0.00  0.00    +0.000 NA
ATOM      4  N   UNL     1     141.265 124.840 100.015  0.00  0.00    +0.000 NA
ATOM      5  C   UNL     1     144.484 126.091 102.285  0.00  0.00    +0.000 A 
ATOM      6  C   UNL     1     144.700 125.123 101.305  0.00  0.00    +0.000 A 
ATOM      7  C   UNL     1     143.602 124.687 100.521  0.00  0.00    +0.000 A 
ATOM      8  C   UNL     1     142.319 125.242 100.751  0.00  0.00    +0.000 A 
ATOM      9  C   UNL     1     146.633 125.443 102.208  0.00  0.00    +0.000 A 
ATOM     10  C   UNL     1     143.231 126.657 102.533  0.00  0.00    +0.000 A 
ATOM     11  C   UNL     1     142.172 126.202 101.742  0.00  0.00    +0.000 A 
ATOM     12  C   UNL     1     146.027 127.217 103.878  0.00  0.00    +0.000 C 
ATOM     13  C   UNL     1     142.786 123.354  98.850  0.00  0.00    +0.000 A 
ATOM     14  C   UNL     1     141.521 123.892  99.068  0.00  0.00    +0.000 A 
ATOM     15  C   UNL     1     142.982 122.316  97.781  0.00  0.00    +0.000 C 
ATOM     16  N   UNL     1     147.946 125.374 102.519  0.00  0.00    +0.000 N 
ATOM     17  H   UNL     1     148.567 124.891 101.878  0.00  0.00    +0.000 HD
ATOM     18  H   UNL     1     148.385 126.092 103.093  0.00  0.00    +0.000 HD
ENDROOT
TORSDOF 0
ENDMDL
MODEL 2
REMARK VINA RESULT:      -6.0      1.277      4.944
REMARK  Name = MeIQx.pdbqt.pdb
REMARK  0 active torsions:
REMARK  status: ('A' for Active; 'I' for Inactive)
REMARK                            x       y       z     vdW  Elec       q    Type
REMARK                         _______ _______ _______ _____ _____    ______ ____
ROOT
ATOM      1  N   UNL     1     141.703 124.111  99.667  0.00  0.00    +0.000 N 
ATOM      2  N   UNL     1     143.851 123.946 100.176  0.00  0.00    +0.000 NA
ATOM      3  N   UNL     1     145.174 125.738 102.089  0.00  0.00    +0.000 NA
ATOM      4  N   UNL     1     143.565 127.748 103.301  0.00  0.00    +0.000 NA
ATOM      5  C   UNL     1     141.922 125.111 100.577  0.00  0.00    +0.000 A 
ATOM      6  C   UNL     1     143.277 124.990 100.883  0.00  0.00    +0.000 A 
ATOM      7  C   UNL     1     143.850 125.890 101.817  0.00  0.00    +0.000 A 
ATOM      8  C   UNL     1     143.037 126.885 102.412  0.00  0.00    +0.000 A 
ATOM      9  C   UNL     1     142.889 123.430  99.444  0.00  0.00    +0.000 A 
ATOM     10  C   UNL     1     141.096 126.081 101.150  0.00  0.00    +0.000 A 
ATOM     11  C   UNL     1     141.695 126.952 102.065  0.00  0.00    +0.000 A 
ATOM     12  C   UNL     1     140.433 123.801  99.076  0.00  0.00    +0.000 C 
ATOM     13  C   UNL     1     145.682 126.612 102.981  0.00  0.00    +0.000 A 
ATOM     14  C   UNL     1     144.893 127.594 103.572  0.00  0.00    +0.000 A 
ATOM     15  C   UNL     1     147.138 126.508 103.339  0.00  0.00    +0.000 C 
ATOM     16  N   UNL     1     143.021 122.387  98.594  0.00  0.00    +0.000 N 
ATOM     17  H   UNL     1     143.868 121.830  98.647  0.00  0.00    +0.000 HD
ATOM     18  H   UNL     1     142.203 121.904  98.230  0.00  0.00    +0.000 HD
ENDROOT
TORSDOF 0
ENDMDL
MODEL 3
REMARK VINA RESULT:      -5.6      1.569      5.770
REMARK  Name = MeIQx.pdbqt.pdb
REMARK  0 active torsions:
REMARK  status: ('A' for Active; 'I' for Inactive)
REMARK                            x       y       z     vdW  Elec       q    Type
REMARK                         _______ _______ _______ _____ _____    ______ ____
ROOT
ATOM      1  N   UNL     1     142.082 123.108  97.940  0.00  0.00    +0.000 N 
ATOM      2  N   UNL     1     141.476 124.417  99.619  0.00  0.00    +0.000 NA
ATOM      3  N   UNL     1     143.395 125.507 101.556  0.00  0.00    +0.000 NA
ATOM      4  N   UNL     1     146.130 124.807 101.199  0.00  0.00    +0.000 NA
ATOM      5  C   UNL     1     143.250 123.392  98.596  0.00  0.00    +0.000 A 
ATOM      6  C   UNL     1     142.847 124.215  99.647  0.00  0.00    +0.000 A 
ATOM      7  C   UNL     1     143.828 124.706 100.545  0.00  0.00    +0.000 A 
ATOM      8  C   UNL     1     145.186 124.350 100.355  0.00  0.00    +0.000 A 
ATOM      9  C   UNL     1     141.031 123.738  98.586  0.00  0.00    +0.000 A 
ATOM     10  C   UNL     1     144.580 123.027  98.382  0.00  0.00    +0.000 A 
ATOM     11  C   UNL     1     145.520 123.527  99.289  0.00  0.00    +0.000 A 
ATOM     12  C   UNL     1     141.981 122.315  96.748  0.00  0.00    +0.000 C 
ATOM     13  C   UNL     1     144.356 125.953 102.390  0.00  0.00    +0.000 A 
ATOM     14  C   UNL     1     145.693 125.609 102.212  0.00  0.00    +0.000 A 
ATOM     15  C   UNL     1     143.960 126.846 103.531  0.00  0.00    +0.000 C 
ATOM     16  N   UNL     1     139.739 123.658  98.196  0.00  0.00    +0.000 N 
ATOM     17  H   UNL     1     139.073 124.307  98.604  0.00  0.00    +0.000 HD
ATOM     18  H   UNL     1     139.492 123.302  97.275  0.00  0.00    +0.000 HD
ENDROOT
TORSDOF 0
ENDMDL
MODEL 4
REMARK VINA RESULT:      -5.6      3.488      5.492
REMARK  Name = MeIQx.pdbqt.pdb
REMARK  0 active torsions:
REMARK  status: ('A' for Active; 'I' for Inactive)
REMARK                            x       y       z     vdW  Elec       q    Type
REMARK                         _______ _______ _______ _____ _____    ______ ____
ROOT
ATOM      1  N   UNL     1     143.210 123.344  97.012  0.00  0.00    +0.000 N 
ATOM      2  N   UNL     1     141.226 122.683  97.740  0.00  0.00    +0.000 NA
ATOM      3  N   UNL     1     139.816 124.018  99.943  0.00  0.00    +0.000 NA
ATOM      4  N   UNL     1     141.115 126.247 101.146  0.00  0.00    +0.000 NA
ATOM      5  C   UNL     1     142.907 124.210  98.028  0.00  0.00    +0.000 A 
ATOM      6  C   UNL     1     141.657 123.778  98.472  0.00  0.00    +0.000 A 
ATOM      7  C   UNL     1     141.034 124.470  99.541  0.00  0.00    +0.000 A 
ATOM      8  C   UNL     1     141.692 125.578 100.130  0.00  0.00    +0.000 A 
ATOM      9  C   UNL     1     142.176 122.432  96.868  0.00  0.00    +0.000 A 
ATOM     10  C   UNL     1     143.578 125.300  98.588  0.00  0.00    +0.000 A 
ATOM     11  C   UNL     1     142.934 125.958  99.641  0.00  0.00    +0.000 A 
ATOM     12  C   UNL     1     144.394 123.405  96.204  0.00  0.00    +0.000 C 
ATOM     13  C   UNL     1     139.256 124.701 100.961  0.00  0.00    +0.000 A 
ATOM     14  C   UNL     1     139.893 125.791 101.548  0.00  0.00    +0.000 A 
ATOM     15  C   UNL     1     137.908 124.266 101.463  0.00  0.00    +0.000 C 
ATOM     16  N   UNL     1     142.162 121.435  95.955  0.00  0.00    +0.000 N 
ATOM     17  H   UNL     1     141.286 120.948  95.790  0.00  0.00    +0.000 HD
ATOM     18  H   UNL     1     142.816 121.430  95.176  0.00  0.00    +0.000 HD
ENDROOT
TORSDOF 0
ENDMDL
MODEL 5
REMARK VINA RESULT:      -5.5      1.851      2.659
REMARK  Name = MeIQx.pdbqt.pdb
REMARK  0 active torsions:
REMARK  status: ('A' for Active; 'I' for Inactive)
REMARK                            x       y       z     vdW  Elec       q    Type
REMARK                         _______ _______ _______ _____ _____    ______ ____
ROOT
ATOM      1  N   UNL     1     145.871 127.006 103.290  0.00  0.00    +0.000 N 
ATOM      2  N   UNL     1     143.917 125.971 103.414  0.00  0.00    +0.000 NA
ATOM      3  N   UNL     1     142.365 125.218 101.038  0.00  0.00    +0.000 NA
ATOM      4  N   UNL     1     143.479 125.877  98.503  0.00  0.00    +0.000 NA
ATOM      5  C   UNL     1     145.484 126.839 101.987  0.00  0.00    +0.000 A 
ATOM      6  C   UNL     1     144.254 126.188 102.087  0.00  0.00    +0.000 A 
ATOM      7  C   UNL     1     143.559 125.853 100.898  0.00  0.00    +0.000 A 
ATOM      8  C   UNL     1     144.126 126.187  99.643  0.00  0.00    +0.000 A 
ATOM      9  C   UNL     1     144.901 126.476 104.125  0.00  0.00    +0.000 A 
ATOM     10  C   UNL     1     146.068 127.178 100.765  0.00  0.00    +0.000 A 
ATOM     11  C   UNL     1     145.353 126.835  99.613  0.00  0.00    +0.000 A 
ATOM     12  C   UNL     1     147.106 127.601 103.711  0.00  0.00    +0.000 C 
ATOM     13  C   UNL     1     141.734 124.916  99.885  0.00  0.00    +0.000 A 
ATOM     14  C   UNL     1     142.281 125.240  98.647  0.00  0.00    +0.000 A 
ATOM     15  C   UNL     1     140.409 124.210  99.954  0.00  0.00    +0.000 C 
ATOM     16  N   UNL     1     144.970 126.482 105.475  0.00  0.00    +0.000 N 
ATOM     17  H   UNL     1     144.320 125.898 105.992  0.00  0.00    +0.000 HD
ATOM     18  H   UNL     1     145.846 126.686 105.951  0.00  0.00    +0.000 HD
ENDROOT
TORSDOF 0
ENDMDL
MODEL 6
REMARK VINA RESULT:      -5.5      3.371      4.951
REMARK  Name = MeIQx.pdbqt.pdb
REMARK  0 active torsions:
REMARK  status: ('A' for Active; 'I' for Inactive)
REMARK                            x       y       z     vdW  Elec       q    Type
REMARK                         _______ _______ _______ _____ _____    ______ ____
ROOT
ATOM      1  N   UNL     1     147.730 126.492  97.575  0.00  0.00    +0.000 N 
ATOM      2  N   UNL     1     147.277 127.580  99.450  0.00  0.00    +0.000 NA
ATOM      3  N   UNL     1     145.544 126.475 101.548  0.00  0.00    +0.000 NA
ATOM      4  N   UNL     1     144.435 123.896 101.083  0.00  0.00    +0.000 NA
ATOM      5  C   UNL     1     146.903 125.652  98.272  0.00  0.00    +0.000 A 
ATOM      6  C   UNL     1     146.630 126.354  99.446  0.00  0.00    +0.000 A 
ATOM      7  C   UNL     1     145.785 125.759 100.417  0.00  0.00    +0.000 A 
ATOM      8  C   UNL     1     145.240 124.475 100.172  0.00  0.00    +0.000 A 
ATOM      9  C   UNL     1     147.931 127.648  98.312  0.00  0.00    +0.000 A 
ATOM     10  C   UNL     1     146.383 124.384  98.005  0.00  0.00    +0.000 A 
ATOM     11  C   UNL     1     145.551 123.830  98.983  0.00  0.00    +0.000 A 
ATOM     12  C   UNL     1     148.321 126.195  96.302  0.00  0.00    +0.000 C 
ATOM     13  C   UNL     1     144.736 125.878 102.447  0.00  0.00    +0.000 A 
ATOM     14  C   UNL     1     144.195 124.616 102.216  0.00  0.00    +0.000 A 
ATOM     15  C   UNL     1     144.424 126.602 103.725  0.00  0.00    +0.000 C 
ATOM     16  N   UNL     1     148.695 128.687  97.907  0.00  0.00    +0.000 N 
ATOM     17  H   UNL     1     148.945 129.395  98.591  0.00  0.00    +0.000 HD
ATOM     18  H   UNL     1     149.341 128.587  97.128  0.00  0.00    +0.000 HD
ENDROOT
TORSDOF 0
ENDMDL
MODEL 7
REMARK VINA RESULT:      -5.5     32.012     33.794
REMARK  Name = MeIQx.pdbqt.pdb
REMARK  0 active torsions:
REMARK  status: ('A' for Active; 'I' for Inactive)
REMARK                            x       y       z     vdW  Elec       q    Type
REMARK                         _______ _______ _______ _____ _____    ______ ____
ROOT
ATOM      1  N   UNL     1     139.790 128.535 133.074  0.00  0.00    +0.000 N 
ATOM      2  N   UNL     1     141.186 128.448 134.790  0.00  0.00    +0.000 NA
ATOM      3  N   UNL     1     142.194 125.918 135.891  0.00  0.00    +0.000 NA
ATOM      4  N   UNL     1     141.295 123.520 134.650  0.00  0.00    +0.000 NA
ATOM      5  C   UNL     1     140.011 127.199 133.273  0.00  0.00    +0.000 A 
ATOM      6  C   UNL     1     140.890 127.165 134.356  0.00  0.00    +0.000 A 
ATOM      7  C   UNL     1     141.336 125.908 134.835  0.00  0.00    +0.000 A 
ATOM      8  C   UNL     1     140.881 124.722 134.208  0.00  0.00    +0.000 A 
ATOM      9  C   UNL     1     140.510 129.260 134.010  0.00  0.00    +0.000 A 
ATOM     10  C   UNL     1     139.547 126.047 132.633  0.00  0.00    +0.000 A 
ATOM     11  C   UNL     1     140.007 124.825 133.134  0.00  0.00    +0.000 A 
ATOM     12  C   UNL     1     138.972 129.087 132.033  0.00  0.00    +0.000 C 
ATOM     13  C   UNL     1     142.596 124.704 136.318  0.00  0.00    +0.000 A 
ATOM     14  C   UNL     1     142.154 123.533 135.710  0.00  0.00    +0.000 A 
ATOM     15  C   UNL     1     143.546 124.630 137.479  0.00  0.00    +0.000 C 
ATOM     16  N   UNL     1     140.509 130.609 134.094  0.00  0.00    +0.000 N 
ATOM     17  H   UNL     1     141.215 131.055 134.672  0.00  0.00    +0.000 HD
ATOM     18  H   UNL     1     140.146 131.180 133.333  0.00  0.00    +0.000 HD
ENDROOT
TORSDOF 0
ENDMDL
MODEL 8
REMARK VINA RESULT:      -5.2      2.486      5.849
REMARK  Name = MeIQx.pdbqt.pdb
REMARK  0 active torsions:
REMARK  status: ('A' for Active; 'I' for Inactive)
REMARK                            x       y       z     vdW  Elec       q    Type
REMARK                         _______ _______ _______ _____ _____    ______ ____
ROOT
ATOM      1  N   UNL     1     143.160 124.707  97.188  0.00  0.00    +0.000 N 
ATOM      2  N   UNL     1     143.570 126.620  98.225  0.00  0.00    +0.000 NA
ATOM      3  N   UNL     1     145.555 126.868 100.375  0.00  0.00    +0.000 NA
ATOM      4  N   UNL     1     146.971 124.510 101.106  0.00  0.00    +0.000 NA
ATOM      5  C   UNL     1     144.130 124.403  98.106  0.00  0.00    +0.000 A 
ATOM      6  C   UNL     1     144.373 125.618  98.747  0.00  0.00    +0.000 A 
ATOM      7  C   UNL     1     145.346 125.665  99.776  0.00  0.00    +0.000 A 
ATOM      8  C   UNL     1     146.043 124.484 100.129  0.00  0.00    +0.000 A 
ATOM      9  C   UNL     1     142.842 126.052  97.290  0.00  0.00    +0.000 A 
ATOM     10  C   UNL     1     144.803 123.223  98.431  0.00  0.00    +0.000 A 
ATOM     11  C   UNL     1     145.755 123.307  99.453  0.00  0.00    +0.000 A 
ATOM     12  C   UNL     1     142.599 123.780  96.248  0.00  0.00    +0.000 C 
ATOM     13  C   UNL     1     146.487 126.873 101.350  0.00  0.00    +0.000 A 
ATOM     14  C   UNL     1     147.177 125.718 101.705  0.00  0.00    +0.000 A 
ATOM     15  C   UNL     1     146.778 128.165 102.058  0.00  0.00    +0.000 C 
ATOM     16  N   UNL     1     141.915 126.675  96.529  0.00  0.00    +0.000 N 
ATOM     17  H   UNL     1     141.894 127.691  96.534  0.00  0.00    +0.000 HD
ATOM     18  H   UNL     1     141.550 126.236  95.687  0.00  0.00    +0.000 HD
ENDROOT
TORSDOF 0
ENDMDL
MODEL 9
REMARK VINA RESULT:      -5.2     34.016     36.328
REMARK  Name = MeIQx.pdbqt.pdb
REMARK  0 active torsions:
REMARK  status: ('A' for Active; 'I' for Inactive)
REMARK                            x       y       z     vdW  Elec       q    Type
REMARK                         _______ _______ _______ _____ _____    ______ ____
ROOT
ATOM      1  N   UNL     1     137.869 134.753 138.057  0.00  0.00    +0.000 N 
ATOM      2  N   UNL     1     138.973 132.882 137.628  0.00  0.00    +0.000 NA
ATOM      3  N   UNL     1     138.765 131.468 135.063  0.00  0.00    +0.000 NA
ATOM      4  N   UNL     1     137.056 132.607 133.093  0.00  0.00    +0.000 NA
ATOM      5  C   UNL     1     137.506 134.421 136.779  0.00  0.00    +0.000 A 
ATOM      6  C   UNL     1     138.209 133.243 136.529  0.00  0.00    +0.000 A 
ATOM      7  C   UNL     1     138.062 132.614 135.268  0.00  0.00    +0.000 A 
ATOM      8  C   UNL     1     137.208 133.192 134.297  0.00  0.00    +0.000 A 
ATOM      9  C   UNL     1     138.751 133.801 138.542  0.00  0.00    +0.000 A 
ATOM     10  C   UNL     1     136.659 135.016 135.841  0.00  0.00    +0.000 A 
ATOM     11  C   UNL     1     136.537 134.366 134.608  0.00  0.00    +0.000 A 
ATOM     12  C   UNL     1     137.432 135.926 138.758  0.00  0.00    +0.000 C 
ATOM     13  C   UNL     1     138.599 130.898 133.852  0.00  0.00    +0.000 A 
ATOM     14  C   UNL     1     137.763 131.458 132.892  0.00  0.00    +0.000 A 
ATOM     15  C   UNL     1     139.345 129.630 133.547  0.00  0.00    +0.000 C 
ATOM     16  N   UNL     1     139.299 133.828 139.777  0.00  0.00    +0.000 N 
ATOM     17  H   UNL     1     140.080 133.208 139.970  0.00  0.00    +0.000 HD
ATOM     18  H   UNL     1     139.260 134.670 140.347  0.00  0.00    +0.000 HD
ENDROOT
TORSDOF 0
ENDMDL
