MODEL 1
REMARK VINA RESULT:      -5.8      0.000      0.000
REMARK  Name = Monobenzone.pdbqt.pdb
REMARK  4 active torsions:
REMARK  status: ('A' for Active; 'I' for Inactive)
REMARK    1  A    between atoms: C_1  and  O_7
REMARK    2  A    between atoms: C_6  and  O_15
REMARK    3  A    between atoms: O_7  and  C_8
REMARK    4  A    between atoms: C_8  and  C_9
REMARK                            x       y       z     vdW  Elec       q    Type
REMARK                         _______ _______ _______ _____ _____    ______ ____
ROOT
ATOM      1  C   UNL     1     138.339 124.654 133.204  0.00  0.00    +0.000 A 
ATOM      2  C   UNL     1     139.060 125.820 132.931  0.00  0.00    +0.000 A 
ATOM      3  C   UNL     1     138.729 123.833 134.263  0.00  0.00    +0.000 A 
ATOM      4  C   UNL     1     140.161 126.163 133.711  0.00  0.00    +0.000 A 
ATOM      5  C   UNL     1     139.830 124.170 135.046  0.00  0.00    +0.000 A 
ATOM      6  C   UNL     1     140.537 125.334 134.763  0.00  0.00    +0.000 A 
ENDROOT
BRANCH   6   7
ATOM      7  O   UNL     1     141.612 125.646 135.544  0.00  0.00    +0.000 OA
ATOM      8  H   UNL     1     141.683 126.615 135.594  0.00  0.00    +0.000 HD
ENDBRANCH   6   7
BRANCH   1   9
ATOM      9  O   UNL     1     137.243 124.235 132.493  0.00  0.00    +0.000 OA
BRANCH   9  10
ATOM     10  C   UNL     1     136.312 123.616 133.215  0.00  0.00    +0.000 C 
BRANCH  10  11
ATOM     11  C   UNL     1     135.306 122.967 133.991  0.00  0.00    +0.000 A 
ATOM     12  C   UNL     1     134.711 121.800 133.517  0.00  0.00    +0.000 A 
ATOM     13  C   UNL     1     133.724 121.169 134.272  0.00  0.00    +0.000 A 
ATOM     14  C   UNL     1     133.336 121.705 135.497  0.00  0.00    +0.000 A 
ATOM     15  C   UNL     1     133.933 122.872 135.969  0.00  0.00    +0.000 A 
ATOM     16  C   UNL     1     134.919 123.504 135.216  0.00  0.00    +0.000 A 
ENDBRANCH  10  11
ENDBRANCH   9  10
ENDBRANCH   1   9
TORSDOF 4
ENDMDL
MODEL 2
REMARK VINA RESULT:      -5.7     22.686     24.587
REMARK  Name = Monobenzone.pdbqt.pdb
REMARK  4 active torsions:
REMARK  status: ('A' for Active; 'I' for Inactive)
REMARK    1  A    between atoms: C_1  and  O_7
REMARK    2  A    between atoms: C_6  and  O_15
REMARK    3  A    between atoms: O_7  and  C_8
REMARK    4  A    between atoms: C_8  and  C_9
REMARK                            x       y       z     vdW  Elec       q    Type
REMARK                         _______ _______ _______ _____ _____    ______ ____
ROOT
ATOM      1  C   UNL     1     134.349 129.562 111.695  0.00  0.00    +0.000 A 
ATOM      2  C   UNL     1     134.368 130.931 111.420  0.00  0.00    +0.000 A 
ATOM      3  C   UNL     1     133.424 128.740 111.049  0.00  0.00    +0.000 A 
ATOM      4  C   UNL     1     133.469 131.476 110.507  0.00  0.00    +0.000 A 
ATOM      5  C   UNL     1     132.522 129.280 110.135  0.00  0.00    +0.000 A 
ATOM      6  C   UNL     1     132.553 130.645 109.871  0.00  0.00    +0.000 A 
ENDROOT
BRANCH   6   7
ATOM      7  O   UNL     1     131.661 131.152 108.972  0.00  0.00    +0.000 OA
ATOM      8  H   UNL     1     130.824 130.664 109.063  0.00  0.00    +0.000 HD
ENDBRANCH   6   7
BRANCH   1   9
ATOM      9  O   UNL     1     135.193 128.934 112.577  0.00  0.00    +0.000 OA
BRANCH   9  10
ATOM     10  C   UNL     1     136.251 128.351 112.019  0.00  0.00    +0.000 C 
BRANCH  10  11
ATOM     11  C   UNL     1     137.376 127.720 111.410  0.00  0.00    +0.000 A 
ATOM     12  C   UNL     1     138.277 127.003 112.193  0.00  0.00    +0.000 A 
ATOM     13  C   UNL     1     139.379 126.392 111.598  0.00  0.00    +0.000 A 
ATOM     14  C   UNL     1     139.576 126.498 110.224  0.00  0.00    +0.000 A 
ATOM     15  C   UNL     1     138.673 127.215 109.442  0.00  0.00    +0.000 A 
ATOM     16  C   UNL     1     137.572 127.827 110.035  0.00  0.00    +0.000 A 
ENDBRANCH  10  11
ENDBRANCH   9  10
ENDBRANCH   1   9
TORSDOF 4
ENDMDL
MODEL 3
REMARK VINA RESULT:      -5.6     32.595     34.194
REMARK  Name = Monobenzone.pdbqt.pdb
REMARK  4 active torsions:
REMARK  status: ('A' for Active; 'I' for Inactive)
REMARK    1  A    between atoms: C_1  and  O_7
REMARK    2  A    between atoms: C_6  and  O_15
REMARK    3  A    between atoms: O_7  and  C_8
REMARK    4  A    between atoms: C_8  and  C_9
REMARK                            x       y       z     vdW  Elec       q    Type
REMARK                         _______ _______ _______ _____ _____    ______ ____
ROOT
ATOM      1  C   UNL     1     145.413 125.368 101.856  0.00  0.00    +0.000 A 
ATOM      2  C   UNL     1     146.406 126.350 101.856  0.00  0.00    +0.000 A 
ATOM      3  C   UNL     1     144.242 125.568 102.589  0.00  0.00    +0.000 A 
ATOM      4  C   UNL     1     146.231 127.525 102.582  0.00  0.00    +0.000 A 
ATOM      5  C   UNL     1     144.062 126.741 103.318  0.00  0.00    +0.000 A 
ATOM      6  C   UNL     1     145.059 127.711 103.308  0.00  0.00    +0.000 A 
ENDROOT
BRANCH   6   7
ATOM      7  O   UNL     1     144.861 128.852 104.029  0.00  0.00    +0.000 OA
ATOM      8  H   UNL     1     144.088 128.720 104.604  0.00  0.00    +0.000 HD
ENDBRANCH   6   7
BRANCH   1   9
ATOM      9  O   UNL     1     145.495 124.180 101.172  0.00  0.00    +0.000 OA
BRANCH   9  10
ATOM     10  C   UNL     1     144.460 123.921 100.377  0.00  0.00    +0.000 C 
BRANCH  10  11
ATOM     11  C   UNL     1     143.346 123.631  99.534  0.00  0.00    +0.000 A 
ATOM     12  C   UNL     1     143.517 122.826  98.411  0.00  0.00    +0.000 A 
ATOM     13  C   UNL     1     142.430 122.548  97.585  0.00  0.00    +0.000 A 
ATOM     14  C   UNL     1     141.176 123.074  97.885  0.00  0.00    +0.000 A 
ATOM     15  C   UNL     1     141.007 123.878  99.010  0.00  0.00    +0.000 A 
ATOM     16  C   UNL     1     142.092 124.158  99.836  0.00  0.00    +0.000 A 
ENDBRANCH  10  11
ENDBRANCH   9  10
ENDBRANCH   1   9
TORSDOF 4
ENDMDL
MODEL 4
REMARK VINA RESULT:      -5.5      2.979      6.788
REMARK  Name = Monobenzone.pdbqt.pdb
REMARK  4 active torsions:
REMARK  status: ('A' for Active; 'I' for Inactive)
REMARK    1  A    between atoms: C_1  and  O_7
REMARK    2  A    between atoms: C_6  and  O_15
REMARK    3  A    between atoms: O_7  and  C_8
REMARK    4  A    between atoms: C_8  and  C_9
REMARK                            x       y       z     vdW  Elec       q    Type
REMARK                         _______ _______ _______ _____ _____    ______ ____
ROOT
ATOM      1  C   UNL     1     138.841 124.030 134.479  0.00  0.00    +0.000 A 
ATOM      2  C   UNL     1     138.379 122.883 135.129  0.00  0.00    +0.000 A 
ATOM      3  C   UNL     1     138.046 124.643 133.509  0.00  0.00    +0.000 A 
ATOM      4  C   UNL     1     137.130 122.353 134.813  0.00  0.00    +0.000 A 
ATOM      5  C   UNL     1     136.798 124.116 133.189  0.00  0.00    +0.000 A 
ATOM      6  C   UNL     1     136.349 122.974 133.845  0.00  0.00    +0.000 A 
ENDROOT
BRANCH   6   7
ATOM      7  O   UNL     1     135.123 122.477 133.516  0.00  0.00    +0.000 OA
ATOM      8  H   UNL     1     134.444 123.068 133.884  0.00  0.00    +0.000 HD
ENDBRANCH   6   7
BRANCH   1   9
ATOM      9  O   UNL     1     140.054 124.625 134.722  0.00  0.00    +0.000 OA
BRANCH   9  10
ATOM     10  C   UNL     1     141.089 123.788 134.763  0.00  0.00    +0.000 C 
BRANCH  10  11
ATOM     11  C   UNL     1     142.187 122.880 134.810  0.00  0.00    +0.000 A 
ATOM     12  C   UNL     1     143.172 123.034 135.783  0.00  0.00    +0.000 A 
ATOM     13  C   UNL     1     144.248 122.149 135.825  0.00  0.00    +0.000 A 
ATOM     14  C   UNL     1     144.336 121.115 134.897  0.00  0.00    +0.000 A 
ATOM     15  C   UNL     1     143.349 120.964 133.925  0.00  0.00    +0.000 A 
ATOM     16  C   UNL     1     142.274 121.846 133.881  0.00  0.00    +0.000 A 
ENDBRANCH  10  11
ENDBRANCH   9  10
ENDBRANCH   1   9
TORSDOF 4
ENDMDL
MODEL 5
REMARK VINA RESULT:      -5.5      2.343      6.191
REMARK  Name = Monobenzone.pdbqt.pdb
REMARK  4 active torsions:
REMARK  status: ('A' for Active; 'I' for Inactive)
REMARK    1  A    between atoms: C_1  and  O_7
REMARK    2  A    between atoms: C_6  and  O_15
REMARK    3  A    between atoms: O_7  and  C_8
REMARK    4  A    between atoms: C_8  and  C_9
REMARK                            x       y       z     vdW  Elec       q    Type
REMARK                         _______ _______ _______ _____ _____    ______ ____
ROOT
ATOM      1  C   UNL     1     137.416 123.126 133.680  0.00  0.00    +0.000 A 
ATOM      2  C   UNL     1     137.837 122.331 134.748  0.00  0.00    +0.000 A 
ATOM      3  C   UNL     1     136.234 123.861 133.788  0.00  0.00    +0.000 A 
ATOM      4  C   UNL     1     137.084 122.271 135.918  0.00  0.00    +0.000 A 
ATOM      5  C   UNL     1     135.476 123.803 134.955  0.00  0.00    +0.000 A 
ATOM      6  C   UNL     1     135.908 123.008 136.012  0.00  0.00    +0.000 A 
ENDROOT
BRANCH   6   7
ATOM      7  O   UNL     1     135.150 122.968 137.145  0.00  0.00    +0.000 OA
ATOM      8  H   UNL     1     134.260 123.297 136.930  0.00  0.00    +0.000 HD
ENDBRANCH   6   7
BRANCH   1   9
ATOM      9  O   UNL     1     138.090 123.250 132.490  0.00  0.00    +0.000 OA
BRANCH   9  10
ATOM     10  C   UNL     1     138.740 124.400 132.333  0.00  0.00    +0.000 C 
BRANCH  10  11
ATOM     11  C   UNL     1     139.441 125.628 132.149  0.00  0.00    +0.000 A 
ATOM     12  C   UNL     1     139.125 126.731 132.939  0.00  0.00    +0.000 A 
ATOM     13  C   UNL     1     139.806 127.933 132.755  0.00  0.00    +0.000 A 
ATOM     14  C   UNL     1     140.799 128.029 131.784  0.00  0.00    +0.000 A 
ATOM     15  C   UNL     1     141.114 126.924 130.996  0.00  0.00    +0.000 A 
ATOM     16  C   UNL     1     140.435 125.722 131.178  0.00  0.00    +0.000 A 
ENDBRANCH  10  11
ENDBRANCH   9  10
ENDBRANCH   1   9
TORSDOF 4
ENDMDL
MODEL 6
REMARK VINA RESULT:      -5.5      3.477      4.856
REMARK  Name = Monobenzone.pdbqt.pdb
REMARK  4 active torsions:
REMARK  status: ('A' for Active; 'I' for Inactive)
REMARK    1  A    between atoms: C_1  and  O_7
REMARK    2  A    between atoms: C_6  and  O_15
REMARK    3  A    between atoms: O_7  and  C_8
REMARK    4  A    between atoms: C_8  and  C_9
REMARK                            x       y       z     vdW  Elec       q    Type
REMARK                         _______ _______ _______ _____ _____    ______ ____
ROOT
ATOM      1  C   UNL     1     137.600 122.422 136.027  0.00  0.00    +0.000 A 
ATOM      2  C   UNL     1     138.652 122.716 135.156  0.00  0.00    +0.000 A 
ATOM      3  C   UNL     1     136.305 122.834 135.711  0.00  0.00    +0.000 A 
ATOM      4  C   UNL     1     138.411 123.416 133.976  0.00  0.00    +0.000 A 
ATOM      5  C   UNL     1     136.058 123.535 134.533  0.00  0.00    +0.000 A 
ATOM      6  C   UNL     1     137.115 123.821 133.675  0.00  0.00    +0.000 A 
ENDROOT
BRANCH   6   7
ATOM      7  O   UNL     1     136.850 124.508 132.526  0.00  0.00    +0.000 OA
ATOM      8  H   UNL     1     136.187 125.192 132.725  0.00  0.00    +0.000 HD
ENDBRANCH   6   7
BRANCH   1   9
ATOM      9  O   UNL     1     137.739 121.738 137.209  0.00  0.00    +0.000 OA
BRANCH   9  10
ATOM     10  C   UNL     1     136.865 122.074 138.155  0.00  0.00    +0.000 C 
BRANCH  10  11
ATOM     11  C   UNL     1     135.941 122.443 139.177  0.00  0.00    +0.000 A 
ATOM     12  C   UNL     1     134.666 121.882 139.193  0.00  0.00    +0.000 A 
ATOM     13  C   UNL     1     133.761 122.247 140.188  0.00  0.00    +0.000 A 
ATOM     14  C   UNL     1     134.133 123.169 141.163  0.00  0.00    +0.000 A 
ATOM     15  C   UNL     1     135.410 123.728 141.145  0.00  0.00    +0.000 A 
ATOM     16  C   UNL     1     136.315 123.365 140.151  0.00  0.00    +0.000 A 
ENDBRANCH  10  11
ENDBRANCH   9  10
ENDBRANCH   1   9
TORSDOF 4
ENDMDL
MODEL 7
REMARK VINA RESULT:      -5.3      2.916      4.825
REMARK  Name = Monobenzone.pdbqt.pdb
REMARK  4 active torsions:
REMARK  status: ('A' for Active; 'I' for Inactive)
REMARK    1  A    between atoms: C_1  and  O_7
REMARK    2  A    between atoms: C_6  and  O_15
REMARK    3  A    between atoms: O_7  and  C_8
REMARK    4  A    between atoms: C_8  and  C_9
REMARK                            x       y       z     vdW  Elec       q    Type
REMARK                         _______ _______ _______ _____ _____    ______ ____
ROOT
ATOM      1  C   UNL     1     135.152 122.742 134.394  0.00  0.00    +0.000 A 
ATOM      2  C   UNL     1     135.267 121.723 133.445  0.00  0.00    +0.000 A 
ATOM      3  C   UNL     1     136.044 123.815 134.368  0.00  0.00    +0.000 A 
ATOM      4  C   UNL     1     136.266 121.777 132.476  0.00  0.00    +0.000 A 
ATOM      5  C   UNL     1     137.045 123.873 133.403  0.00  0.00    +0.000 A 
ATOM      6  C   UNL     1     137.148 122.852 132.463  0.00  0.00    +0.000 A 
ENDROOT
BRANCH   6   7
ATOM      7  O   UNL     1     138.136 122.931 131.526  0.00  0.00    +0.000 OA
ATOM      8  H   UNL     1     138.760 123.627 131.797  0.00  0.00    +0.000 HD
ENDBRANCH   6   7
BRANCH   1   9
ATOM      9  O   UNL     1     134.202 122.777 135.384  0.00  0.00    +0.000 OA
BRANCH   9  10
ATOM     10  C   UNL     1     134.684 122.725 136.623  0.00  0.00    +0.000 C 
BRANCH  10  11
ATOM     11  C   UNL     1     135.209 122.656 137.948  0.00  0.00    +0.000 A 
ATOM     12  C   UNL     1     134.340 122.604 139.035  0.00  0.00    +0.000 A 
ATOM     13  C   UNL     1     134.853 122.542 140.330  0.00  0.00    +0.000 A 
ATOM     14  C   UNL     1     136.231 122.532 140.532  0.00  0.00    +0.000 A 
ATOM     15  C   UNL     1     137.098 122.583 139.442  0.00  0.00    +0.000 A 
ATOM     16  C   UNL     1     136.587 122.645 138.149  0.00  0.00    +0.000 A 
ENDBRANCH  10  11
ENDBRANCH   9  10
ENDBRANCH   1   9
TORSDOF 4
ENDMDL
MODEL 8
REMARK VINA RESULT:      -5.3     33.508     35.180
REMARK  Name = Monobenzone.pdbqt.pdb
REMARK  4 active torsions:
REMARK  status: ('A' for Active; 'I' for Inactive)
REMARK    1  A    between atoms: C_1  and  O_7
REMARK    2  A    between atoms: C_6  and  O_15
REMARK    3  A    between atoms: O_7  and  C_8
REMARK    4  A    between atoms: C_8  and  C_9
REMARK                            x       y       z     vdW  Elec       q    Type
REMARK                         _______ _______ _______ _____ _____    ______ ____
ROOT
ATOM      1  C   UNL     1     145.102 125.198 101.771  0.00  0.00    +0.000 A 
ATOM      2  C   UNL     1     146.373 125.475 101.259  0.00  0.00    +0.000 A 
ATOM      3  C   UNL     1     144.471 126.130 102.596  0.00  0.00    +0.000 A 
ATOM      4  C   UNL     1     147.007 126.675 101.569  0.00  0.00    +0.000 A 
ATOM      5  C   UNL     1     145.101 127.331 102.910  0.00  0.00    +0.000 A 
ATOM      6  C   UNL     1     146.365 127.595 102.393  0.00  0.00    +0.000 A 
ENDROOT
BRANCH   6   7
ATOM      7  O   UNL     1     146.963 128.778 102.713  0.00  0.00    +0.000 OA
ATOM      8  H   UNL     1     146.900 129.370 101.944  0.00  0.00    +0.000 HD
ENDBRANCH   6   7
BRANCH   1   9
ATOM      9  O   UNL     1     144.399 124.046 101.521  0.00  0.00    +0.000 OA
BRANCH   9  10
ATOM     10  C   UNL     1     144.281 123.731 100.234  0.00  0.00    +0.000 C 
BRANCH  10  11
ATOM     11  C   UNL     1     144.171 123.394  98.852  0.00  0.00    +0.000 A 
ATOM     12  C   UNL     1     143.137 122.566  98.421  0.00  0.00    +0.000 A 
ATOM     13  C   UNL     1     143.032 122.233  97.072  0.00  0.00    +0.000 A 
ATOM     14  C   UNL     1     143.961 122.727  96.159  0.00  0.00    +0.000 A 
ATOM     15  C   UNL     1     144.994 123.555  96.593  0.00  0.00    +0.000 A 
ATOM     16  C   UNL     1     145.100 123.889  97.940  0.00  0.00    +0.000 A 
ENDBRANCH  10  11
ENDBRANCH   9  10
ENDBRANCH   1   9
TORSDOF 4
ENDMDL
MODEL 9
REMARK VINA RESULT:      -5.1      3.966      6.340
REMARK  Name = Monobenzone.pdbqt.pdb
REMARK  4 active torsions:
REMARK  status: ('A' for Active; 'I' for Inactive)
REMARK    1  A    between atoms: C_1  and  O_7
REMARK    2  A    between atoms: C_6  and  O_15
REMARK    3  A    between atoms: O_7  and  C_8
REMARK    4  A    between atoms: C_8  and  C_9
REMARK                            x       y       z     vdW  Elec       q    Type
REMARK                         _______ _______ _______ _____ _____    ______ ____
ROOT
ATOM      1  C   UNL     1     136.514 121.947 138.466  0.00  0.00    +0.000 A 
ATOM      2  C   UNL     1     135.201 121.472 138.407  0.00  0.00    +0.000 A 
ATOM      3  C   UNL     1     136.867 122.885 139.437  0.00  0.00    +0.000 A 
ATOM      4  C   UNL     1     134.248 121.931 139.312  0.00  0.00    +0.000 A 
ATOM      5  C   UNL     1     135.917 123.349 140.344  0.00  0.00    +0.000 A 
ATOM      6  C   UNL     1     134.614 122.867 140.274  0.00  0.00    +0.000 A 
ENDROOT
BRANCH   6   7
ATOM      7  O   UNL     1     133.700 123.335 141.173  0.00  0.00    +0.000 OA
ATOM      8  H   UNL     1     134.042 124.161 141.554  0.00  0.00    +0.000 HD
ENDBRANCH   6   7
BRANCH   1   9
ATOM      9  O   UNL     1     137.521 121.554 137.620  0.00  0.00    +0.000 OA
BRANCH   9  10
ATOM     10  C   UNL     1     137.651 122.296 136.524  0.00  0.00    +0.000 C 
BRANCH  10  11
ATOM     11  C   UNL     1     137.783 123.103 135.355  0.00  0.00    +0.000 A 
ATOM     12  C   UNL     1     136.667 123.361 134.562  0.00  0.00    +0.000 A 
ATOM     13  C   UNL     1     136.797 124.145 133.417  0.00  0.00    +0.000 A 
ATOM     14  C   UNL     1     138.040 124.670 133.070  0.00  0.00    +0.000 A 
ATOM     15  C   UNL     1     139.154 124.411 133.866  0.00  0.00    +0.000 A 
ATOM     16  C   UNL     1     139.026 123.627 135.010  0.00  0.00    +0.000 A 
ENDBRANCH  10  11
ENDBRANCH   9  10
ENDBRANCH   1   9
TORSDOF 4
ENDMDL
