MODEL 1
REMARK VINA RESULT:      -5.6      0.000      0.000
REMARK  Name = 
REMARK  5 active torsions:
REMARK  status: ('A' for Active; 'I' for Inactive)
REMARK    1  A    between atoms: O_4  and  C_15
REMARK    2  A    between atoms: C_6  and  C_13
REMARK    3  A    between atoms: C_7  and  C_12
REMARK    4  A    between atoms: C_8  and  C_14
REMARK    5  A    between atoms: C_12  and  C_15
REMARK                            x       y       z     vdW  Elec       q    Type
REMARK                         _______ _______ _______ _____ _____    ______ ____
ROOT
ATOM      1  C   UNL     1     139.014 123.620 134.490  0.00  0.00    +0.000 A 
ATOM      2  C   UNL     1     137.167 122.563 135.705  0.00  0.00    +0.000 A 
ATOM      3  C   UNL     1     138.084 124.335 133.705  0.00  0.00    +0.000 A 
ATOM      4  C   UNL     1     138.539 122.740 135.483  0.00  0.00    +0.000 A 
ATOM      5  C   UNL     1     136.257 123.269 134.912  0.00  0.00    +0.000 A 
ATOM      6  C   UNL     1     136.712 124.146 133.925  0.00  0.00    +0.000 A 
ATOM      7  C   UNL     1     138.530 125.285 132.626  0.00  0.00    +0.000 C 
ENDROOT
BRANCH   1  11
ATOM      8  F   UNL     1     140.910 123.413 133.039  0.00  0.00    +0.000 F 
ATOM      9  F   UNL     1     140.948 125.058 134.453  0.00  0.00    +0.000 F 
ATOM     10  F   UNL     1     141.242 123.025 135.155  0.00  0.00    +0.000 F 
ATOM     11  C   UNL     1     140.507 123.778 134.289  0.00  0.00    +0.000 C 
ENDBRANCH   1  11
BRANCH   2  12
ATOM     12  C   UNL     1     136.677 121.601 136.761  0.00  0.00    +0.000 C 
BRANCH  12  14
ATOM     13  O   UNL     1     135.751 122.853 138.666  0.00  0.00    +0.000 OA
ATOM     14  C   UNL     1     136.635 122.188 138.151  0.00  0.00    +0.000 C 
BRANCH  14  15
ATOM     15  O   UNL     1     137.743 121.879 138.858  0.00  0.00    +0.000 OA
ATOM     16  H   UNL     1     137.551 122.229 139.755  0.00  0.00    +0.000 HD
ENDBRANCH  14  15
ENDBRANCH  12  14
ENDBRANCH   2  12
TORSDOF 4
ENDMDL
MODEL 2
REMARK VINA RESULT:      -5.5      4.382      5.899
REMARK  Name = 
REMARK  5 active torsions:
REMARK  status: ('A' for Active; 'I' for Inactive)
REMARK    1  A    between atoms: O_4  and  C_15
REMARK    2  A    between atoms: C_6  and  C_13
REMARK    3  A    between atoms: C_7  and  C_12
REMARK    4  A    between atoms: C_8  and  C_14
REMARK    5  A    between atoms: C_12  and  C_15
REMARK                            x       y       z     vdW  Elec       q    Type
REMARK                         _______ _______ _______ _____ _____    ______ ____
ROOT
ATOM      1  C   UNL     1     137.611 123.701 133.969  0.00  0.00    +0.000 A 
ATOM      2  C   UNL     1     139.038 125.531 133.183  0.00  0.00    +0.000 A 
ATOM      3  C   UNL     1     138.552 123.405 134.979  0.00  0.00    +0.000 A 
ATOM      4  C   UNL     1     137.870 124.765 133.082  0.00  0.00    +0.000 A 
ATOM      5  C   UNL     1     139.967 125.220 134.180  0.00  0.00    +0.000 A 
ATOM      6  C   UNL     1     139.725 124.171 135.069  0.00  0.00    +0.000 A 
ATOM      7  C   UNL     1     138.335 122.279 135.953  0.00  0.00    +0.000 C 
ENDROOT
BRANCH   1  11
ATOM      8  F   UNL     1     136.563 121.567 133.667  0.00  0.00    +0.000 F 
ATOM      9  F   UNL     1     135.496 123.005 134.891  0.00  0.00    +0.000 F 
ATOM     10  F   UNL     1     135.593 123.281 132.740  0.00  0.00    +0.000 F 
ATOM     11  C   UNL     1     136.333 122.902 133.820  0.00  0.00    +0.000 C 
ENDBRANCH   1  11
BRANCH   2  12
ATOM     12  C   UNL     1     139.307 126.655 132.210  0.00  0.00    +0.000 C 
BRANCH  12  14
ATOM     13  O   UNL     1     141.545 127.104 131.294  0.00  0.00    +0.000 OA
ATOM     14  C   UNL     1     140.524 126.439 131.346  0.00  0.00    +0.000 C 
BRANCH  14  15
ATOM     15  O   UNL     1     140.399 125.339 130.572  0.00  0.00    +0.000 OA
ATOM     16  H   UNL     1     140.786 125.614 129.713  0.00  0.00    +0.000 HD
ENDBRANCH  14  15
ENDBRANCH  12  14
ENDBRANCH   2  12
TORSDOF 4
ENDMDL
MODEL 3
REMARK VINA RESULT:      -5.5      3.503      4.681
REMARK  Name = 
REMARK  5 active torsions:
REMARK  status: ('A' for Active; 'I' for Inactive)
REMARK    1  A    between atoms: O_4  and  C_15
REMARK    2  A    between atoms: C_6  and  C_13
REMARK    3  A    between atoms: C_7  and  C_12
REMARK    4  A    between atoms: C_8  and  C_14
REMARK    5  A    between atoms: C_12  and  C_15
REMARK                            x       y       z     vdW  Elec       q    Type
REMARK                         _______ _______ _______ _____ _____    ______ ____
ROOT
ATOM      1  C   UNL     1     137.785 122.971 134.853  0.00  0.00    +0.000 A 
ATOM      2  C   UNL     1     140.118 123.261 134.162  0.00  0.00    +0.000 A 
ATOM      3  C   UNL     1     137.361 123.296 133.546  0.00  0.00    +0.000 A 
ATOM      4  C   UNL     1     139.164 122.959 135.143  0.00  0.00    +0.000 A 
ATOM      5  C   UNL     1     139.684 123.593 132.876  0.00  0.00    +0.000 A 
ATOM      6  C   UNL     1     138.321 123.608 132.572  0.00  0.00    +0.000 A 
ATOM      7  C   UNL     1     135.903 123.331 133.177  0.00  0.00    +0.000 C 
ENDROOT
BRANCH   1  11
ATOM      8  F   UNL     1     136.157 121.449 135.734  0.00  0.00    +0.000 F 
ATOM      9  F   UNL     1     137.359 122.527 137.183  0.00  0.00    +0.000 F 
ATOM     10  F   UNL     1     135.809 123.570 136.076  0.00  0.00    +0.000 F 
ATOM     11  C   UNL     1     136.793 122.636 135.947  0.00  0.00    +0.000 C 
ENDBRANCH   1  11
BRANCH   2  12
ATOM     12  C   UNL     1     141.591 123.261 134.497  0.00  0.00    +0.000 C 
BRANCH  12  14
ATOM     13  O   UNL     1     142.712 121.603 135.927  0.00  0.00    +0.000 OA
ATOM     14  C   UNL     1     142.126 121.910 134.902  0.00  0.00    +0.000 C 
BRANCH  14  15
ATOM     15  O   UNL     1     141.869 120.969 133.968  0.00  0.00    +0.000 OA
ATOM     16  H   UNL     1     140.896 121.023 133.847  0.00  0.00    +0.000 HD
ENDBRANCH  14  15
ENDBRANCH  12  14
ENDBRANCH   2  12
TORSDOF 4
ENDMDL
MODEL 4
REMARK VINA RESULT:      -5.5     33.066     34.012
REMARK  Name = 
REMARK  5 active torsions:
REMARK  status: ('A' for Active; 'I' for Inactive)
REMARK    1  A    between atoms: O_4  and  C_15
REMARK    2  A    between atoms: C_6  and  C_13
REMARK    3  A    between atoms: C_7  and  C_12
REMARK    4  A    between atoms: C_8  and  C_14
REMARK    5  A    between atoms: C_12  and  C_15
REMARK                            x       y       z     vdW  Elec       q    Type
REMARK                         _______ _______ _______ _____ _____    ______ ____
ROOT
ATOM      1  C   UNL     1     145.942 126.186 102.084  0.00  0.00    +0.000 A 
ATOM      2  C   UNL     1     143.505 126.445 102.113  0.00  0.00    +0.000 A 
ATOM      3  C   UNL     1     146.058 127.202 103.058  0.00  0.00    +0.000 A 
ATOM      4  C   UNL     1     144.661 125.822 101.624  0.00  0.00    +0.000 A 
ATOM      5  C   UNL     1     143.636 127.457 103.069  0.00  0.00    +0.000 A 
ATOM      6  C   UNL     1     144.897 127.828 103.536  0.00  0.00    +0.000 A 
ATOM      7  C   UNL     1     147.398 127.639 103.584  0.00  0.00    +0.000 C 
ENDROOT
BRANCH   1  11
ATOM      8  F   UNL     1     147.927 126.299 100.747  0.00  0.00    +0.000 F 
ATOM      9  F   UNL     1     148.002 125.002 102.484  0.00  0.00    +0.000 F 
ATOM     10  F   UNL     1     146.845 124.411 100.745  0.00  0.00    +0.000 F 
ATOM     11  C   UNL     1     147.161 125.483 101.525  0.00  0.00    +0.000 C 
ENDBRANCH   1  11
BRANCH   2  12
ATOM     12  C   UNL     1     142.142 126.053 101.594  0.00  0.00    +0.000 C 
BRANCH  12  14
ATOM     13  O   UNL     1     140.528 126.553 103.381  0.00  0.00    +0.000 OA
ATOM     14  C   UNL     1     140.999 126.764 102.276  0.00  0.00    +0.000 C 
BRANCH  14  15
ATOM     15  O   UNL     1     140.501 127.759 101.511  0.00  0.00    +0.000 OA
ATOM     16  H   UNL     1     140.134 128.393 102.165  0.00  0.00    +0.000 HD
ENDBRANCH  14  15
ENDBRANCH  12  14
ENDBRANCH   2  12
TORSDOF 4
ENDMDL
MODEL 5
REMARK VINA RESULT:      -5.5     34.551     36.328
REMARK  Name = 
REMARK  5 active torsions:
REMARK  status: ('A' for Active; 'I' for Inactive)
REMARK    1  A    between atoms: O_4  and  C_15
REMARK    2  A    between atoms: C_6  and  C_13
REMARK    3  A    between atoms: C_7  and  C_12
REMARK    4  A    between atoms: C_8  and  C_14
REMARK    5  A    between atoms: C_12  and  C_15
REMARK                            x       y       z     vdW  Elec       q    Type
REMARK                         _______ _______ _______ _____ _____    ______ ____
ROOT
ATOM      1  C   UNL     1     141.828 123.747  98.438  0.00  0.00    +0.000 A 
ATOM      2  C   UNL     1     141.210 125.048 100.421  0.00  0.00    +0.000 A 
ATOM      3  C   UNL     1     143.186 123.824  98.816  0.00  0.00    +0.000 A 
ATOM      4  C   UNL     1     140.856 124.364  99.251  0.00  0.00    +0.000 A 
ATOM      5  C   UNL     1     142.559 125.126 100.777  0.00  0.00    +0.000 A 
ATOM      6  C   UNL     1     143.535 124.518  99.984  0.00  0.00    +0.000 A 
ATOM      7  C   UNL     1     144.271 123.190  97.988  0.00  0.00    +0.000 C 
ENDROOT
BRANCH   1  11
ATOM      8  F   UNL     1     141.738 123.686  96.045  0.00  0.00    +0.000 F 
ATOM      9  F   UNL     1     141.945 121.777  97.055  0.00  0.00    +0.000 F 
ATOM     10  F   UNL     1     140.048 122.831  97.116  0.00  0.00    +0.000 F 
ATOM     11  C   UNL     1     141.396 123.019  97.183  0.00  0.00    +0.000 C 
ENDBRANCH   1  11
BRANCH   2  12
ATOM     12  C   UNL     1     140.154 125.719 101.268  0.00  0.00    +0.000 C 
BRANCH  12  14
ATOM     13  O   UNL     1     140.925 127.061 103.180  0.00  0.00    +0.000 OA
ATOM     14  C   UNL     1     140.645 126.945 101.999  0.00  0.00    +0.000 C 
BRANCH  14  15
ATOM     15  O   UNL     1     140.782 128.001 101.168  0.00  0.00    +0.000 OA
ATOM     16  H   UNL     1     140.104 127.841 100.476  0.00  0.00    +0.000 HD
ENDBRANCH  14  15
ENDBRANCH  12  14
ENDBRANCH   2  12
TORSDOF 4
ENDMDL
MODEL 6
REMARK VINA RESULT:      -5.5      3.396      4.758
REMARK  Name = 
REMARK  5 active torsions:
REMARK  status: ('A' for Active; 'I' for Inactive)
REMARK    1  A    between atoms: O_4  and  C_15
REMARK    2  A    between atoms: C_6  and  C_13
REMARK    3  A    between atoms: C_7  and  C_12
REMARK    4  A    between atoms: C_8  and  C_14
REMARK    5  A    between atoms: C_12  and  C_15
REMARK                            x       y       z     vdW  Elec       q    Type
REMARK                         _______ _______ _______ _____ _____    ______ ____
ROOT
ATOM      1  C   UNL     1     136.812 122.875 135.935  0.00  0.00    +0.000 A 
ATOM      2  C   UNL     1     138.398 123.588 134.208  0.00  0.00    +0.000 A 
ATOM      3  C   UNL     1     135.738 123.221 135.087  0.00  0.00    +0.000 A 
ATOM      4  C   UNL     1     138.132 123.066 135.481  0.00  0.00    +0.000 A 
ATOM      5  C   UNL     1     137.324 123.936 133.383  0.00  0.00    +0.000 A 
ATOM      6  C   UNL     1     136.010 123.752 133.817  0.00  0.00    +0.000 A 
ATOM      7  C   UNL     1     134.306 123.046 135.517  0.00  0.00    +0.000 C 
ENDROOT
BRANCH   1  11
ATOM      8  F   UNL     1     135.716 123.063 138.058  0.00  0.00    +0.000 F 
ATOM      9  F   UNL     1     136.040 121.053 137.310  0.00  0.00    +0.000 F 
ATOM     10  F   UNL     1     137.718 122.211 138.056  0.00  0.00    +0.000 F 
ATOM     11  C   UNL     1     136.576 122.307 137.319  0.00  0.00    +0.000 C 
ENDBRANCH   1  11
BRANCH   2  12
ATOM     12  C   UNL     1     139.820 123.802 133.747  0.00  0.00    +0.000 C 
BRANCH  12  14
ATOM     13  O   UNL     1     141.595 123.273 135.365  0.00  0.00    +0.000 OA
ATOM     14  C   UNL     1     140.833 122.949 134.470  0.00  0.00    +0.000 C 
BRANCH  14  15
ATOM     15  O   UNL     1     140.821 121.673 134.026  0.00  0.00    +0.000 OA
ATOM     16  H   UNL     1     141.076 121.754 133.081  0.00  0.00    +0.000 HD
ENDBRANCH  14  15
ENDBRANCH  12  14
ENDBRANCH   2  12
TORSDOF 4
ENDMDL
MODEL 7
REMARK VINA RESULT:      -5.4      4.805      6.129
REMARK  Name = 
REMARK  5 active torsions:
REMARK  status: ('A' for Active; 'I' for Inactive)
REMARK    1  A    between atoms: O_4  and  C_15
REMARK    2  A    between atoms: C_6  and  C_13
REMARK    3  A    between atoms: C_7  and  C_12
REMARK    4  A    between atoms: C_8  and  C_14
REMARK    5  A    between atoms: C_12  and  C_15
REMARK                            x       y       z     vdW  Elec       q    Type
REMARK                         _______ _______ _______ _____ _____    ______ ____
ROOT
ATOM      1  C   UNL     1     134.273 121.594 133.986  0.00  0.00    +0.000 A 
ATOM      2  C   UNL     1     135.841 123.468 133.804  0.00  0.00    +0.000 A 
ATOM      3  C   UNL     1     133.778 122.130 135.195  0.00  0.00    +0.000 A 
ATOM      4  C   UNL     1     135.303 122.275 133.307  0.00  0.00    +0.000 A 
ATOM      5  C   UNL     1     135.349 123.981 135.008  0.00  0.00    +0.000 A 
ATOM      6  C   UNL     1     134.328 123.321 135.693  0.00  0.00    +0.000 A 
ATOM      7  C   UNL     1     132.684 121.447 135.970  0.00  0.00    +0.000 C 
ENDROOT
BRANCH   1  11
ATOM      8  F   UNL     1     132.368 120.220 133.513  0.00  0.00    +0.000 F 
ATOM      9  F   UNL     1     133.995 120.146 132.080  0.00  0.00    +0.000 F 
ATOM     10  F   UNL     1     134.219 119.195 134.019  0.00  0.00    +0.000 F 
ATOM     11  C   UNL     1     133.724 120.307 133.407  0.00  0.00    +0.000 C 
ENDBRANCH   1  11
BRANCH   2  12
ATOM     12  C   UNL     1     136.958 124.173 133.071  0.00  0.00    +0.000 C 
BRANCH  12  14
ATOM     13  O   UNL     1     138.904 123.047 134.068  0.00  0.00    +0.000 OA
ATOM     14  C   UNL     1     138.272 123.433 133.099  0.00  0.00    +0.000 C 
BRANCH  14  15
ATOM     15  O   UNL     1     138.734 123.187 131.854  0.00  0.00    +0.000 OA
ATOM     16  H   UNL     1     137.918 123.056 131.325  0.00  0.00    +0.000 HD
ENDBRANCH  14  15
ENDBRANCH  12  14
ENDBRANCH   2  12
TORSDOF 4
ENDMDL
MODEL 8
REMARK VINA RESULT:      -5.4     34.661     36.021
REMARK  Name = 
REMARK  5 active torsions:
REMARK  status: ('A' for Active; 'I' for Inactive)
REMARK    1  A    between atoms: O_4  and  C_15
REMARK    2  A    between atoms: C_6  and  C_13
REMARK    3  A    between atoms: C_7  and  C_12
REMARK    4  A    between atoms: C_8  and  C_14
REMARK    5  A    between atoms: C_12  and  C_15
REMARK                            x       y       z     vdW  Elec       q    Type
REMARK                         _______ _______ _______ _____ _____    ______ ____
ROOT
ATOM      1  C   UNL     1     142.792 124.056  99.684  0.00  0.00    +0.000 A 
ATOM      2  C   UNL     1     144.874 124.706 100.803  0.00  0.00    +0.000 A 
ATOM      3  C   UNL     1     143.523 123.202  98.830  0.00  0.00    +0.000 A 
ATOM      4  C   UNL     1     143.483 124.800 100.662  0.00  0.00    +0.000 A 
ATOM      5  C   UNL     1     145.585 123.864  99.943  0.00  0.00    +0.000 A 
ATOM      6  C   UNL     1     144.916 123.120  98.970  0.00  0.00    +0.000 A 
ATOM      7  C   UNL     1     142.843 122.387  97.763  0.00  0.00    +0.000 C 
ENDROOT
BRANCH   1  11
ATOM      8  F   UNL     1     140.892 124.653  98.352  0.00  0.00    +0.000 F 
ATOM      9  F   UNL     1     140.620 123.016  99.748  0.00  0.00    +0.000 F 
ATOM     10  F   UNL     1     140.762 125.053 100.487  0.00  0.00    +0.000 F 
ATOM     11  C   UNL     1     141.289 124.191  99.572  0.00  0.00    +0.000 C 
ENDBRANCH   1  11
BRANCH   2  12
ATOM     12  C   UNL     1     145.598 125.525 101.845  0.00  0.00    +0.000 C 
BRANCH  12  14
ATOM     13  O   UNL     1     147.649 126.369 100.781  0.00  0.00    +0.000 OA
ATOM     14  C   UNL     1     147.080 125.661 101.595  0.00  0.00    +0.000 C 
BRANCH  14  15
ATOM     15  O   UNL     1     147.802 124.883 102.430  0.00  0.00    +0.000 OA
ATOM     16  H   UNL     1     147.221 124.107 102.584  0.00  0.00    +0.000 HD
ENDBRANCH  14  15
ENDBRANCH  12  14
ENDBRANCH   2  12
TORSDOF 4
ENDMDL
MODEL 9
REMARK VINA RESULT:      -5.3     33.129     35.063
REMARK  Name = 
REMARK  5 active torsions:
REMARK  status: ('A' for Active; 'I' for Inactive)
REMARK    1  A    between atoms: O_4  and  C_15
REMARK    2  A    between atoms: C_6  and  C_13
REMARK    3  A    between atoms: C_7  and  C_12
REMARK    4  A    between atoms: C_8  and  C_14
REMARK    5  A    between atoms: C_12  and  C_15
REMARK                            x       y       z     vdW  Elec       q    Type
REMARK                         _______ _______ _______ _____ _____    ______ ____
ROOT
ATOM      1  C   UNL     1     142.685 124.321 100.040  0.00  0.00    +0.000 A 
ATOM      2  C   UNL     1     144.445 125.267 101.460  0.00  0.00    +0.000 A 
ATOM      3  C   UNL     1     143.649 123.533  99.376  0.00  0.00    +0.000 A 
ATOM      4  C   UNL     1     143.100 125.181 101.077  0.00  0.00    +0.000 A 
ATOM      5  C   UNL     1     145.390 124.488 100.785  0.00  0.00    +0.000 A 
ATOM      6  C   UNL     1     144.996 123.630  99.757  0.00  0.00    +0.000 A 
ATOM      7  C   UNL     1     143.269 122.600  98.257  0.00  0.00    +0.000 C 
ENDROOT
BRANCH   1  11
ATOM      8  F   UNL     1     140.984 124.713  98.398  0.00  0.00    +0.000 F 
ATOM      9  F   UNL     1     140.693 123.006  99.706  0.00  0.00    +0.000 F 
ATOM     10  F   UNL     1     140.431 125.017 100.481  0.00  0.00    +0.000 F 
ATOM     11  C   UNL     1     141.219 124.264  99.664  0.00  0.00    +0.000 C 
ENDBRANCH   1  11
BRANCH   2  12
ATOM     12  C   UNL     1     144.872 126.208 102.561  0.00  0.00    +0.000 C 
BRANCH  12  14
ATOM     13  O   UNL     1     143.472 125.701 104.519  0.00  0.00    +0.000 OA
ATOM     14  C   UNL     1     143.815 126.440 103.612  0.00  0.00    +0.000 C 
BRANCH  14  15
ATOM     15  O   UNL     1     143.231 127.651 103.475  0.00  0.00    +0.000 OA
ATOM     16  H   UNL     1     142.336 127.439 103.131  0.00  0.00    +0.000 HD
ENDBRANCH  14  15
ENDBRANCH  12  14
ENDBRANCH   2  12
TORSDOF 4
ENDMDL
