MODEL 1
REMARK VINA RESULT:      -7.7      0.000      0.000
REMARK  Name = OTSSP167.pdbqt.pdb
REMARK  7 active torsions:
REMARK  status: ('A' for Active; 'I' for Inactive)
REMARK    1  A    between atoms: C_5  and  N_19
REMARK    2  A    between atoms: C_7  and  C_31
REMARK    3  A    between atoms: C_11  and  C_13
REMARK    4  A    between atoms: C_18  and  O_34
REMARK    5  A    between atoms: N_19  and  C_21
REMARK    6  A    between atoms: C_24  and  C_27
REMARK    7  A    between atoms: C_27  and  N_28
REMARK                            x       y       z     vdW  Elec       q    Type
REMARK                         _______ _______ _______ _____ _____    ______ ____
ROOT
ATOM      1  N   UNL     1     144.596 127.283  99.994  0.00  0.00    +0.000 NA
ATOM      2  N   UNL     1     146.982 127.787 102.715  0.00  0.00    +0.000 NA
ATOM      3  C   UNL     1     144.454 126.608 102.329  0.00  0.00    +0.000 A 
ATOM      4  C   UNL     1     145.131 127.217 101.238  0.00  0.00    +0.000 A 
ATOM      5  C   UNL     1     145.080 126.618 103.592  0.00  0.00    +0.000 A 
ATOM      6  C   UNL     1     146.392 127.790 101.509  0.00  0.00    +0.000 A 
ATOM      7  C   UNL     1     146.318 127.206 103.731  0.00  0.00    +0.000 A 
ATOM      8  C   UNL     1     147.054 128.395 100.456  0.00  0.00    +0.000 A 
ATOM      9  C   UNL     1     145.271 127.874  98.978  0.00  0.00    +0.000 A 
ATOM     10  C   UNL     1     146.512 128.447  99.180  0.00  0.00    +0.000 A 
ENDROOT
BRANCH   9  13
ATOM     11 CL   UNL     1     145.692 127.107  93.886  0.00  0.00    +0.000 Cl
ATOM     12 CL   UNL     1     140.977 128.577  96.188  0.00  0.00    +0.000 Cl
ATOM     13  C   UNL     1     144.616 127.852  97.668  0.00  0.00    +0.000 A 
ATOM     14  C   UNL     1     143.262 128.176  97.515  0.00  0.00    +0.000 A 
ATOM     15  C   UNL     1     145.333 127.517  96.512  0.00  0.00    +0.000 A 
ATOM     16  C   UNL     1     144.730 127.508  95.256  0.00  0.00    +0.000 A 
ATOM     17  C   UNL     1     142.647 128.164  96.263  0.00  0.00    +0.000 A 
ATOM     18  C   UNL     1     143.381 127.831  95.125  0.00  0.00    +0.000 A 
BRANCH  18  19
ATOM     19  O   UNL     1     142.772 127.826  93.897  0.00  0.00    +0.000 OA
ATOM     20  H   UNL     1     141.984 128.399  93.943  0.00  0.00    +0.000 HD
ENDBRANCH  18  19
ENDBRANCH   9  13
BRANCH   5  21
ATOM     21  C   UNL     1     144.461 126.064 104.794  0.00  0.00    +0.000 C 
ATOM     22  O   UNL     1     143.333 125.603 104.851  0.00  0.00    +0.000 OA
ATOM     23  C   UNL     1     145.122 126.036 106.139  0.00  0.00    +0.000 C 
ENDBRANCH   5  21
BRANCH   3  24
ATOM     24  N   UNL     1     143.219 125.898 102.182  0.00  0.00    +0.000 N 
ATOM     25  H   UNL     1     142.383 126.457 102.374  0.00  0.00    +0.000 HD
BRANCH  24  26
ATOM     26  C   UNL     1     142.972 124.795 101.412  0.00  0.00    +0.000 A 
ATOM     27  C   UNL     1     144.086 123.935 101.101  0.00  0.00    +0.000 A 
ATOM     28  C   UNL     1     144.366 123.261  99.734  0.00  0.00    +0.000 A 
ATOM     29  C   UNL     1     143.544 123.409  98.557  0.00  0.00    +0.000 A 
ATOM     30  C   UNL     1     142.443 124.289  98.857  0.00  0.00    +0.000 A 
ATOM     31  C   UNL     1     142.169 124.962 100.225  0.00  0.00    +0.000 A 
BRANCH  29  32
ATOM     32  C   UNL     1     143.709 122.695  97.349  0.00  0.00    +0.000 C 
BRANCH  32  33
ATOM     33  N   UNL     1     143.865 121.973  96.098  0.00  0.00    +0.000 NA
ATOM     34  C   UNL     1     144.403 122.906  95.122  0.00  0.00    +0.000 C 
ATOM     35  C   UNL     1     142.536 121.600  95.644  0.00  0.00    +0.000 C 
ENDBRANCH  32  33
ENDBRANCH  29  32
ENDBRANCH  24  26
ENDBRANCH   3  24
TORSDOF 7
ENDMDL
MODEL 2
REMARK VINA RESULT:      -7.5      2.960      7.615
REMARK  Name = OTSSP167.pdbqt.pdb
REMARK  7 active torsions:
REMARK  status: ('A' for Active; 'I' for Inactive)
REMARK    1  A    between atoms: C_5  and  N_19
REMARK    2  A    between atoms: C_7  and  C_31
REMARK    3  A    between atoms: C_11  and  C_13
REMARK    4  A    between atoms: C_18  and  O_34
REMARK    5  A    between atoms: N_19  and  C_21
REMARK    6  A    between atoms: C_24  and  C_27
REMARK    7  A    between atoms: C_27  and  N_28
REMARK                            x       y       z     vdW  Elec       q    Type
REMARK                         _______ _______ _______ _____ _____    ______ ____
ROOT
ATOM      1  N   UNL     1     144.402 125.636  97.286  0.00  0.00    +0.000 NA
ATOM      2  N   UNL     1     146.025 123.238  95.056  0.00  0.00    +0.000 NA
ATOM      3  C   UNL     1     146.224 125.970  95.706  0.00  0.00    +0.000 A 
ATOM      4  C   UNL     1     145.265 125.151  96.359  0.00  0.00    +0.000 A 
ATOM      5  C   UNL     1     147.057 125.379  94.734  0.00  0.00    +0.000 A 
ATOM      6  C   UNL     1     145.222 123.792  95.979  0.00  0.00    +0.000 A 
ATOM      7  C   UNL     1     146.922 124.038  94.452  0.00  0.00    +0.000 A 
ATOM      8  C   UNL     1     144.284 122.988  96.601  0.00  0.00    +0.000 A 
ATOM      9  C   UNL     1     143.499 124.822  97.886  0.00  0.00    +0.000 A 
ATOM     10  C   UNL     1     143.413 123.483  97.560  0.00  0.00    +0.000 A 
ENDROOT
BRANCH   9  13
ATOM     11 CL   UNL     1     139.315 124.471 100.898  0.00  0.00    +0.000 Cl
ATOM     12 CL   UNL     1     142.485 128.903 100.892  0.00  0.00    +0.000 Cl
ATOM     13  C   UNL     1     142.644 125.445  98.900  0.00  0.00    +0.000 A 
ATOM     14  C   UNL     1     142.901 126.729  99.394  0.00  0.00    +0.000 A 
ATOM     15  C   UNL     1     141.521 124.774  99.402  0.00  0.00    +0.000 A 
ATOM     16  C   UNL     1     140.687 125.357 100.353  0.00  0.00    +0.000 A 
ATOM     17  C   UNL     1     142.076 127.321 100.351  0.00  0.00    +0.000 A 
ATOM     18  C   UNL     1     140.961 126.636 100.835  0.00  0.00    +0.000 A 
BRANCH  18  19
ATOM     19  O   UNL     1     140.152 127.224 101.771  0.00  0.00    +0.000 OA
ATOM     20  H   UNL     1     140.562 127.105 102.649  0.00  0.00    +0.000 HD
ENDBRANCH  18  19
ENDBRANCH   9  13
BRANCH   5  21
ATOM     21  C   UNL     1     148.046 126.132  93.966  0.00  0.00    +0.000 C 
ATOM     22  O   UNL     1     149.074 126.604  94.421  0.00  0.00    +0.000 OA
ATOM     23  C   UNL     1     147.898 126.466  92.512  0.00  0.00    +0.000 C 
ENDBRANCH   5  21
BRANCH   3  24
ATOM     24  N   UNL     1     146.452 127.338  96.063  0.00  0.00    +0.000 N 
ATOM     25  H   UNL     1     145.845 128.009  95.583  0.00  0.00    +0.000 HD
BRANCH  24  26
ATOM     26  C   UNL     1     146.992 127.825  97.221  0.00  0.00    +0.000 A 
ATOM     27  C   UNL     1     147.720 126.904  98.056  0.00  0.00    +0.000 A 
ATOM     28  C   UNL     1     147.663 126.832  99.604  0.00  0.00    +0.000 A 
ATOM     29  C   UNL     1     146.852 127.684 100.441  0.00  0.00    +0.000 A 
ATOM     30  C   UNL     1     146.103 128.589  99.606  0.00  0.00    +0.000 A 
ATOM     31  C   UNL     1     146.163 128.656  98.060  0.00  0.00    +0.000 A 
BRANCH  29  32
ATOM     32  C   UNL     1     146.893 127.723 101.852  0.00  0.00    +0.000 C 
BRANCH  32  33
ATOM     33  N   UNL     1     146.915 127.762 103.304  0.00  0.00    +0.000 NA
ATOM     34  C   UNL     1     147.493 126.510 103.764  0.00  0.00    +0.000 C 
ATOM     35  C   UNL     1     145.535 127.787 103.758  0.00  0.00    +0.000 C 
ENDBRANCH  32  33
ENDBRANCH  29  32
ENDBRANCH  24  26
ENDBRANCH   3  24
TORSDOF 7
ENDMDL
MODEL 3
REMARK VINA RESULT:      -7.5      2.860      7.640
REMARK  Name = OTSSP167.pdbqt.pdb
REMARK  7 active torsions:
REMARK  status: ('A' for Active; 'I' for Inactive)
REMARK    1  A    between atoms: C_5  and  N_19
REMARK    2  A    between atoms: C_7  and  C_31
REMARK    3  A    between atoms: C_11  and  C_13
REMARK    4  A    between atoms: C_18  and  O_34
REMARK    5  A    between atoms: N_19  and  C_21
REMARK    6  A    between atoms: C_24  and  C_27
REMARK    7  A    between atoms: C_27  and  N_28
REMARK                            x       y       z     vdW  Elec       q    Type
REMARK                         _______ _______ _______ _____ _____    ______ ____
ROOT
ATOM      1  N   UNL     1     143.382 124.329  97.304  0.00  0.00    +0.000 NA
ATOM      2  N   UNL     1     143.901 121.621  94.907  0.00  0.00    +0.000 NA
ATOM      3  C   UNL     1     145.176 124.006  95.690  0.00  0.00    +0.000 A 
ATOM      4  C   UNL     1     143.974 123.597  96.328  0.00  0.00    +0.000 A 
ATOM      5  C   UNL     1     145.697 123.191  94.664  0.00  0.00    +0.000 A 
ATOM      6  C   UNL     1     143.391 122.393  95.880  0.00  0.00    +0.000 A 
ATOM      7  C   UNL     1     145.037 122.033  94.317  0.00  0.00    +0.000 A 
ATOM      8  C   UNL     1     142.215 121.991  96.488  0.00  0.00    +0.000 A 
ATOM      9  C   UNL     1     142.234 123.907  97.889  0.00  0.00    +0.000 A 
ATOM     10  C   UNL     1     141.620 122.733  97.497  0.00  0.00    +0.000 A 
ENDROOT
BRANCH   9  13
ATOM     11 CL   UNL     1     142.694 128.233 100.675  0.00  0.00    +0.000 Cl
ATOM     12 CL   UNL     1     138.678 124.660 101.565  0.00  0.00    +0.000 Cl
ATOM     13  C   UNL     1     141.704 124.756  98.959  0.00  0.00    +0.000 A 
ATOM     14  C   UNL     1     140.572 124.393  99.696  0.00  0.00    +0.000 A 
ATOM     15  C   UNL     1     142.329 125.965  99.291  0.00  0.00    +0.000 A 
ATOM     16  C   UNL     1     141.851 126.776 100.318  0.00  0.00    +0.000 A 
ATOM     17  C   UNL     1     140.080 125.200 100.722  0.00  0.00    +0.000 A 
ATOM     18  C   UNL     1     140.720 126.398 101.039  0.00  0.00    +0.000 A 
BRANCH  18  19
ATOM     19  O   UNL     1     140.235 127.185 102.050  0.00  0.00    +0.000 OA
ATOM     20  H   UNL     1     139.344 127.493 101.799  0.00  0.00    +0.000 HD
ENDBRANCH  18  19
ENDBRANCH   9  13
BRANCH   5  21
ATOM     21  C   UNL     1     146.898 123.534  93.906  0.00  0.00    +0.000 C 
ATOM     22  O   UNL     1     147.284 124.669  93.681  0.00  0.00    +0.000 OA
ATOM     23  C   UNL     1     147.796 122.523  93.259  0.00  0.00    +0.000 C 
ENDBRANCH   5  21
BRANCH   3  24
ATOM     24  N   UNL     1     145.932 125.147  96.109  0.00  0.00    +0.000 N 
ATOM     25  H   UNL     1     145.742 126.001  95.577  0.00  0.00    +0.000 HD
BRANCH  24  26
ATOM     26  C   UNL     1     146.482 125.383  97.339  0.00  0.00    +0.000 A 
ATOM     27  C   UNL     1     146.413 124.326  98.315  0.00  0.00    +0.000 A 
ATOM     28  C   UNL     1     146.105 124.495  99.825  0.00  0.00    +0.000 A 
ATOM     29  C   UNL     1     145.830 125.754 100.476  0.00  0.00    +0.000 A 
ATOM     30  C   UNL     1     145.874 126.810  99.497  0.00  0.00    +0.000 A 
ATOM     31  C   UNL     1     146.180 126.636  97.989  0.00  0.00    +0.000 A 
BRANCH  29  32
ATOM     32  C   UNL     1     145.685 125.940 101.868  0.00  0.00    +0.000 C 
BRANCH  32  33
ATOM     33  N   UNL     1     145.525 126.116 103.301  0.00  0.00    +0.000 NA
ATOM     34  C   UNL     1     144.138 126.480 103.542  0.00  0.00    +0.000 C 
ATOM     35  C   UNL     1     146.339 127.255 103.692  0.00  0.00    +0.000 C 
ENDBRANCH  32  33
ENDBRANCH  29  32
ENDBRANCH  24  26
ENDBRANCH   3  24
TORSDOF 7
ENDMDL
MODEL 4
REMARK VINA RESULT:      -7.4     34.220     38.498
REMARK  Name = OTSSP167.pdbqt.pdb
REMARK  7 active torsions:
REMARK  status: ('A' for Active; 'I' for Inactive)
REMARK    1  A    between atoms: C_5  and  N_19
REMARK    2  A    between atoms: C_7  and  C_31
REMARK    3  A    between atoms: C_11  and  C_13
REMARK    4  A    between atoms: C_18  and  O_34
REMARK    5  A    between atoms: N_19  and  C_21
REMARK    6  A    between atoms: C_24  and  C_27
REMARK    7  A    between atoms: C_27  and  N_28
REMARK                            x       y       z     vdW  Elec       q    Type
REMARK                         _______ _______ _______ _____ _____    ______ ____
ROOT
ATOM      1  N   UNL     1     136.885 122.234 134.590  0.00  0.00    +0.000 NA
ATOM      2  N   UNL     1     134.316 119.947 133.357  0.00  0.00    +0.000 NA
ATOM      3  C   UNL     1     135.613 120.537 135.785  0.00  0.00    +0.000 A 
ATOM      4  C   UNL     1     135.939 121.263 134.609  0.00  0.00    +0.000 A 
ATOM      5  C   UNL     1     134.637 119.524 135.696  0.00  0.00    +0.000 A 
ATOM      6  C   UNL     1     135.250 120.909 133.429  0.00  0.00    +0.000 A 
ATOM      7  C   UNL     1     134.029 119.273 134.485  0.00  0.00    +0.000 A 
ATOM      8  C   UNL     1     135.568 121.603 132.275  0.00  0.00    +0.000 A 
ATOM      9  C   UNL     1     137.170 122.905 133.446  0.00  0.00    +0.000 A 
ATOM     10  C   UNL     1     136.524 122.607 132.262  0.00  0.00    +0.000 A 
ENDROOT
BRANCH   9  13
ATOM     11 CL   UNL     1     139.187 127.242 131.495  0.00  0.00    +0.000 Cl
ATOM     12 CL   UNL     1     141.246 124.868 135.946  0.00  0.00    +0.000 Cl
ATOM     13  C   UNL     1     138.180 123.960 133.551  0.00  0.00    +0.000 A 
ATOM     14  C   UNL     1     139.143 123.961 134.568  0.00  0.00    +0.000 A 
ATOM     15  C   UNL     1     138.225 125.006 132.620  0.00  0.00    +0.000 A 
ATOM     16  C   UNL     1     139.190 126.008 132.694  0.00  0.00    +0.000 A 
ATOM     17  C   UNL     1     140.110 124.962 134.655  0.00  0.00    +0.000 A 
ATOM     18  C   UNL     1     140.139 125.993 133.716  0.00  0.00    +0.000 A 
BRANCH  18  19
ATOM     19  O   UNL     1     141.094 126.971 133.804  0.00  0.00    +0.000 OA
ATOM     20  H   UNL     1     140.962 127.454 134.642  0.00  0.00    +0.000 HD
ENDBRANCH  18  19
ENDBRANCH   9  13
BRANCH   5  21
ATOM     21  C   UNL     1     134.255 118.682 136.827  0.00  0.00    +0.000 C 
ATOM     22  O   UNL     1     133.943 119.094 137.932  0.00  0.00    +0.000 OA
ATOM     23  C   UNL     1     134.243 117.184 136.789  0.00  0.00    +0.000 C 
ENDBRANCH   5  21
BRANCH   3  24
ATOM     24  N   UNL     1     136.154 120.855 137.072  0.00  0.00    +0.000 N 
ATOM     25  H   UNL     1     136.969 120.296 137.340  0.00  0.00    +0.000 HD
BRANCH  24  26
ATOM     26  C   UNL     1     136.056 122.036 137.755  0.00  0.00    +0.000 A 
ATOM     27  C   UNL     1     137.123 122.373 138.662  0.00  0.00    +0.000 A 
ATOM     28  C   UNL     1     136.963 123.010 140.066  0.00  0.00    +0.000 A 
ATOM     29  C   UNL     1     135.701 123.353 140.678  0.00  0.00    +0.000 A 
ATOM     30  C   UNL     1     134.630 122.993 139.784  0.00  0.00    +0.000 A 
ATOM     31  C   UNL     1     134.796 122.355 138.382  0.00  0.00    +0.000 A 
BRANCH  29  32
ATOM     32  C   UNL     1     135.545 124.056 141.893  0.00  0.00    +0.000 C 
BRANCH  32  33
ATOM     33  N   UNL     1     135.400 124.770 143.149  0.00  0.00    +0.000 NA
ATOM     34  C   UNL     1     136.175 125.996 143.046  0.00  0.00    +0.000 C 
ATOM     35  C   UNL     1     136.021 123.959 144.183  0.00  0.00    +0.000 C 
ENDBRANCH  32  33
ENDBRANCH  29  32
ENDBRANCH  24  26
ENDBRANCH   3  24
TORSDOF 7
ENDMDL
MODEL 5
REMARK VINA RESULT:      -7.3      2.565      3.845
REMARK  Name = OTSSP167.pdbqt.pdb
REMARK  7 active torsions:
REMARK  status: ('A' for Active; 'I' for Inactive)
REMARK    1  A    between atoms: C_5  and  N_19
REMARK    2  A    between atoms: C_7  and  C_31
REMARK    3  A    between atoms: C_11  and  C_13
REMARK    4  A    between atoms: C_18  and  O_34
REMARK    5  A    between atoms: N_19  and  C_21
REMARK    6  A    between atoms: C_24  and  C_27
REMARK    7  A    between atoms: C_27  and  N_28
REMARK                            x       y       z     vdW  Elec       q    Type
REMARK                         _______ _______ _______ _____ _____    ______ ____
ROOT
ATOM      1  N   UNL     1     145.697 127.187  98.708  0.00  0.00    +0.000 NA
ATOM      2  N   UNL     1     146.720 128.241 102.054  0.00  0.00    +0.000 NA
ATOM      3  C   UNL     1     144.579 126.866 100.847  0.00  0.00    +0.000 A 
ATOM      4  C   UNL     1     145.657 127.343 100.055  0.00  0.00    +0.000 A 
ATOM      5  C   UNL     1     144.616 127.105 102.236  0.00  0.00    +0.000 A 
ATOM      6  C   UNL     1     146.693 128.025 100.728  0.00  0.00    +0.000 A 
ATOM      7  C   UNL     1     145.685 127.781 102.780  0.00  0.00    +0.000 A 
ATOM      8  C   UNL     1     147.742 128.504  99.964  0.00  0.00    +0.000 A 
ATOM      9  C   UNL     1     146.742 127.658  97.984  0.00  0.00    +0.000 A 
ATOM     10  C   UNL     1     147.788 128.329  98.589  0.00  0.00    +0.000 A 
ENDROOT
BRANCH   9  13
ATOM     11 CL   UNL     1     149.296 127.440  93.498  0.00  0.00    +0.000 Cl
ATOM     12 CL   UNL     1     143.954 126.408  93.815  0.00  0.00    +0.000 Cl
ATOM     13  C   UNL     1     146.699 127.399  96.543  0.00  0.00    +0.000 A 
ATOM     14  C   UNL     1     145.508 127.057  95.891  0.00  0.00    +0.000 A 
ATOM     15  C   UNL     1     147.857 127.498  95.761  0.00  0.00    +0.000 A 
ATOM     16  C   UNL     1     147.831 127.273  94.387  0.00  0.00    +0.000 A 
ATOM     17  C   UNL     1     145.471 126.824  94.516  0.00  0.00    +0.000 A 
ATOM     18  C   UNL     1     146.636 126.932  93.755  0.00  0.00    +0.000 A 
BRANCH  18  19
ATOM     19  O   UNL     1     146.593 126.705  92.405  0.00  0.00    +0.000 OA
ATOM     20  H   UNL     1     145.662 126.567  92.146  0.00  0.00    +0.000 HD
ENDBRANCH  18  19
ENDBRANCH   9  13
BRANCH   5  21
ATOM     21  C   UNL     1     143.543 126.703 103.143  0.00  0.00    +0.000 C 
ATOM     22  O   UNL     1     142.418 127.173 103.148  0.00  0.00    +0.000 OA
ATOM     23  C   UNL     1     143.704 125.682 104.229  0.00  0.00    +0.000 C 
ENDBRANCH   5  21
BRANCH   3  24
ATOM     24  N   UNL     1     143.515 126.068 100.316  0.00  0.00    +0.000 N 
ATOM     25  H   UNL     1     143.302 125.228 100.862  0.00  0.00    +0.000 HD
BRANCH  24  26
ATOM     26  C   UNL     1     142.485 126.471  99.513  0.00  0.00    +0.000 A 
ATOM     27  C   UNL     1     142.397 125.888  98.198  0.00  0.00    +0.000 A 
ATOM     28  C   UNL     1     142.034 126.635  96.889  0.00  0.00    +0.000 A 
ATOM     29  C   UNL     1     141.738 128.044  96.798  0.00  0.00    +0.000 A 
ATOM     30  C   UNL     1     141.851 128.636  98.107  0.00  0.00    +0.000 A 
ATOM     31  C   UNL     1     142.215 127.885  99.412  0.00  0.00    +0.000 A 
BRANCH  29  32
ATOM     32  C   UNL     1     141.274 128.710  95.641  0.00  0.00    +0.000 C 
BRANCH  32  33
ATOM     33  N   UNL     1     140.793 129.409  94.463  0.00  0.00    +0.000 NA
ATOM     34  C   UNL     1     139.347 129.514  94.580  0.00  0.00    +0.000 C 
ATOM     35  C   UNL     1     141.067 128.563  93.314  0.00  0.00    +0.000 C 
ENDBRANCH  32  33
ENDBRANCH  29  32
ENDBRANCH  24  26
ENDBRANCH   3  24
TORSDOF 7
ENDMDL
MODEL 6
REMARK VINA RESULT:      -7.2      2.533      4.891
REMARK  Name = OTSSP167.pdbqt.pdb
REMARK  7 active torsions:
REMARK  status: ('A' for Active; 'I' for Inactive)
REMARK    1  A    between atoms: C_5  and  N_19
REMARK    2  A    between atoms: C_7  and  C_31
REMARK    3  A    between atoms: C_11  and  C_13
REMARK    4  A    between atoms: C_18  and  O_34
REMARK    5  A    between atoms: N_19  and  C_21
REMARK    6  A    between atoms: C_24  and  C_27
REMARK    7  A    between atoms: C_27  and  N_28
REMARK                            x       y       z     vdW  Elec       q    Type
REMARK                         _______ _______ _______ _____ _____    ______ ____
ROOT
ATOM      1  N   UNL     1     143.816 126.987  98.574  0.00  0.00    +0.000 NA
ATOM      2  N   UNL     1     143.760 124.738 101.453  0.00  0.00    +0.000 NA
ATOM      3  C   UNL     1     145.278 126.918 100.520  0.00  0.00    +0.000 A 
ATOM      4  C   UNL     1     144.172 126.444  99.765  0.00  0.00    +0.000 A 
ATOM      5  C   UNL     1     145.587 126.267 101.732  0.00  0.00    +0.000 A 
ATOM      6  C   UNL     1     143.461 125.346 100.294  0.00  0.00    +0.000 A 
ATOM      7  C   UNL     1     144.814 125.205 102.147  0.00  0.00    +0.000 A 
ATOM      8  C   UNL     1     142.389 124.869  99.561  0.00  0.00    +0.000 A 
ATOM      9  C   UNL     1     142.755 126.506  97.881  0.00  0.00    +0.000 A 
ATOM     10  C   UNL     1     142.017 125.437  98.351  0.00  0.00    +0.000 A 
ENDROOT
BRANCH   9  13
ATOM     11 CL   UNL     1     139.369 129.303  95.160  0.00  0.00    +0.000 Cl
ATOM     12 CL   UNL     1     144.166 127.777  93.073  0.00  0.00    +0.000 Cl
ATOM     13  C   UNL     1     142.438 127.194  96.627  0.00  0.00    +0.000 A 
ATOM     14  C   UNL     1     143.321 127.192  95.541  0.00  0.00    +0.000 A 
ATOM     15  C   UNL     1     141.221 127.871  96.468  0.00  0.00    +0.000 A 
ATOM     16  C   UNL     1     140.895 128.515  95.277  0.00  0.00    +0.000 A 
ATOM     17  C   UNL     1     143.007 127.839  94.345  0.00  0.00    +0.000 A 
ATOM     18  C   UNL     1     141.789 128.505  94.207  0.00  0.00    +0.000 A 
BRANCH  18  19
ATOM     19  O   UNL     1     141.484 129.135  93.029  0.00  0.00    +0.000 OA
ATOM     20  H   UNL     1     142.165 129.814  92.860  0.00  0.00    +0.000 HD
ENDBRANCH  18  19
ENDBRANCH   9  13
BRANCH   5  21
ATOM     21  C   UNL     1     146.726 126.636 102.568  0.00  0.00    +0.000 C 
ATOM     22  O   UNL     1     146.841 127.692 103.168  0.00  0.00    +0.000 OA
ATOM     23  C   UNL     1     147.938 125.775 102.759  0.00  0.00    +0.000 C 
ENDBRANCH   5  21
BRANCH   3  24
ATOM     24  N   UNL     1     146.024 128.086 100.160  0.00  0.00    +0.000 N 
ATOM     25  H   UNL     1     146.078 128.798 100.894  0.00  0.00    +0.000 HD
BRANCH  24  26
ATOM     26  C   UNL     1     147.015 128.193  99.224  0.00  0.00    +0.000 A 
ATOM     27  C   UNL     1     146.764 129.031  98.080  0.00  0.00    +0.000 A 
ATOM     28  C   UNL     1     147.156 128.717  96.613  0.00  0.00    +0.000 A 
ATOM     29  C   UNL     1     147.828 127.517  96.177  0.00  0.00    +0.000 A 
ATOM     30  C   UNL     1     148.057 126.664  97.316  0.00  0.00    +0.000 A 
ATOM     31  C   UNL     1     147.663 126.982  98.780  0.00  0.00    +0.000 A 
BRANCH  29  32
ATOM     32  C   UNL     1     148.311 127.278  94.871  0.00  0.00    +0.000 C 
BRANCH  32  33
ATOM     33  N   UNL     1     148.825 127.041  93.534  0.00  0.00    +0.000 NA
ATOM     34  C   UNL     1     149.510 128.251  93.110  0.00  0.00    +0.000 C 
ATOM     35  C   UNL     1     147.681 126.868  92.654  0.00  0.00    +0.000 C 
ENDBRANCH  32  33
ENDBRANCH  29  32
ENDBRANCH  24  26
ENDBRANCH   3  24
TORSDOF 7
ENDMDL
MODEL 7
REMARK VINA RESULT:      -7.1      3.224      6.559
REMARK  Name = OTSSP167.pdbqt.pdb
REMARK  7 active torsions:
REMARK  status: ('A' for Active; 'I' for Inactive)
REMARK    1  A    between atoms: C_5  and  N_19
REMARK    2  A    between atoms: C_7  and  C_31
REMARK    3  A    between atoms: C_11  and  C_13
REMARK    4  A    between atoms: C_18  and  O_34
REMARK    5  A    between atoms: N_19  and  C_21
REMARK    6  A    between atoms: C_24  and  C_27
REMARK    7  A    between atoms: C_27  and  N_28
REMARK                            x       y       z     vdW  Elec       q    Type
REMARK                         _______ _______ _______ _____ _____    ______ ____
ROOT
ATOM      1  N   UNL     1     143.603 124.551  97.973  0.00  0.00    +0.000 NA
ATOM      2  N   UNL     1     140.396 123.471  99.351  0.00  0.00    +0.000 NA
ATOM      3  C   UNL     1     142.211 125.599  99.674  0.00  0.00    +0.000 A 
ATOM      4  C   UNL     1     142.477 124.572  98.729  0.00  0.00    +0.000 A 
ATOM      5  C   UNL     1     141.027 125.514 100.436  0.00  0.00    +0.000 A 
ATOM      6  C   UNL     1     141.524 123.537  98.625  0.00  0.00    +0.000 A 
ATOM      7  C   UNL     1     140.170 124.454 100.241  0.00  0.00    +0.000 A 
ATOM      8  C   UNL     1     141.779 122.526  97.716  0.00  0.00    +0.000 A 
ATOM      9  C   UNL     1     143.823 123.553  97.082  0.00  0.00    +0.000 A 
ATOM     10  C   UNL     1     142.923 122.516  96.932  0.00  0.00    +0.000 A 
ENDROOT
BRANCH   9  13
ATOM     11 CL   UNL     1     148.514 125.645  96.531  0.00  0.00    +0.000 Cl
ATOM     12 CL   UNL     1     146.479 122.155  92.874  0.00  0.00    +0.000 Cl
ATOM     13  C   UNL     1     145.051 123.654  96.291  0.00  0.00    +0.000 A 
ATOM     14  C   UNL     1     145.214 122.953  95.090  0.00  0.00    +0.000 A 
ATOM     15  C   UNL     1     146.108 124.474  96.707  0.00  0.00    +0.000 A 
ATOM     16  C   UNL     1     147.276 124.596  95.958  0.00  0.00    +0.000 A 
ATOM     17  C   UNL     1     146.382 123.063  94.335  0.00  0.00    +0.000 A 
ATOM     18  C   UNL     1     147.421 123.888  94.766  0.00  0.00    +0.000 A 
BRANCH  18  19
ATOM     19  O   UNL     1     148.563 123.995  94.018  0.00  0.00    +0.000 OA
ATOM     20  H   UNL     1     148.333 123.844  93.082  0.00  0.00    +0.000 HD
ENDBRANCH  18  19
ENDBRANCH   9  13
BRANCH   5  21
ATOM     21  C   UNL     1     140.672 126.485 101.468  0.00  0.00    +0.000 C 
ATOM     22  O   UNL     1     140.492 127.676 101.276  0.00  0.00    +0.000 OA
ATOM     23  C   UNL     1     140.530 126.147 102.921  0.00  0.00    +0.000 C 
ENDBRANCH   5  21
BRANCH   3  24
ATOM     24  N   UNL     1     143.034 126.762  99.814  0.00  0.00    +0.000 N 
ATOM     25  H   UNL     1     142.628 127.618  99.425  0.00  0.00    +0.000 HD
BRANCH  24  26
ATOM     26  C   UNL     1     144.005 126.995 100.747  0.00  0.00    +0.000 A 
ATOM     27  C   UNL     1     144.691 125.853 101.296  0.00  0.00    +0.000 A 
ATOM     28  C   UNL     1     145.090 125.654 102.781  0.00  0.00    +0.000 A 
ATOM     29  C   UNL     1     144.818 126.593 103.843  0.00  0.00    +0.000 A 
ATOM     30  C   UNL     1     144.109 127.725 103.301  0.00  0.00    +0.000 A 
ATOM     31  C   UNL     1     143.712 127.919 101.817  0.00  0.00    +0.000 A 
BRANCH  29  32
ATOM     32  C   UNL     1     145.294 126.489 105.169  0.00  0.00    +0.000 C 
BRANCH  32  33
ATOM     33  N   UNL     1     145.796 126.370 106.526  0.00  0.00    +0.000 NA
ATOM     34  C   UNL     1     146.962 125.502 106.484  0.00  0.00    +0.000 C 
ATOM     35  C   UNL     1     144.781 125.682 107.306  0.00  0.00    +0.000 C 
ENDBRANCH  32  33
ENDBRANCH  29  32
ENDBRANCH  24  26
ENDBRANCH   3  24
TORSDOF 7
ENDMDL
MODEL 8
REMARK VINA RESULT:      -7.0      3.297      4.985
REMARK  Name = OTSSP167.pdbqt.pdb
REMARK  7 active torsions:
REMARK  status: ('A' for Active; 'I' for Inactive)
REMARK    1  A    between atoms: C_5  and  N_19
REMARK    2  A    between atoms: C_7  and  C_31
REMARK    3  A    between atoms: C_11  and  C_13
REMARK    4  A    between atoms: C_18  and  O_34
REMARK    5  A    between atoms: N_19  and  C_21
REMARK    6  A    between atoms: C_24  and  C_27
REMARK    7  A    between atoms: C_27  and  N_28
REMARK                            x       y       z     vdW  Elec       q    Type
REMARK                         _______ _______ _______ _____ _____    ______ ____
ROOT
ATOM      1  N   UNL     1     145.352 126.150  98.373  0.00  0.00    +0.000 NA
ATOM      2  N   UNL     1     144.723 123.893 101.177  0.00  0.00    +0.000 NA
ATOM      3  C   UNL     1     143.870 126.423 100.285  0.00  0.00    +0.000 A 
ATOM      4  C   UNL     1     144.810 125.680  99.524  0.00  0.00    +0.000 A 
ATOM      5  C   UNL     1     143.388 125.861 101.486  0.00  0.00    +0.000 A 
ATOM      6  C   UNL     1     145.193 124.421 100.036  0.00  0.00    +0.000 A 
ATOM      7  C   UNL     1     143.835 124.620 101.879  0.00  0.00    +0.000 A 
ATOM      8  C   UNL     1     146.118 123.694  99.308  0.00  0.00    +0.000 A 
ATOM      9  C   UNL     1     146.249 125.411  97.675  0.00  0.00    +0.000 A 
ATOM     10  C   UNL     1     146.657 124.170  98.122  0.00  0.00    +0.000 A 
ENDROOT
BRANCH   9  13
ATOM     11 CL   UNL     1     148.558 129.388  95.321  0.00  0.00    +0.000 Cl
ATOM     12 CL   UNL     1     146.805 125.037  92.550  0.00  0.00    +0.000 Cl
ATOM     13  C   UNL     1     146.737 126.000  96.426  0.00  0.00    +0.000 A 
ATOM     14  C   UNL     1     146.585 125.350  95.195  0.00  0.00    +0.000 A 
ATOM     15  C   UNL     1     147.365 127.253  96.420  0.00  0.00    +0.000 A 
ATOM     16  C   UNL     1     147.819 127.836  95.239  0.00  0.00    +0.000 A 
ATOM     17  C   UNL     1     147.041 125.923  94.007  0.00  0.00    +0.000 A 
ATOM     18  C   UNL     1     147.661 127.172  94.024  0.00  0.00    +0.000 A 
BRANCH  18  19
ATOM     19  O   UNL     1     148.103 127.731  92.854  0.00  0.00    +0.000 OA
ATOM     20  H   UNL     1     148.832 127.182  92.508  0.00  0.00    +0.000 HD
ENDBRANCH  18  19
ENDBRANCH   9  13
BRANCH   5  21
ATOM     21  C   UNL     1     142.455 126.553 102.372  0.00  0.00    +0.000 C 
ATOM     22  O   UNL     1     142.776 127.227 103.337  0.00  0.00    +0.000 OA
ATOM     23  C   UNL     1     140.964 126.482 102.237  0.00  0.00    +0.000 C 
ENDBRANCH   5  21
BRANCH   3  24
ATOM     24  N   UNL     1     143.313 127.665  99.839  0.00  0.00    +0.000 N 
ATOM     25  H   UNL     1     143.976 128.445  99.819  0.00  0.00    +0.000 HD
BRANCH  24  26
ATOM     26  C   UNL     1     142.226 127.855  99.031  0.00  0.00    +0.000 A 
ATOM     27  C   UNL     1     141.988 126.884  97.993  0.00  0.00    +0.000 A 
ATOM     28  C   UNL     1     141.529 127.189  96.544  0.00  0.00    +0.000 A 
ATOM     29  C   UNL     1     141.281 128.509  96.017  0.00  0.00    +0.000 A 
ATOM     30  C   UNL     1     141.543 129.484  97.046  0.00  0.00    +0.000 A 
ATOM     31  C   UNL     1     142.003 129.174  98.492  0.00  0.00    +0.000 A 
BRANCH  29  32
ATOM     32  C   UNL     1     140.733 128.794  94.747  0.00  0.00    +0.000 C 
BRANCH  32  33
ATOM     33  N   UNL     1     140.187 129.092  93.435  0.00  0.00    +0.000 NA
ATOM     34  C   UNL     1     141.307 129.230  92.518  0.00  0.00    +0.000 C 
ATOM     35  C   UNL     1     139.543 130.393  93.518  0.00  0.00    +0.000 C 
ENDBRANCH  32  33
ENDBRANCH  29  32
ENDBRANCH  24  26
ENDBRANCH   3  24
TORSDOF 7
ENDMDL
MODEL 9
REMARK VINA RESULT:      -7.0      3.262      6.914
REMARK  Name = OTSSP167.pdbqt.pdb
REMARK  7 active torsions:
REMARK  status: ('A' for Active; 'I' for Inactive)
REMARK    1  A    between atoms: C_5  and  N_19
REMARK    2  A    between atoms: C_7  and  C_31
REMARK    3  A    between atoms: C_11  and  C_13
REMARK    4  A    between atoms: C_18  and  O_34
REMARK    5  A    between atoms: N_19  and  C_21
REMARK    6  A    between atoms: C_24  and  C_27
REMARK    7  A    between atoms: C_27  and  N_28
REMARK                            x       y       z     vdW  Elec       q    Type
REMARK                         _______ _______ _______ _____ _____    ______ ____
ROOT
ATOM      1  N   UNL     1     144.115 127.160 100.056  0.00  0.00    +0.000 NA
ATOM      2  N   UNL     1     141.744 128.591  97.672  0.00  0.00    +0.000 NA
ATOM      3  C   UNL     1     144.176 127.173  97.622  0.00  0.00    +0.000 A 
ATOM      4  C   UNL     1     143.562 127.491  98.862  0.00  0.00    +0.000 A 
ATOM      5  C   UNL     1     143.537 127.588  96.435  0.00  0.00    +0.000 A 
ATOM      6  C   UNL     1     142.347 128.206  98.809  0.00  0.00    +0.000 A 
ATOM      7  C   UNL     1     142.348 128.279  96.511  0.00  0.00    +0.000 A 
ATOM      8  C   UNL     1     141.746 128.532 100.012  0.00  0.00    +0.000 A 
ATOM      9  C   UNL     1     143.500 127.483 101.220  0.00  0.00    +0.000 A 
ATOM     10  C   UNL     1     142.306 128.177 101.231  0.00  0.00    +0.000 A 
ENDROOT
BRANCH   9  13
ATOM     11 CL   UNL     1     147.792 127.440 104.095  0.00  0.00    +0.000 Cl
ATOM     12 CL   UNL     1     143.270 124.825 105.647  0.00  0.00    +0.000 Cl
ATOM     13  C   UNL     1     144.168 127.041 102.447  0.00  0.00    +0.000 A 
ATOM     14  C   UNL     1     143.518 126.237 103.391  0.00  0.00    +0.000 A 
ATOM     15  C   UNL     1     145.496 127.399 102.710  0.00  0.00    +0.000 A 
ATOM     16  C   UNL     1     146.152 126.972 103.862  0.00  0.00    +0.000 A 
ATOM     17  C   UNL     1     144.163 125.809 104.551  0.00  0.00    +0.000 A 
ATOM     18  C   UNL     1     145.487 126.175 104.792  0.00  0.00    +0.000 A 
BRANCH  18  19
ATOM     19  O   UNL     1     146.117 125.748 105.932  0.00  0.00    +0.000 OA
ATOM     20  H   UNL     1     146.871 125.184 105.673  0.00  0.00    +0.000 HD
ENDBRANCH  18  19
ENDBRANCH   9  13
BRANCH   5  21
ATOM     21  C   UNL     1     144.097 127.358  95.105  0.00  0.00    +0.000 C 
ATOM     22  O   UNL     1     145.136 127.843  94.690  0.00  0.00    +0.000 OA
ATOM     23  C   UNL     1     143.433 126.525  94.051  0.00  0.00    +0.000 C 
ENDBRANCH   5  21
BRANCH   3  24
ATOM     24  N   UNL     1     145.353 126.364  97.519  0.00  0.00    +0.000 N 
ATOM     25  H   UNL     1     146.152 126.708  98.058  0.00  0.00    +0.000 HD
BRANCH  24  26
ATOM     26  C   UNL     1     145.432 125.032  97.217  0.00  0.00    +0.000 A 
ATOM     27  C   UNL     1     146.264 124.649  96.105  0.00  0.00    +0.000 A 
ATOM     28  C   UNL     1     145.928 123.572  95.041  0.00  0.00    +0.000 A 
ATOM     29  C   UNL     1     144.711 122.797  95.006  0.00  0.00    +0.000 A 
ATOM     30  C   UNL     1     143.866 123.197  96.103  0.00  0.00    +0.000 A 
ATOM     31  C   UNL     1     144.205 124.274  97.163  0.00  0.00    +0.000 A 
BRANCH  29  32
ATOM     32  C   UNL     1     144.451 121.722  94.128  0.00  0.00    +0.000 C 
BRANCH  32  33
ATOM     33  N   UNL     1     144.165 120.615  93.232  0.00  0.00    +0.000 NA
ATOM     34  C   UNL     1     143.685 119.510  94.046  0.00  0.00    +0.000 C 
ATOM     35  C   UNL     1     145.427 120.196  92.645  0.00  0.00    +0.000 C 
ENDBRANCH  32  33
ENDBRANCH  29  32
ENDBRANCH  24  26
ENDBRANCH   3  24
TORSDOF 7
ENDMDL
