MODEL 1
REMARK VINA RESULT:      -6.8      0.000      0.000
REMARK  Name = 
REMARK  0 active torsions:
REMARK  status: ('A' for Active; 'I' for Inactive)
REMARK                            x       y       z     vdW  Elec       q    Type
REMARK                         _______ _______ _______ _____ _____    ______ ____
ROOT
ATOM      1  O   UNL     1     143.443 125.530  97.751  0.00  0.00    +0.000 OA
ATOM      2  O   UNL     1     143.917 126.620 102.824  0.00  0.00    +0.000 OA
ATOM      3  N   UNL     1     143.366 124.170  97.630  0.00  0.00    +0.000 N 
ATOM      4  N   UNL     1     142.880 125.350 101.190  0.00  0.00    +0.000 N 
ATOM      5  C   UNL     1     143.081 123.465  98.970  0.00  0.00    +0.000 C 
ATOM      6  C   UNL     1     141.718 123.849  99.578  0.00  0.00    +0.000 C 
ATOM      7  C   UNL     1     144.212 123.632  99.992  0.00  0.00    +0.000 C 
ATOM      8  C   UNL     1     141.745 125.254 100.245  0.00  0.00    +0.000 C 
ATOM      9  C   UNL     1     140.605 123.624  98.538  0.00  0.00    +0.000 C 
ATOM     10  C   UNL     1     144.197 125.017 100.638  0.00  0.00    +0.000 C 
ATOM     11  C   UNL     1     142.252 123.847  96.657  0.00  0.00    +0.000 C 
ATOM     12  C   UNL     1     145.578 123.272  99.393  0.00  0.00    +0.000 C 
ATOM     13  C   UNL     1     144.681 123.662  97.076  0.00  0.00    +0.000 C 
ATOM     14  C   UNL     1     140.897 124.288  97.199  0.00  0.00    +0.000 C 
ATOM     15  C   UNL     1     145.831 123.925  98.039  0.00  0.00    +0.000 C 
ATOM     16  C   UNL     1     140.400 125.561 100.924  0.00  0.00    +0.000 C 
ATOM     17  C   UNL     1     140.495 126.851 101.716  0.00  0.00    +0.000 C 
ATOM     18  C   UNL     1     142.887 126.262 102.248  0.00  0.00    +0.000 C 
ATOM     19  C   UNL     1     141.544 126.691 102.792  0.00  0.00    +0.000 C 
ENDROOT
TORSDOF 0
ENDMDL
MODEL 2
REMARK VINA RESULT:      -6.7      2.284      4.088
REMARK  Name = 
REMARK  0 active torsions:
REMARK  status: ('A' for Active; 'I' for Inactive)
REMARK                            x       y       z     vdW  Elec       q    Type
REMARK                         _______ _______ _______ _____ _____    ______ ____
ROOT
ATOM      1  O   UNL     1     145.206 127.473 100.510  0.00  0.00    +0.000 OA
ATOM      2  O   UNL     1     140.820 127.271 103.315  0.00  0.00    +0.000 OA
ATOM      3  N   UNL     1     146.051 126.517 101.002  0.00  0.00    +0.000 N 
ATOM      4  N   UNL     1     142.499 126.102 102.234  0.00  0.00    +0.000 N 
ATOM      5  C   UNL     1     145.339 125.502 101.917  0.00  0.00    +0.000 C 
ATOM      6  C   UNL     1     144.257 124.684 101.185  0.00  0.00    +0.000 C 
ATOM      7  C   UNL     1     144.785 126.132 103.201  0.00  0.00    +0.000 C 
ATOM      8  C   UNL     1     142.952 125.499 100.960  0.00  0.00    +0.000 C 
ATOM      9  C   UNL     1     144.863 124.031  99.929  0.00  0.00    +0.000 C 
ATOM     10  C   UNL     1     143.496 126.910 102.944  0.00  0.00    +0.000 C 
ATOM     11  C   UNL     1     146.661 125.780  99.829  0.00  0.00    +0.000 C 
ATOM     12  C   UNL     1     145.848 126.967 103.928  0.00  0.00    +0.000 C 
ATOM     13  C   UNL     1     147.148 127.205 101.788  0.00  0.00    +0.000 C 
ATOM     14  C   UNL     1     145.600 125.023  99.038  0.00  0.00    +0.000 C 
ATOM     15  C   UNL     1     146.590 127.928 103.007  0.00  0.00    +0.000 C 
ATOM     16  C   UNL     1     141.866 124.622 100.317  0.00  0.00    +0.000 C 
ATOM     17  C   UNL     1     140.549 125.373 100.263  0.00  0.00    +0.000 C 
ATOM     18  C   UNL     1     141.168 126.467 102.448  0.00  0.00    +0.000 C 
ATOM     19  C   UNL     1     140.116 125.709 101.672  0.00  0.00    +0.000 C 
ENDROOT
TORSDOF 0
ENDMDL
MODEL 3
REMARK VINA RESULT:      -6.7      2.581      4.517
REMARK  Name = 
REMARK  0 active torsions:
REMARK  status: ('A' for Active; 'I' for Inactive)
REMARK                            x       y       z     vdW  Elec       q    Type
REMARK                         _______ _______ _______ _____ _____    ______ ____
ROOT
ATOM      1  O   UNL     1     144.460 126.178 100.506  0.00  0.00    +0.000 OA
ATOM      2  O   UNL     1     141.709 130.248  98.769  0.00  0.00    +0.000 OA
ATOM      3  N   UNL     1     143.587 125.331 101.131  0.00  0.00    +0.000 N 
ATOM      4  N   UNL     1     141.836 127.954  99.043  0.00  0.00    +0.000 N 
ATOM      5  C   UNL     1     142.113 125.647 100.811  0.00  0.00    +0.000 C 
ATOM      6  C   UNL     1     141.770 125.479  99.317  0.00  0.00    +0.000 C 
ATOM      7  C   UNL     1     141.662 127.015 101.335  0.00  0.00    +0.000 C 
ATOM      8  C   UNL     1     142.282 126.669  98.457  0.00  0.00    +0.000 C 
ATOM      9  C   UNL     1     142.196 124.078  98.842  0.00  0.00    +0.000 C 
ATOM     10  C   UNL     1     142.170 128.158 100.456  0.00  0.00    +0.000 C 
ATOM     11  C   UNL     1     143.898 123.920 100.680  0.00  0.00    +0.000 C 
ATOM     12  C   UNL     1     142.017 127.202 102.816  0.00  0.00    +0.000 C 
ATOM     13  C   UNL     1     143.800 125.439 102.626  0.00  0.00    +0.000 C 
ATOM     14  C   UNL     1     143.641 123.745  99.188  0.00  0.00    +0.000 C 
ATOM     15  C   UNL     1     143.460 126.833 103.139  0.00  0.00    +0.000 C 
ATOM     16  C   UNL     1     141.837 126.516  96.994  0.00  0.00    +0.000 C 
ATOM     17  C   UNL     1     142.190 127.762  96.205  0.00  0.00    +0.000 C 
ATOM     18  C   UNL     1     141.727 129.118  98.279  0.00  0.00    +0.000 C 
ATOM     19  C   UNL     1     141.462 128.945  96.800  0.00  0.00    +0.000 C 
ENDROOT
TORSDOF 0
ENDMDL
MODEL 4
REMARK VINA RESULT:      -6.7      2.342      4.360
REMARK  Name = 
REMARK  0 active torsions:
REMARK  status: ('A' for Active; 'I' for Inactive)
REMARK                            x       y       z     vdW  Elec       q    Type
REMARK                         _______ _______ _______ _____ _____    ______ ____
ROOT
ATOM      1  O   UNL     1     144.003 123.426 100.502  0.00  0.00    +0.000 OA
ATOM      2  O   UNL     1     144.772 126.725 104.460  0.00  0.00    +0.000 OA
ATOM      3  N   UNL     1     143.715 124.175  99.395  0.00  0.00    +0.000 N 
ATOM      4  N   UNL     1     145.135 126.240 102.227  0.00  0.00    +0.000 N 
ATOM      5  C   UNL     1     144.059 125.666  99.574  0.00  0.00    +0.000 C 
ATOM      6  C   UNL     1     145.564 125.916  99.795  0.00  0.00    +0.000 C 
ATOM      7  C   UNL     1     143.216 126.354 100.655  0.00  0.00    +0.000 C 
ATOM      8  C   UNL     1     146.014 125.568 101.242  0.00  0.00    +0.000 C 
ATOM      9  C   UNL     1     146.371 125.250  98.665  0.00  0.00    +0.000 C 
ATOM     10  C   UNL     1     143.698 126.002 102.062  0.00  0.00    +0.000 C 
ATOM     11  C   UNL     1     144.510 123.622  98.232  0.00  0.00    +0.000 C 
ATOM     12  C   UNL     1     141.717 126.095 100.459  0.00  0.00    +0.000 C 
ATOM     13  C   UNL     1     142.235 124.043  99.099  0.00  0.00    +0.000 C 
ATOM     14  C   UNL     1     146.009 123.785  98.458  0.00  0.00    +0.000 C 
ATOM     15  C   UNL     1     141.387 124.625 100.223  0.00  0.00    +0.000 C 
ATOM     16  C   UNL     1     147.494 125.922 101.453  0.00  0.00    +0.000 C 
ATOM     17  C   UNL     1     147.875 125.743 102.910  0.00  0.00    +0.000 C 
ATOM     18  C   UNL     1     145.554 126.504 103.533  0.00  0.00    +0.000 C 
ATOM     19  C   UNL     1     147.039 126.677 103.755  0.00  0.00    +0.000 C 
ENDROOT
TORSDOF 0
ENDMDL
MODEL 5
REMARK VINA RESULT:      -6.6      1.906      4.593
REMARK  Name = 
REMARK  0 active torsions:
REMARK  status: ('A' for Active; 'I' for Inactive)
REMARK                            x       y       z     vdW  Elec       q    Type
REMARK                         _______ _______ _______ _____ _____    ______ ____
ROOT
ATOM      1  O   UNL     1     144.580 124.657 102.480  0.00  0.00    +0.000 OA
ATOM      2  O   UNL     1     143.993 122.569  97.743  0.00  0.00    +0.000 OA
ATOM      3  N   UNL     1     144.851 125.986 102.310  0.00  0.00    +0.000 N 
ATOM      4  N   UNL     1     143.556 124.347  99.159  0.00  0.00    +0.000 N 
ATOM      5  C   UNL     1     144.543 126.484 100.885  0.00  0.00    +0.000 C 
ATOM      6  C   UNL     1     143.051 126.373 100.516  0.00  0.00    +0.000 C 
ATOM      7  C   UNL     1     145.430 125.836  99.815  0.00  0.00    +0.000 C 
ATOM      8  C   UNL     1     142.636 124.914 100.170  0.00  0.00    +0.000 C 
ATOM      9  C   UNL     1     142.198 127.074 101.590  0.00  0.00    +0.000 C 
ATOM     10  C   UNL     1     144.983 124.412  99.490  0.00  0.00    +0.000 C 
ATOM     11  C   UNL     1     144.011 126.768 103.298  0.00  0.00    +0.000 C 
ATOM     12  C   UNL     1     146.918 125.922 100.182  0.00  0.00    +0.000 C 
ATOM     13  C   UNL     1     146.319 126.218 102.606  0.00  0.00    +0.000 C 
ATOM     14  C   UNL     1     142.523 126.613 103.004  0.00  0.00    +0.000 C 
ATOM     15  C   UNL     1     147.210 125.484 101.612  0.00  0.00    +0.000 C 
ATOM     16  C   UNL     1     141.170 124.858  99.713  0.00  0.00    +0.000 C 
ATOM     17  C   UNL     1     140.828 123.467  99.214  0.00  0.00    +0.000 C 
ATOM     18  C   UNL     1     143.181 123.288  98.328  0.00  0.00    +0.000 C 
ATOM     19  C   UNL     1     141.707 123.141  98.028  0.00  0.00    +0.000 C 
ENDROOT
TORSDOF 0
ENDMDL
MODEL 6
REMARK VINA RESULT:      -6.6     34.086     36.027
REMARK  Name = 
REMARK  0 active torsions:
REMARK  status: ('A' for Active; 'I' for Inactive)
REMARK                            x       y       z     vdW  Elec       q    Type
REMARK                         _______ _______ _______ _____ _____    ______ ____
ROOT
ATOM      1  O   UNL     1     137.748 121.481 135.167  0.00  0.00    +0.000 OA
ATOM      2  O   UNL     1     134.297 120.756 131.331  0.00  0.00    +0.000 OA
ATOM      3  N   UNL     1     137.564 122.747 135.648  0.00  0.00    +0.000 N 
ATOM      4  N   UNL     1     134.714 121.594 133.448  0.00  0.00    +0.000 N 
ATOM      5  C   UNL     1     136.235 123.376 135.189  0.00  0.00    +0.000 C 
ATOM      6  C   UNL     1     134.997 122.614 135.702  0.00  0.00    +0.000 C 
ATOM      7  C   UNL     1     136.164 123.596 133.673  0.00  0.00    +0.000 C 
ATOM      8  C   UNL     1     134.735 121.307 134.900  0.00  0.00    +0.000 C 
ATOM      9  C   UNL     1     135.084 122.454 137.231  0.00  0.00    +0.000 C 
ATOM     10  C   UNL     1     135.888 122.295 132.921  0.00  0.00    +0.000 C 
ATOM     11  C   UNL     1     137.582 122.682 137.161  0.00  0.00    +0.000 C 
ATOM     12  C   UNL     1     137.401 124.336 133.147  0.00  0.00    +0.000 C 
ATOM     13  C   UNL     1     138.711 123.613 135.169  0.00  0.00    +0.000 C 
ATOM     14  C   UNL     1     136.411 121.867 137.694  0.00  0.00    +0.000 C 
ATOM     15  C   UNL     1     138.713 123.746 133.651  0.00  0.00    +0.000 C 
ATOM     16  C   UNL     1     133.441 120.627 135.374  0.00  0.00    +0.000 C 
ATOM     17  C   UNL     1     133.103 119.455 134.473  0.00  0.00    +0.000 C 
ATOM     18  C   UNL     1     134.054 120.763 132.539  0.00  0.00    +0.000 C 
ATOM     19  C   UNL     1     132.885 119.962 133.066  0.00  0.00    +0.000 C 
ENDROOT
TORSDOF 0
ENDMDL
MODEL 7
REMARK VINA RESULT:      -6.5      2.341      3.876
REMARK  Name = 
REMARK  0 active torsions:
REMARK  status: ('A' for Active; 'I' for Inactive)
REMARK                            x       y       z     vdW  Elec       q    Type
REMARK                         _______ _______ _______ _____ _____    ______ ____
ROOT
ATOM      1  O   UNL     1     143.596 126.837  99.427  0.00  0.00    +0.000 OA
ATOM      2  O   UNL     1     147.924 125.341 101.912  0.00  0.00    +0.000 OA
ATOM      3  N   UNL     1     142.608 125.952  99.757  0.00  0.00    +0.000 N 
ATOM      4  N   UNL     1     145.634 125.667 102.006  0.00  0.00    +0.000 N 
ATOM      5  C   UNL     1     142.969 125.076 100.972  0.00  0.00    +0.000 C 
ATOM      6  C   UNL     1     143.167 125.890 102.265  0.00  0.00    +0.000 C 
ATOM      7  C   UNL     1     144.160 124.145 100.712  0.00  0.00    +0.000 C 
ATOM      8  C   UNL     1     144.540 126.621 102.298  0.00  0.00    +0.000 C 
ATOM      9  C   UNL     1     141.933 126.776 102.515  0.00  0.00    +0.000 C 
ATOM     10  C   UNL     1     145.491 124.895 100.768  0.00  0.00    +0.000 C 
ATOM     11  C   UNL     1     141.355 126.741 100.073  0.00  0.00    +0.000 C 
ATOM     12  C   UNL     1     143.984 123.345  99.416  0.00  0.00    +0.000 C 
ATOM     13  C   UNL     1     142.349 125.055  98.563  0.00  0.00    +0.000 C 
ATOM     14  C   UNL     1     141.548 127.617 101.305  0.00  0.00    +0.000 C 
ATOM     15  C   UNL     1     143.569 124.206  98.229  0.00  0.00    +0.000 C 
ATOM     16  C   UNL     1     144.743 127.340 103.641  0.00  0.00    +0.000 C 
ATOM     17  C   UNL     1     146.150 127.900 103.729  0.00  0.00    +0.000 C 
ATOM     18  C   UNL     1     146.948 125.900 102.418  0.00  0.00    +0.000 C 
ATOM     19  C   UNL     1     147.139 126.760 103.647  0.00  0.00    +0.000 C 
ENDROOT
TORSDOF 0
ENDMDL
MODEL 8
REMARK VINA RESULT:      -6.5     35.912     39.400
REMARK  Name = 
REMARK  0 active torsions:
REMARK  status: ('A' for Active; 'I' for Inactive)
REMARK                            x       y       z     vdW  Elec       q    Type
REMARK                         _______ _______ _______ _____ _____    ______ ____
ROOT
ATOM      1  O   UNL     1     137.347 136.051 138.058  0.00  0.00    +0.000 OA
ATOM      2  O   UNL     1     137.874 131.492 135.590  0.00  0.00    +0.000 OA
ATOM      3  N   UNL     1     138.471 136.240 138.812  0.00  0.00    +0.000 N 
ATOM      4  N   UNL     1     138.868 133.469 136.270  0.00  0.00    +0.000 N 
ATOM      5  C   UNL     1     139.621 135.290 138.424  0.00  0.00    +0.000 C 
ATOM      6  C   UNL     1     140.117 135.503 136.980  0.00  0.00    +0.000 C 
ATOM      7  C   UNL     1     139.300 133.815 138.690  0.00  0.00    +0.000 C 
ATOM      8  C   UNL     1     139.156 134.880 135.928  0.00  0.00    +0.000 C 
ATOM      9  C   UNL     1     140.472 136.986 136.767  0.00  0.00    +0.000 C 
ATOM     10  C   UNL     1     138.368 133.233 137.628  0.00  0.00    +0.000 C 
ATOM     11  C   UNL     1     138.929 137.671 138.624  0.00  0.00    +0.000 C 
ATOM     12  C   UNL     1     138.785 133.594 140.118  0.00  0.00    +0.000 C 
ATOM     13  C   UNL     1     138.116 136.013 140.267  0.00  0.00    +0.000 C 
ATOM     14  C   UNL     1     139.353 137.932 137.184  0.00  0.00    +0.000 C 
ATOM     15  C   UNL     1     137.688 134.573 140.519  0.00  0.00    +0.000 C 
ATOM     16  C   UNL     1     139.731 135.025 134.510  0.00  0.00    +0.000 C 
ATOM     17  C   UNL     1     138.876 134.264 133.516  0.00  0.00    +0.000 C 
ATOM     18  C   UNL     1     138.451 132.545 135.309  0.00  0.00    +0.000 C 
ATOM     19  C   UNL     1     138.881 132.798 133.882  0.00  0.00    +0.000 C 
ENDROOT
TORSDOF 0
ENDMDL
MODEL 9
REMARK VINA RESULT:      -6.5      2.060      4.312
REMARK  Name = 
REMARK  0 active torsions:
REMARK  status: ('A' for Active; 'I' for Inactive)
REMARK                            x       y       z     vdW  Elec       q    Type
REMARK                         _______ _______ _______ _____ _____    ______ ____
ROOT
ATOM      1  O   UNL     1     144.895 127.161 100.065  0.00  0.00    +0.000 OA
ATOM      2  O   UNL     1     140.034 125.741 101.289  0.00  0.00    +0.000 OA
ATOM      3  N   UNL     1     145.745 126.421 100.839  0.00  0.00    +0.000 N 
ATOM      4  N   UNL     1     142.210 125.079 100.858  0.00  0.00    +0.000 N 
ATOM      5  C   UNL     1     145.052 125.218 101.508  0.00  0.00    +0.000 C 
ATOM      6  C   UNL     1     144.509 124.194 100.492  0.00  0.00    +0.000 C 
ATOM      7  C   UNL     1     143.973 125.627 102.517  0.00  0.00    +0.000 C 
ATOM      8  C   UNL     1     143.187 124.670  99.824  0.00  0.00    +0.000 C 
ATOM      9  C   UNL     1     145.632 123.774  99.527  0.00  0.00    +0.000 C 
ATOM     10  C   UNL     1     142.686 126.073 101.825  0.00  0.00    +0.000 C 
ATOM     11  C   UNL     1     146.867 125.917  99.956  0.00  0.00    +0.000 C 
ATOM     12  C   UNL     1     144.497 126.663 103.520  0.00  0.00    +0.000 C 
ATOM     13  C   UNL     1     146.318 127.320 101.915  0.00  0.00    +0.000 C 
ATOM     14  C   UNL     1     146.346 124.960  98.891  0.00  0.00    +0.000 C 
ATOM     15  C   UNL     1     145.232 127.822 102.858  0.00  0.00    +0.000 C 
ATOM     16  C   UNL     1     142.624 123.584  98.894  0.00  0.00    +0.000 C 
ATOM     17  C   UNL     1     141.253 123.986  98.386  0.00  0.00    +0.000 C 
ATOM     18  C   UNL     1     140.835 125.092 100.612  0.00  0.00    +0.000 C 
ATOM     19  C   UNL     1     140.316 124.135  99.563  0.00  0.00    +0.000 C 
ENDROOT
TORSDOF 0
ENDMDL
