MODEL 1
REMARK VINA RESULT:      -6.1      0.000      0.000
REMARK  Name = 
REMARK  23 active torsions:
REMARK  status: ('A' for Active; 'I' for Inactive)
REMARK    1  A    between atoms: O_2  and  C_17
REMARK    2  A    between atoms: O_2  and  C_36
REMARK    3  A    between atoms: O_3  and  C_20
REMARK    4  A    between atoms: O_3  and  C_37
REMARK    5  A    between atoms: O_4  and  C_21
REMARK    6  A    between atoms: O_5  and  C_22
REMARK    7  A    between atoms: O_6  and  C_30
REMARK    8  A    between atoms: O_6  and  C_39
REMARK    9  A    between atoms: O_8  and  C_31
REMARK   10  A    between atoms: O_8  and  C_40
REMARK   11  A    between atoms: O_13  and  C_42
REMARK   12  A    between atoms: N_15  and  C_46
REMARK   13  A    between atoms: C_18  and  C_29
REMARK   14  A    between atoms: C_24  and  C_33
REMARK   15  A    between atoms: C_24  and  C_34
REMARK   16  A    between atoms: C_32  and  C_35
REMARK   17  A    between atoms: C_36  and  C_38
REMARK   18  A    between atoms: C_37  and  C_41
REMARK   19  A    between atoms: C_39  and  C_43
REMARK   20  A    between atoms: C_40  and  C_42
REMARK   21  A    between atoms: C_42  and  C_46
REMARK   22  A    between atoms: C_46  and  C_50
REMARK   23  A    between atoms: C_53  and  C_56
REMARK                            x       y       z     vdW  Elec       q    Type
REMARK                         _______ _______ _______ _____ _____    ______ ____
ROOT
ATOM      1  O   UNL     1     136.848 113.411 114.574  0.00  0.00    +0.000 OA
ATOM      2  O   UNL     1     136.318 113.747 107.936  0.00  0.00    +0.000 OA
ATOM      3  C   UNL     1     138.441 112.727 111.601  0.00  0.00    +0.000 C 
ATOM      4  C   UNL     1     138.274 113.435 112.977  0.00  0.00    +0.000 C 
ATOM      5  C   UNL     1     137.515 113.778 110.321  0.00  0.00    +0.000 C 
ATOM      6  C   UNL     1     136.718 113.192 113.142  0.00  0.00    +0.000 C 
ATOM      7  C   UNL     1     140.191 112.146 111.323  0.00  0.00    +0.000 C 
ATOM      8  C   UNL     1     141.285 111.305 110.026  0.00  0.00    +0.000 C 
ATOM      9  C   UNL     1     136.014 113.780 110.834  0.00  0.00    +0.000 C 
ATOM     10  C   UNL     1     135.818 114.108 112.345  0.00  0.00    +0.000 C 
ATOM     11  C   UNL     1     140.927 110.979 108.319  0.00  0.00    +0.000 C 
ATOM     12  C   UNL     1     138.203 112.832 114.436  0.00  0.00    +0.000 C 
ATOM     13  C   UNL     1     137.423 113.497 108.463  0.00  0.00    +0.000 C 
ATOM     14  C   UNL     1     142.565 112.245 109.860  0.00  0.00    +0.000 C 
ATOM     15  C   UNL     1     140.477 112.308 107.540  0.00  0.00    +0.000 C 
ATOM     16  C   UNL     1     137.913 115.311 110.390  0.00  0.00    +0.000 C 
ATOM     17  C   UNL     1     138.786 112.856 107.270  0.00  0.00    +0.000 C 
ATOM     18  C   UNL     1     142.579 113.303 108.665  0.00  0.00    +0.000 C 
ATOM     19  C   UNL     1     141.468 113.262 107.554  0.00  0.00    +0.000 C 
ATOM     20  C   UNL     1     142.306 110.481 107.654  0.00  0.00    +0.000 C 
ATOM     21  C   UNL     1     140.122 109.693 107.941  0.00  0.00    +0.000 C 
ATOM     22  C   UNL     1     141.418 114.494 106.684  0.00  0.00    +0.000 C 
ENDROOT
BRANCH   9  23
ATOM     23  O   UNL     1     135.444 112.490 110.612  0.00  0.00    +0.000 OA
ATOM     24  H   UNL     1     134.844 112.583 109.845  0.00  0.00    +0.000 HD
ENDBRANCH   9  23
BRANCH   8  25
ATOM     25  O   UNL     1     141.747 110.086 110.641  0.00  0.00    +0.000 OA
ATOM     26  H   UNL     1     141.946 109.439 109.941  0.00  0.00    +0.000 HD
ENDBRANCH   8  25
BRANCH  18  27
ATOM     27  O   UNL     1     142.530 114.639 109.248  0.00  0.00    +0.000 OA
BRANCH  27  29
ATOM     28  O   UNL     1     143.607 116.510 108.569  0.00  0.00    +0.000 OA
ATOM     29  C   UNL     1     143.640 115.410 109.111  0.00  0.00    +0.000 C 
BRANCH  29  30
ATOM     30  C   UNL     1     144.943 114.727 109.537  0.00  0.00    +0.000 C 
BRANCH  30  31
ATOM     31  O   UNL     1     145.549 115.251 110.724  0.00  0.00    +0.000 OA
ATOM     32  H   UNL     1     145.449 114.560 111.406  0.00  0.00    +0.000 HD
ENDBRANCH  30  31
BRANCH  30  33
ATOM     33  C   UNL     1     145.936 114.795 108.343  0.00  0.00    +0.000 C 
BRANCH  33  34
ATOM     34  C   UNL     1     145.745 113.602 107.417  0.00  0.00    +0.000 A 
ATOM     35  C   UNL     1     146.129 112.322 107.852  0.00  0.00    +0.000 A 
ATOM     36  C   UNL     1     145.223 113.742 106.121  0.00  0.00    +0.000 A 
ATOM     37  C   UNL     1     145.978 111.211 107.020  0.00  0.00    +0.000 A 
ATOM     38  C   UNL     1     145.071 112.630 105.292  0.00  0.00    +0.000 A 
ATOM     39  C   UNL     1     145.446 111.365 105.742  0.00  0.00    +0.000 A 
ENDBRANCH  33  34
BRANCH  33  41
ATOM     40  O   UNL     1     149.447 115.582 108.714  0.00  0.00    +0.000 OA
ATOM     41  N   UNL     1     147.320 114.866 108.831  0.00  0.00    +0.000 N 
ATOM     42  C   UNL     1     148.467 115.126 108.132  0.00  0.00    +0.000 C 
ATOM     43  H   UNL     1     147.410 115.013 109.832  0.00  0.00    +0.000 HD
BRANCH  42  44
ATOM     44  C   UNL     1     148.521 114.904 106.670  0.00  0.00    +0.000 A 
ATOM     45  C   UNL     1     148.053 115.865 105.769  0.00  0.00    +0.000 A 
ATOM     46  C   UNL     1     148.989 113.672 106.197  0.00  0.00    +0.000 A 
ATOM     47  C   UNL     1     148.111 115.618 104.396  0.00  0.00    +0.000 A 
ATOM     48  C   UNL     1     149.043 113.426 104.825  0.00  0.00    +0.000 A 
ATOM     49  C   UNL     1     148.613 114.403 103.926  0.00  0.00    +0.000 A 
ENDBRANCH  42  44
ENDBRANCH  33  41
ENDBRANCH  30  33
ENDBRANCH  29  30
ENDBRANCH  27  29
ENDBRANCH  18  27
BRANCH  17  50
ATOM     50  O   UNL     1     138.276 111.914 106.302  0.00  0.00    +0.000 OA
BRANCH  50  52
ATOM     51  O   UNL     1     137.263 111.468 104.357  0.00  0.00    +0.000 OA
ATOM     52  C   UNL     1     137.835 112.280 105.077  0.00  0.00    +0.000 C 
ATOM     53  C   UNL     1     138.148 113.669 104.605  0.00  0.00    +0.000 C 
ENDBRANCH  50  52
ENDBRANCH  17  50
BRANCH   7  54
ATOM     54  O   UNL     1     140.369 113.285 110.688  0.00  0.00    +0.000 OA
BRANCH  54  56
ATOM     55  O   UNL     1     141.187 112.778 112.452  0.00  0.00    +0.000 OA
ATOM     56  C   UNL     1     141.163 113.753 111.708  0.00  0.00    +0.000 C 
BRANCH  56  57
ATOM     57  C   UNL     1     141.700 115.580 111.901  0.00  0.00    +0.000 A 
ATOM     58  C   UNL     1     142.913 116.037 112.576  0.00  0.00    +0.000 A 
ATOM     59  C   UNL     1     141.089 116.732 111.318  0.00  0.00    +0.000 A 
ATOM     60  C   UNL     1     143.408 117.363 112.646  0.00  0.00    +0.000 A 
ATOM     61  C   UNL     1     141.569 118.070 111.379  0.00  0.00    +0.000 A 
ATOM     62  C   UNL     1     142.731 118.389 112.040  0.00  0.00    +0.000 A 
ENDBRANCH  56  57
ENDBRANCH  54  56
ENDBRANCH   7  54
BRANCH   4  63
ATOM     63  O   UNL     1     138.658 114.829 112.927  0.00  0.00    +0.000 OA
BRANCH  63  65
ATOM     64  O   UNL     1     139.808 115.408 114.755  0.00  0.00    +0.000 OA
ATOM     65  C   UNL     1     138.848 115.612 114.013  0.00  0.00    +0.000 C 
ATOM     66  C   UNL     1     137.823 116.641 114.366  0.00  0.00    +0.000 C 
ENDBRANCH  63  65
ENDBRANCH   4  63
TORSDOF 17
ENDMDL
MODEL 2
REMARK VINA RESULT:      -5.8      3.402      7.389
REMARK  Name = 
REMARK  23 active torsions:
REMARK  status: ('A' for Active; 'I' for Inactive)
REMARK    1  A    between atoms: O_2  and  C_17
REMARK    2  A    between atoms: O_2  and  C_36
REMARK    3  A    between atoms: O_3  and  C_20
REMARK    4  A    between atoms: O_3  and  C_37
REMARK    5  A    between atoms: O_4  and  C_21
REMARK    6  A    between atoms: O_5  and  C_22
REMARK    7  A    between atoms: O_6  and  C_30
REMARK    8  A    between atoms: O_6  and  C_39
REMARK    9  A    between atoms: O_8  and  C_31
REMARK   10  A    between atoms: O_8  and  C_40
REMARK   11  A    between atoms: O_13  and  C_42
REMARK   12  A    between atoms: N_15  and  C_46
REMARK   13  A    between atoms: C_18  and  C_29
REMARK   14  A    between atoms: C_24  and  C_33
REMARK   15  A    between atoms: C_24  and  C_34
REMARK   16  A    between atoms: C_32  and  C_35
REMARK   17  A    between atoms: C_36  and  C_38
REMARK   18  A    between atoms: C_37  and  C_41
REMARK   19  A    between atoms: C_39  and  C_43
REMARK   20  A    between atoms: C_40  and  C_42
REMARK   21  A    between atoms: C_42  and  C_46
REMARK   22  A    between atoms: C_46  and  C_50
REMARK   23  A    between atoms: C_53  and  C_56
REMARK                            x       y       z     vdW  Elec       q    Type
REMARK                         _______ _______ _______ _____ _____    ______ ____
ROOT
ATOM      1  O   UNL     1     140.235 113.665 105.564  0.00  0.00    +0.000 OA
ATOM      2  O   UNL     1     141.767 109.840 110.805  0.00  0.00    +0.000 OA
ATOM      3  C   UNL     1     141.419 113.689 108.795  0.00  0.00    +0.000 C 
ATOM      4  C   UNL     1     141.515 113.926 107.259  0.00  0.00    +0.000 C 
ATOM      5  C   UNL     1     141.949 111.895 109.113  0.00  0.00    +0.000 C 
ATOM      6  C   UNL     1     140.337 112.960 106.831  0.00  0.00    +0.000 C 
ATOM      7  C   UNL     1     142.125 115.115 109.767  0.00  0.00    +0.000 C 
ATOM      8  C   UNL     1     142.480 115.666 111.544  0.00  0.00    +0.000 C 
ATOM      9  C   UNL     1     140.904 111.031 108.290  0.00  0.00    +0.000 C 
ATOM     10  C   UNL     1     140.665 111.484 106.817  0.00  0.00    +0.000 C 
ATOM     11  C   UNL     1     142.428 114.703 113.032  0.00  0.00    +0.000 C 
ATOM     12  C   UNL     1     140.666 114.865 106.314  0.00  0.00    +0.000 C 
ATOM     13  C   UNL     1     142.131 111.035 110.776  0.00  0.00    +0.000 C 
ATOM     14  C   UNL     1     144.013 116.114 111.563  0.00  0.00    +0.000 C 
ATOM     15  C   UNL     1     143.338 113.386 112.923  0.00  0.00    +0.000 C 
ATOM     16  C   UNL     1     143.328 111.536 108.418  0.00  0.00    +0.000 C 
ATOM     17  C   UNL     1     142.776 111.748 112.439  0.00  0.00    +0.000 C 
ATOM     18  C   UNL     1     145.105 115.059 112.053  0.00  0.00    +0.000 C 
ATOM     19  C   UNL     1     144.660 113.701 112.709  0.00  0.00    +0.000 C 
ATOM     20  C   UNL     1     143.063 115.625 114.190  0.00  0.00    +0.000 C 
ATOM     21  C   UNL     1     141.060 114.496 113.759  0.00  0.00    +0.000 C 
ATOM     22  C   UNL     1     145.765 112.680 112.827  0.00  0.00    +0.000 C 
ENDROOT
BRANCH   9  23
ATOM     23  O   UNL     1     139.639 111.077 108.949  0.00  0.00    +0.000 OA
ATOM     24  H   UNL     1     139.706 110.472 109.715  0.00  0.00    +0.000 HD
ENDBRANCH   9  23
BRANCH   8  25
ATOM     25  O   UNL     1     141.700 116.862 111.741  0.00  0.00    +0.000 OA
ATOM     26  H   UNL     1     142.200 117.622 111.394  0.00  0.00    +0.000 HD
ENDBRANCH   8  25
BRANCH  18  27
ATOM     27  O   UNL     1     145.937 114.709 110.908  0.00  0.00    +0.000 OA
BRANCH  27  29
ATOM     28  O   UNL     1     147.791 115.714 111.728  0.00  0.00    +0.000 OA
ATOM     29  C   UNL     1     147.281 114.813 111.071  0.00  0.00    +0.000 C 
BRANCH  29  30
ATOM     30  C   UNL     1     148.099 113.818 110.241  0.00  0.00    +0.000 C 
BRANCH  30  31
ATOM     31  O   UNL     1     147.471 112.553 110.007  0.00  0.00    +0.000 OA
ATOM     32  H   UNL     1     146.920 112.668 109.210  0.00  0.00    +0.000 HD
ENDBRANCH  30  31
BRANCH  30  33
ATOM     33  C   UNL     1     149.474 113.624 110.939  0.00  0.00    +0.000 C 
BRANCH  33  34
ATOM     34  C   UNL     1     150.608 113.729 109.930  0.00  0.00    +0.000 A 
ATOM     35  C   UNL     1     150.311 113.758 108.557  0.00  0.00    +0.000 A 
ATOM     36  C   UNL     1     151.955 113.768 110.325  0.00  0.00    +0.000 A 
ATOM     37  C   UNL     1     151.330 113.842 107.607  0.00  0.00    +0.000 A 
ATOM     38  C   UNL     1     152.973 113.853 109.374  0.00  0.00    +0.000 A 
ATOM     39  C   UNL     1     152.661 113.892 108.016  0.00  0.00    +0.000 A 
ENDBRANCH  33  34
BRANCH  33  41
ATOM     40  O   UNL     1     149.124 111.013 113.418  0.00  0.00    +0.000 OA
ATOM     41  N   UNL     1     149.514 112.335 111.643  0.00  0.00    +0.000 N 
ATOM     42  C   UNL     1     149.532 112.088 112.988  0.00  0.00    +0.000 C 
ATOM     43  H   UNL     1     149.217 111.538 111.086  0.00  0.00    +0.000 HD
BRANCH  42  44
ATOM     44  C   UNL     1     149.997 113.126 113.936  0.00  0.00    +0.000 A 
ATOM     45  C   UNL     1     151.349 113.261 114.265  0.00  0.00    +0.000 A 
ATOM     46  C   UNL     1     149.041 113.937 114.561  0.00  0.00    +0.000 A 
ATOM     47  C   UNL     1     151.749 114.245 115.170  0.00  0.00    +0.000 A 
ATOM     48  C   UNL     1     149.444 114.917 115.467  0.00  0.00    +0.000 A 
ATOM     49  C   UNL     1     150.798 115.076 115.763  0.00  0.00    +0.000 A 
ENDBRANCH  42  44
ENDBRANCH  33  41
ENDBRANCH  30  33
ENDBRANCH  29  30
ENDBRANCH  27  29
ENDBRANCH  18  27
BRANCH  17  50
ATOM     50  O   UNL     1     141.990 111.313 113.569  0.00  0.00    +0.000 OA
BRANCH  50  52
ATOM     51  O   UNL     1     143.295 109.694 114.395  0.00  0.00    +0.000 OA
ATOM     52  C   UNL     1     142.507 110.612 114.603  0.00  0.00    +0.000 C 
ATOM     53  C   UNL     1     142.019 110.934 115.984  0.00  0.00    +0.000 C 
ENDBRANCH  50  52
ENDBRANCH  17  50
BRANCH   7  54
ATOM     54  O   UNL     1     143.244 114.422 109.793  0.00  0.00    +0.000 OA
BRANCH  54  56
ATOM     55  O   UNL     1     142.986 116.194 108.882  0.00  0.00    +0.000 OA
ATOM     56  C   UNL     1     143.845 115.320 108.943  0.00  0.00    +0.000 C 
BRANCH  56  57
ATOM     57  C   UNL     1     145.443 114.960 107.952  0.00  0.00    +0.000 A 
ATOM     58  C   UNL     1     145.864 113.644 107.478  0.00  0.00    +0.000 A 
ATOM     59  C   UNL     1     146.370 115.910 107.425  0.00  0.00    +0.000 A 
ATOM     60  C   UNL     1     146.974 113.345 106.650  0.00  0.00    +0.000 A 
ATOM     61  C   UNL     1     147.491 115.630 106.593  0.00  0.00    +0.000 A 
ATOM     62  C   UNL     1     147.793 114.348 106.201  0.00  0.00    +0.000 A 
ENDBRANCH  56  57
ENDBRANCH  54  56
ENDBRANCH   7  54
BRANCH   4  63
ATOM     63  O   UNL     1     142.810 113.560 106.727  0.00  0.00    +0.000 OA
BRANCH  63  65
ATOM     64  O   UNL     1     143.477 115.089 105.239  0.00  0.00    +0.000 OA
ATOM     65  C   UNL     1     143.262 113.908 105.501  0.00  0.00    +0.000 C 
ATOM     66  C   UNL     1     143.382 112.862 104.439  0.00  0.00    +0.000 C 
ENDBRANCH  63  65
ENDBRANCH   4  63
TORSDOF 17
ENDMDL
MODEL 3
REMARK VINA RESULT:      -5.8     28.013     33.077
REMARK  Name = 
REMARK  23 active torsions:
REMARK  status: ('A' for Active; 'I' for Inactive)
REMARK    1  A    between atoms: O_2  and  C_17
REMARK    2  A    between atoms: O_2  and  C_36
REMARK    3  A    between atoms: O_3  and  C_20
REMARK    4  A    between atoms: O_3  and  C_37
REMARK    5  A    between atoms: O_4  and  C_21
REMARK    6  A    between atoms: O_5  and  C_22
REMARK    7  A    between atoms: O_6  and  C_30
REMARK    8  A    between atoms: O_6  and  C_39
REMARK    9  A    between atoms: O_8  and  C_31
REMARK   10  A    between atoms: O_8  and  C_40
REMARK   11  A    between atoms: O_13  and  C_42
REMARK   12  A    between atoms: N_15  and  C_46
REMARK   13  A    between atoms: C_18  and  C_29
REMARK   14  A    between atoms: C_24  and  C_33
REMARK   15  A    between atoms: C_24  and  C_34
REMARK   16  A    between atoms: C_32  and  C_35
REMARK   17  A    between atoms: C_36  and  C_38
REMARK   18  A    between atoms: C_37  and  C_41
REMARK   19  A    between atoms: C_39  and  C_43
REMARK   20  A    between atoms: C_40  and  C_42
REMARK   21  A    between atoms: C_42  and  C_46
REMARK   22  A    between atoms: C_46  and  C_50
REMARK   23  A    between atoms: C_53  and  C_56
REMARK                            x       y       z     vdW  Elec       q    Type
REMARK                         _______ _______ _______ _____ _____    ______ ____
ROOT
ATOM      1  O   UNL     1     154.762 132.729 132.088  0.00  0.00    +0.000 OA
ATOM      2  O   UNL     1     150.684 131.945 126.872  0.00  0.00    +0.000 OA
ATOM      3  C   UNL     1     153.161 134.362 129.517  0.00  0.00    +0.000 C 
ATOM      4  C   UNL     1     153.470 134.052 131.011  0.00  0.00    +0.000 C 
ATOM      5  C   UNL     1     151.803 133.156 128.970  0.00  0.00    +0.000 C 
ATOM      6  C   UNL     1     154.111 132.621 130.792  0.00  0.00    +0.000 C 
ATOM      7  C   UNL     1     153.045 136.195 129.195  0.00  0.00    +0.000 C 
ATOM      8  C   UNL     1     152.674 137.436 127.813  0.00  0.00    +0.000 C 
ATOM      9  C   UNL     1     152.449 131.723 129.181  0.00  0.00    +0.000 C 
ATOM     10  C   UNL     1     153.137 131.490 130.560  0.00  0.00    +0.000 C 
ATOM     11  C   UNL     1     151.995 137.130 126.203  0.00  0.00    +0.000 C 
ATOM     12  C   UNL     1     154.817 134.184 131.826  0.00  0.00    +0.000 C 
ATOM     13  C   UNL     1     150.938 133.091 127.301  0.00  0.00    +0.000 C 
ATOM     14  C   UNL     1     151.557 138.417 128.396  0.00  0.00    +0.000 C 
ATOM     15  C   UNL     1     150.609 136.323 126.284  0.00  0.00    +0.000 C 
ATOM     16  C   UNL     1     150.569 133.137 129.966  0.00  0.00    +0.000 C 
ATOM     17  C   UNL     1     150.412 134.541 126.155  0.00  0.00    +0.000 C 
ATOM     18  C   UNL     1     150.028 138.118 128.050  0.00  0.00    +0.000 C 
ATOM     19  C   UNL     1     149.655 137.026 126.981  0.00  0.00    +0.000 C 
ATOM     20  C   UNL     1     151.668 138.573 125.567  0.00  0.00    +0.000 C 
ATOM     21  C   UNL     1     152.946 136.683 125.046  0.00  0.00    +0.000 C 
ATOM     22  C   UNL     1     148.199 136.629 126.987  0.00  0.00    +0.000 C 
ENDROOT
BRANCH   9  23
ATOM     23  O   UNL     1     153.442 131.509 128.179  0.00  0.00    +0.000 OA
ATOM     24  H   UNL     1     153.236 130.645 127.767  0.00  0.00    +0.000 HD
ENDBRANCH   9  23
BRANCH   8  25
ATOM     25  O   UNL     1     153.873 138.220 127.665  0.00  0.00    +0.000 OA
ATOM     26  H   UNL     1     153.810 139.001 128.244  0.00  0.00    +0.000 HD
ENDBRANCH   8  25
BRANCH  18  27
ATOM     27  O   UNL     1     149.355 137.734 129.284  0.00  0.00    +0.000 OA
BRANCH  27  29
ATOM     28  O   UNL     1     147.757 139.333 129.186  0.00  0.00    +0.000 OA
ATOM     29  C   UNL     1     148.536 138.658 129.850  0.00  0.00    +0.000 C 
BRANCH  29  30
ATOM     30  C   UNL     1     148.783 138.895 131.343  0.00  0.00    +0.000 C 
BRANCH  30  31
ATOM     31  O   UNL     1     147.623 139.241 132.108  0.00  0.00    +0.000 OA
ATOM     32  H   UNL     1     147.351 138.426 132.570  0.00  0.00    +0.000 HD
ENDBRANCH  30  31
BRANCH  30  33
ATOM     33  C   UNL     1     149.875 139.991 131.483  0.00  0.00    +0.000 C 
BRANCH  33  34
ATOM     34  C   UNL     1     150.653 139.811 132.780  0.00  0.00    +0.000 A 
ATOM     35  C   UNL     1     151.491 140.845 133.231  0.00  0.00    +0.000 A 
ATOM     36  C   UNL     1     150.586 138.627 133.530  0.00  0.00    +0.000 A 
ATOM     37  C   UNL     1     152.227 140.705 134.409  0.00  0.00    +0.000 A 
ATOM     38  C   UNL     1     151.320 138.489 134.708  0.00  0.00    +0.000 A 
ATOM     39  C   UNL     1     152.139 139.528 135.149  0.00  0.00    +0.000 A 
ENDBRANCH  33  34
BRANCH  33  41
ATOM     40  O   UNL     1     148.433 143.087 130.292  0.00  0.00    +0.000 OA
ATOM     41  N   UNL     1     149.272 141.328 131.413  0.00  0.00    +0.000 N 
ATOM     42  C   UNL     1     149.317 142.241 130.394  0.00  0.00    +0.000 C 
ATOM     43  H   UNL     1     148.513 141.486 132.068  0.00  0.00    +0.000 HD
BRANCH  42  44
ATOM     44  C   UNL     1     150.399 142.187 129.386  0.00  0.00    +0.000 A 
ATOM     45  C   UNL     1     151.728 142.458 129.726  0.00  0.00    +0.000 A 
ATOM     46  C   UNL     1     150.058 141.928 128.053  0.00  0.00    +0.000 A 
ATOM     47  C   UNL     1     152.720 142.407 128.746  0.00  0.00    +0.000 A 
ATOM     48  C   UNL     1     151.051 141.881 127.075  0.00  0.00    +0.000 A 
ATOM     49  C   UNL     1     152.383 142.112 127.425  0.00  0.00    +0.000 A 
ENDBRANCH  42  44
ENDBRANCH  33  41
ENDBRANCH  30  33
ENDBRANCH  29  30
ENDBRANCH  27  29
ENDBRANCH  18  27
BRANCH  17  50
ATOM     50  O   UNL     1     150.681 134.271 124.762  0.00  0.00    +0.000 OA
BRANCH  50  52
ATOM     51  O   UNL     1     149.267 132.743 123.941  0.00  0.00    +0.000 OA
ATOM     52  C   UNL     1     149.727 133.880 123.888  0.00  0.00    +0.000 C 
ATOM     53  C   UNL     1     149.323 134.844 122.813  0.00  0.00    +0.000 C 
ENDBRANCH  50  52
ENDBRANCH  17  50
BRANCH   7  54
ATOM     54  O   UNL     1     151.748 136.048 129.367  0.00  0.00    +0.000 OA
BRANCH  54  56
ATOM     55  O   UNL     1     150.756 136.215 131.106  0.00  0.00    +0.000 OA
ATOM     56  C   UNL     1     151.839 136.555 130.642  0.00  0.00    +0.000 C 
BRANCH  56  57
ATOM     57  C   UNL     1     153.220 137.742 131.231  0.00  0.00    +0.000 A 
ATOM     58  C   UNL     1     153.436 139.099 130.733  0.00  0.00    +0.000 A 
ATOM     59  C   UNL     1     154.137 137.542 132.307  0.00  0.00    +0.000 A 
ATOM     60  C   UNL     1     154.369 140.051 131.215  0.00  0.00    +0.000 A 
ATOM     61  C   UNL     1     155.081 138.484 132.804  0.00  0.00    +0.000 A 
ATOM     62  C   UNL     1     155.197 139.741 132.262  0.00  0.00    +0.000 A 
ENDBRANCH  56  57
ENDBRANCH  54  56
ENDBRANCH   7  54
BRANCH   4  63
ATOM     63  O   UNL     1     152.276 134.052 131.829  0.00  0.00    +0.000 OA
BRANCH  63  65
ATOM     64  O   UNL     1     152.012 132.756 133.632  0.00  0.00    +0.000 OA
ATOM     65  C   UNL     1     152.265 133.866 133.169  0.00  0.00    +0.000 C 
ATOM     66  C   UNL     1     152.444 135.042 134.075  0.00  0.00    +0.000 C 
ENDBRANCH  63  65
ENDBRANCH   4  63
TORSDOF 17
ENDMDL
MODEL 4
REMARK VINA RESULT:      -5.8     27.339     32.439
REMARK  Name = 
REMARK  23 active torsions:
REMARK  status: ('A' for Active; 'I' for Inactive)
REMARK    1  A    between atoms: O_2  and  C_17
REMARK    2  A    between atoms: O_2  and  C_36
REMARK    3  A    between atoms: O_3  and  C_20
REMARK    4  A    between atoms: O_3  and  C_37
REMARK    5  A    between atoms: O_4  and  C_21
REMARK    6  A    between atoms: O_5  and  C_22
REMARK    7  A    between atoms: O_6  and  C_30
REMARK    8  A    between atoms: O_6  and  C_39
REMARK    9  A    between atoms: O_8  and  C_31
REMARK   10  A    between atoms: O_8  and  C_40
REMARK   11  A    between atoms: O_13  and  C_42
REMARK   12  A    between atoms: N_15  and  C_46
REMARK   13  A    between atoms: C_18  and  C_29
REMARK   14  A    between atoms: C_24  and  C_33
REMARK   15  A    between atoms: C_24  and  C_34
REMARK   16  A    between atoms: C_32  and  C_35
REMARK   17  A    between atoms: C_36  and  C_38
REMARK   18  A    between atoms: C_37  and  C_41
REMARK   19  A    between atoms: C_39  and  C_43
REMARK   20  A    between atoms: C_40  and  C_42
REMARK   21  A    between atoms: C_42  and  C_46
REMARK   22  A    between atoms: C_46  and  C_50
REMARK   23  A    between atoms: C_53  and  C_56
REMARK                            x       y       z     vdW  Elec       q    Type
REMARK                         _______ _______ _______ _____ _____    ______ ____
ROOT
ATOM      1  O   UNL     1     149.121 141.341 129.378  0.00  0.00    +0.000 OA
ATOM      2  O   UNL     1     151.342 138.750 135.106  0.00  0.00    +0.000 OA
ATOM      3  C   UNL     1     151.416 139.190 130.773  0.00  0.00    +0.000 C 
ATOM      4  C   UNL     1     150.200 139.561 129.874  0.00  0.00    +0.000 C 
ATOM      5  C   UNL     1     150.736 138.840 132.509  0.00  0.00    +0.000 C 
ATOM      6  C   UNL     1     149.845 140.936 130.573  0.00  0.00    +0.000 C 
ATOM      7  C   UNL     1     152.586 138.019 129.914  0.00  0.00    +0.000 C 
ATOM      8  C   UNL     1     154.181 137.039 130.205  0.00  0.00    +0.000 C 
ATOM      9  C   UNL     1     150.047 140.203 132.937  0.00  0.00    +0.000 C 
ATOM     10  C   UNL     1     149.093 140.838 131.880  0.00  0.00    +0.000 C 
ATOM     11  C   UNL     1     155.035 136.743 131.732  0.00  0.00    +0.000 C 
ATOM     12  C   UNL     1     150.106 140.530 128.630  0.00  0.00    +0.000 C 
ATOM     13  C   UNL     1     151.697 138.253 134.016  0.00  0.00    +0.000 C 
ATOM     14  C   UNL     1     153.852 135.535 129.782  0.00  0.00    +0.000 C 
ATOM     15  C   UNL     1     154.066 136.107 132.843  0.00  0.00    +0.000 C 
ATOM     16  C   UNL     1     149.522 137.821 132.492  0.00  0.00    +0.000 C 
ATOM     17  C   UNL     1     153.164 137.016 134.105  0.00  0.00    +0.000 C 
ATOM     18  C   UNL     1     153.431 134.500 130.922  0.00  0.00    +0.000 C 
ATOM     19  C   UNL     1     153.560 134.894 132.439  0.00  0.00    +0.000 C 
ATOM     20  C   UNL     1     156.171 135.648 131.410  0.00  0.00    +0.000 C 
ATOM     21  C   UNL     1     156.032 137.819 132.270  0.00  0.00    +0.000 C 
ATOM     22  C   UNL     1     152.839 133.963 133.382  0.00  0.00    +0.000 C 
ENDROOT
BRANCH   9  23
ATOM     23  O   UNL     1     151.060 141.169 133.215  0.00  0.00    +0.000 OA
ATOM     24  H   UNL     1     150.594 142.008 133.409  0.00  0.00    +0.000 HD
ENDBRANCH   9  23
BRANCH   8  25
ATOM     25  O   UNL     1     155.125 137.541 129.240  0.00  0.00    +0.000 OA
ATOM     26  H   UNL     1     155.078 136.988 128.440  0.00  0.00    +0.000 HD
ENDBRANCH   8  25
BRANCH  18  27
ATOM     27  O   UNL     1     152.036 134.138 130.707  0.00  0.00    +0.000 OA
BRANCH  27  29
ATOM     28  O   UNL     1     152.457 131.914 130.674  0.00  0.00    +0.000 OA
ATOM     29  C   UNL     1     151.788 132.869 130.291  0.00  0.00    +0.000 C 
BRANCH  29  30
ATOM     30  C   UNL     1     150.724 132.757 129.195  0.00  0.00    +0.000 C 
BRANCH  30  31
ATOM     31  O   UNL     1     149.803 131.670 129.345  0.00  0.00    +0.000 OA
ATOM     32  H   UNL     1     150.345 130.861 129.396  0.00  0.00    +0.000 HD
ENDBRANCH  30  31
BRANCH  30  33
ATOM     33  C   UNL     1     151.450 132.670 127.824  0.00  0.00    +0.000 C 
BRANCH  33  34
ATOM     34  C   UNL     1     150.484 132.966 126.686  0.00  0.00    +0.000 A 
ATOM     35  C   UNL     1     149.917 134.248 126.577  0.00  0.00    +0.000 A 
ATOM     36  C   UNL     1     150.112 131.987 125.751  0.00  0.00    +0.000 A 
ATOM     37  C   UNL     1     149.018 134.546 125.552  0.00  0.00    +0.000 A 
ATOM     38  C   UNL     1     149.215 132.288 124.725  0.00  0.00    +0.000 A 
ATOM     39  C   UNL     1     148.670 133.567 124.625  0.00  0.00    +0.000 A 
ENDBRANCH  33  34
BRANCH  33  41
ATOM     40  O   UNL     1     153.846 129.996 127.391  0.00  0.00    +0.000 OA
ATOM     41  N   UNL     1     152.073 131.351 127.656  0.00  0.00    +0.000 N 
ATOM     42  C   UNL     1     153.268 131.030 127.072  0.00  0.00    +0.000 C 
ATOM     43  H   UNL     1     151.718 130.632 128.280  0.00  0.00    +0.000 HD
BRANCH  42  44
ATOM     44  C   UNL     1     153.893 131.946 126.090  0.00  0.00    +0.000 A 
ATOM     45  C   UNL     1     153.504 131.950 124.747  0.00  0.00    +0.000 A 
ATOM     46  C   UNL     1     154.942 132.768 126.517  0.00  0.00    +0.000 A 
ATOM     47  C   UNL     1     154.123 132.820 123.848  0.00  0.00    +0.000 A 
ATOM     48  C   UNL     1     155.560 133.634 125.616  0.00  0.00    +0.000 A 
ATOM     49  C   UNL     1     155.143 133.666 124.284  0.00  0.00    +0.000 A 
ENDBRANCH  42  44
ENDBRANCH  33  41
ENDBRANCH  30  33
ENDBRANCH  29  30
ENDBRANCH  27  29
ENDBRANCH  18  27
BRANCH  17  50
ATOM     50  O   UNL     1     154.199 137.449 135.014  0.00  0.00    +0.000 OA
BRANCH  50  52
ATOM     51  O   UNL     1     154.093 137.889 137.206  0.00  0.00    +0.000 OA
ATOM     52  C   UNL     1     154.252 137.066 136.310  0.00  0.00    +0.000 C 
ATOM     53  C   UNL     1     154.598 135.637 136.604  0.00  0.00    +0.000 C 
ENDBRANCH  50  52
ENDBRANCH  17  50
BRANCH   7  54
ATOM     54  O   UNL     1     151.924 137.058 130.524  0.00  0.00    +0.000 OA
BRANCH  54  56
ATOM     55  O   UNL     1     150.334 136.069 129.795  0.00  0.00    +0.000 OA
ATOM     56  C   UNL     1     151.252 136.758 129.362  0.00  0.00    +0.000 C 
BRANCH  56  57
ATOM     57  C   UNL     1     151.923 137.118 127.607  0.00  0.00    +0.000 A 
ATOM     58  C   UNL     1     152.815 136.244 126.848  0.00  0.00    +0.000 A 
ATOM     59  C   UNL     1     151.562 138.196 126.743  0.00  0.00    +0.000 A 
ATOM     60  C   UNL     1     153.247 136.413 125.509  0.00  0.00    +0.000 A 
ATOM     61  C   UNL     1     151.986 138.385 125.397  0.00  0.00    +0.000 A 
ATOM     62  C   UNL     1     152.827 137.493 124.776  0.00  0.00    +0.000 A 
ENDBRANCH  56  57
ENDBRANCH  54  56
ENDBRANCH   7  54
BRANCH   4  63
ATOM     63  O   UNL     1     149.148 138.569 129.938  0.00  0.00    +0.000 OA
BRANCH  63  65
ATOM     64  O   UNL     1     146.981 139.007 129.606  0.00  0.00    +0.000 OA
ATOM     65  C   UNL     1     148.042 138.574 129.160  0.00  0.00    +0.000 C 
ATOM     66  C   UNL     1     148.093 137.943 127.806  0.00  0.00    +0.000 C 
ENDBRANCH  63  65
ENDBRANCH   4  63
TORSDOF 17
ENDMDL
MODEL 5
REMARK VINA RESULT:      -5.7     28.399     33.469
REMARK  Name = 
REMARK  23 active torsions:
REMARK  status: ('A' for Active; 'I' for Inactive)
REMARK    1  A    between atoms: O_2  and  C_17
REMARK    2  A    between atoms: O_2  and  C_36
REMARK    3  A    between atoms: O_3  and  C_20
REMARK    4  A    between atoms: O_3  and  C_37
REMARK    5  A    between atoms: O_4  and  C_21
REMARK    6  A    between atoms: O_5  and  C_22
REMARK    7  A    between atoms: O_6  and  C_30
REMARK    8  A    between atoms: O_6  and  C_39
REMARK    9  A    between atoms: O_8  and  C_31
REMARK   10  A    between atoms: O_8  and  C_40
REMARK   11  A    between atoms: O_13  and  C_42
REMARK   12  A    between atoms: N_15  and  C_46
REMARK   13  A    between atoms: C_18  and  C_29
REMARK   14  A    between atoms: C_24  and  C_33
REMARK   15  A    between atoms: C_24  and  C_34
REMARK   16  A    between atoms: C_32  and  C_35
REMARK   17  A    between atoms: C_36  and  C_38
REMARK   18  A    between atoms: C_37  and  C_41
REMARK   19  A    between atoms: C_39  and  C_43
REMARK   20  A    between atoms: C_40  and  C_42
REMARK   21  A    between atoms: C_42  and  C_46
REMARK   22  A    between atoms: C_46  and  C_50
REMARK   23  A    between atoms: C_53  and  C_56
REMARK                            x       y       z     vdW  Elec       q    Type
REMARK                         _______ _______ _______ _____ _____    ______ ____
ROOT
ATOM      1  O   UNL     1     154.738 133.082 132.611  0.00  0.00    +0.000 OA
ATOM      2  O   UNL     1     150.066 132.232 127.930  0.00  0.00    +0.000 OA
ATOM      3  C   UNL     1     153.465 134.330 129.667  0.00  0.00    +0.000 C 
ATOM      4  C   UNL     1     153.824 134.387 131.181  0.00  0.00    +0.000 C 
ATOM      5  C   UNL     1     151.740 133.552 129.535  0.00  0.00    +0.000 C 
ATOM      6  C   UNL     1     153.946 132.826 131.418  0.00  0.00    +0.000 C 
ATOM      7  C   UNL     1     153.905 135.914 128.787  0.00  0.00    +0.000 C 
ATOM      8  C   UNL     1     153.798 136.744 127.087  0.00  0.00    +0.000 C 
ATOM      9  C   UNL     1     151.914 132.114 130.181  0.00  0.00    +0.000 C 
ATOM     10  C   UNL     1     152.641 132.076 131.559  0.00  0.00    +0.000 C 
ATOM     11  C   UNL     1     152.881 136.228 125.660  0.00  0.00    +0.000 C 
ATOM     12  C   UNL     1     155.225 134.288 131.904  0.00  0.00    +0.000 C 
ATOM     13  C   UNL     1     150.718 133.297 127.976  0.00  0.00    +0.000 C 
ATOM     14  C   UNL     1     153.126 138.171 127.341  0.00  0.00    +0.000 C 
ATOM     15  C   UNL     1     151.328 136.000 125.999  0.00  0.00    +0.000 C 
ATOM     16  C   UNL     1     150.686 134.245 130.495  0.00  0.00    +0.000 C 
ATOM     17  C   UNL     1     150.559 134.435 126.437  0.00  0.00    +0.000 C 
ATOM     18  C   UNL     1     151.553 138.319 127.116  0.00  0.00    +0.000 C 
ATOM     19  C   UNL     1     150.733 137.156 126.446  0.00  0.00    +0.000 C 
ATOM     20  C   UNL     1     152.964 137.442 124.605  0.00  0.00    +0.000 C 
ATOM     21  C   UNL     1     153.503 135.167 124.695  0.00  0.00    +0.000 C 
ATOM     22  C   UNL     1     149.237 137.295 126.586  0.00  0.00    +0.000 C 
ENDROOT
BRANCH   9  23
ATOM     23  O   UNL     1     152.668 131.292 129.291  0.00  0.00    +0.000 OA
ATOM     24  H   UNL     1     153.027 130.559 129.830  0.00  0.00    +0.000 HD
ENDBRANCH   9  23
BRANCH   8  25
ATOM     25  O   UNL     1     155.161 136.996 126.693  0.00  0.00    +0.000 OA
ATOM     26  H   UNL     1     155.276 137.953 126.560  0.00  0.00    +0.000 HD
ENDBRANCH   8  25
BRANCH  18  27
ATOM     27  O   UNL     1     150.935 138.566 128.412  0.00  0.00    +0.000 OA
BRANCH  27  29
ATOM     28  O   UNL     1     151.739 140.619 128.921  0.00  0.00    +0.000 OA
ATOM     29  C   UNL     1     150.783 139.863 128.783  0.00  0.00    +0.000 C 
BRANCH  29  30
ATOM     30  C   UNL     1     149.351 140.250 129.167  0.00  0.00    +0.000 C 
BRANCH  30  31
ATOM     31  O   UNL     1     148.586 140.872 128.129  0.00  0.00    +0.000 OA
ATOM     32  H   UNL     1     148.056 140.162 127.721  0.00  0.00    +0.000 HD
ENDBRANCH  30  31
BRANCH  30  33
ATOM     33  C   UNL     1     149.418 141.167 130.419  0.00  0.00    +0.000 C 
BRANCH  33  34
ATOM     34  C   UNL     1     148.163 141.012 131.266  0.00  0.00    +0.000 A 
ATOM     35  C   UNL     1     147.973 141.849 132.379  0.00  0.00    +0.000 A 
ATOM     36  C   UNL     1     147.196 140.032 130.992  0.00  0.00    +0.000 A 
ATOM     37  C   UNL     1     146.839 141.722 133.183  0.00  0.00    +0.000 A 
ATOM     38  C   UNL     1     146.062 139.907 131.795  0.00  0.00    +0.000 A 
ATOM     39  C   UNL     1     145.882 140.753 132.888  0.00  0.00    +0.000 A 
ENDBRANCH  33  34
BRANCH  33  41
ATOM     40  O   UNL     1     150.886 144.382 129.650  0.00  0.00    +0.000 OA
ATOM     41  N   UNL     1     149.613 142.567 130.020  0.00  0.00    +0.000 N 
ATOM     42  C   UNL     1     150.608 143.435 130.380  0.00  0.00    +0.000 C 
ATOM     43  H   UNL     1     149.121 142.839 129.174  0.00  0.00    +0.000 HD
BRANCH  42  44
ATOM     44  C   UNL     1     151.383 143.214 131.621  0.00  0.00    +0.000 A 
ATOM     45  C   UNL     1     150.859 143.538 132.876  0.00  0.00    +0.000 A 
ATOM     46  C   UNL     1     152.695 142.737 131.514  0.00  0.00    +0.000 A 
ATOM     47  C   UNL     1     151.623 143.325 134.025  0.00  0.00    +0.000 A 
ATOM     48  C   UNL     1     153.458 142.528 132.663  0.00  0.00    +0.000 A 
ATOM     49  C   UNL     1     152.917 142.814 133.917  0.00  0.00    +0.000 A 
ENDBRANCH  42  44
ENDBRANCH  33  41
ENDBRANCH  30  33
ENDBRANCH  29  30
ENDBRANCH  27  29
ENDBRANCH  18  27
BRANCH  17  50
ATOM     50  O   UNL     1     150.570 133.694 125.198  0.00  0.00    +0.000 OA
BRANCH  50  52
ATOM     51  O   UNL     1     149.421 131.999 124.295  0.00  0.00    +0.000 OA
ATOM     52  C   UNL     1     149.453 133.178 124.636  0.00  0.00    +0.000 C 
ATOM     53  C   UNL     1     148.308 134.108 124.370  0.00  0.00    +0.000 C 
ENDBRANCH  50  52
ENDBRANCH  17  50
BRANCH   7  54
ATOM     54  O   UNL     1     152.658 136.273 129.004  0.00  0.00    +0.000 OA
BRANCH  54  56
ATOM     55  O   UNL     1     154.282 137.131 129.818  0.00  0.00    +0.000 OA
ATOM     56  C   UNL     1     153.063 137.186 129.948  0.00  0.00    +0.000 C 
BRANCH  56  57
ATOM     57  C   UNL     1     151.904 137.970 131.254  0.00  0.00    +0.000 A 
ATOM     58  C   UNL     1     150.581 137.468 131.619  0.00  0.00    +0.000 A 
ATOM     59  C   UNL     1     152.199 139.050 132.140  0.00  0.00    +0.000 A 
ATOM     60  C   UNL     1     149.738 137.945 132.653  0.00  0.00    +0.000 A 
ATOM     61  C   UNL     1     151.365 139.545 133.183  0.00  0.00    +0.000 A 
ATOM     62  C   UNL     1     150.135 138.992 133.444  0.00  0.00    +0.000 A 
ENDBRANCH  56  57
ENDBRANCH  54  56
ENDBRANCH   7  54
BRANCH   4  63
ATOM     63  O   UNL     1     152.793 135.031 131.966  0.00  0.00    +0.000 OA
BRANCH  63  65
ATOM     64  O   UNL     1     152.111 134.465 134.018  0.00  0.00    +0.000 OA
ATOM     65  C   UNL     1     152.827 135.171 133.310  0.00  0.00    +0.000 C 
ATOM     66  C   UNL     1     153.649 136.264 133.915  0.00  0.00    +0.000 C 
ENDBRANCH  63  65
ENDBRANCH   4  63
TORSDOF 17
ENDMDL
MODEL 6
REMARK VINA RESULT:      -5.7      2.613      9.035
REMARK  Name = 
REMARK  23 active torsions:
REMARK  status: ('A' for Active; 'I' for Inactive)
REMARK    1  A    between atoms: O_2  and  C_17
REMARK    2  A    between atoms: O_2  and  C_36
REMARK    3  A    between atoms: O_3  and  C_20
REMARK    4  A    between atoms: O_3  and  C_37
REMARK    5  A    between atoms: O_4  and  C_21
REMARK    6  A    between atoms: O_5  and  C_22
REMARK    7  A    between atoms: O_6  and  C_30
REMARK    8  A    between atoms: O_6  and  C_39
REMARK    9  A    between atoms: O_8  and  C_31
REMARK   10  A    between atoms: O_8  and  C_40
REMARK   11  A    between atoms: O_13  and  C_42
REMARK   12  A    between atoms: N_15  and  C_46
REMARK   13  A    between atoms: C_18  and  C_29
REMARK   14  A    between atoms: C_24  and  C_33
REMARK   15  A    between atoms: C_24  and  C_34
REMARK   16  A    between atoms: C_32  and  C_35
REMARK   17  A    between atoms: C_36  and  C_38
REMARK   18  A    between atoms: C_37  and  C_41
REMARK   19  A    between atoms: C_39  and  C_43
REMARK   20  A    between atoms: C_40  and  C_42
REMARK   21  A    between atoms: C_42  and  C_46
REMARK   22  A    between atoms: C_46  and  C_50
REMARK   23  A    between atoms: C_53  and  C_56
REMARK                            x       y       z     vdW  Elec       q    Type
REMARK                         _______ _______ _______ _____ _____    ______ ____
ROOT
ATOM      1  O   UNL     1     149.592 113.899 106.560  0.00  0.00    +0.000 OA
ATOM      2  O   UNL     1     145.123 108.979 106.029  0.00  0.00    +0.000 OA
ATOM      3  C   UNL     1     146.233 113.179 106.357  0.00  0.00    +0.000 C 
ATOM      4  C   UNL     1     147.514 113.731 107.047  0.00  0.00    +0.000 C 
ATOM      5  C   UNL     1     146.122 111.334 106.787  0.00  0.00    +0.000 C 
ATOM      6  C   UNL     1     148.571 112.937 106.176  0.00  0.00    +0.000 C 
ATOM      7  C   UNL     1     144.780 114.330 106.561  0.00  0.00    +0.000 C 
ATOM      8  C   UNL     1     142.935 114.474 106.156  0.00  0.00    +0.000 C 
ATOM      9  C   UNL     1     147.457 110.717 106.192  0.00  0.00    +0.000 C 
ATOM     10  C   UNL     1     148.769 111.483 106.541  0.00  0.00    +0.000 C 
ATOM     11  C   UNL     1     141.833 113.222 105.553  0.00  0.00    +0.000 C 
ATOM     12  C   UNL     1     148.494 114.890 106.608  0.00  0.00    +0.000 C 
ATOM     13  C   UNL     1     144.749 110.134 106.326  0.00  0.00    +0.000 C 
ATOM     14  C   UNL     1     142.213 114.831 107.535  0.00  0.00    +0.000 C 
ATOM     15  C   UNL     1     141.852 111.914 106.484  0.00  0.00    +0.000 C 
ATOM     16  C   UNL     1     146.271 111.063 108.342  0.00  0.00    +0.000 C 
ATOM     17  C   UNL     1     142.856 110.445 106.227  0.00  0.00    +0.000 C 
ATOM     18  C   UNL     1     141.568 113.643 108.383  0.00  0.00    +0.000 C 
ATOM     19  C   UNL     1     141.450 112.201 107.768  0.00  0.00    +0.000 C 
ATOM     20  C   UNL     1     140.350 113.845 105.638  0.00  0.00    +0.000 C 
ATOM     21  C   UNL     1     141.772 112.933 104.019  0.00  0.00    +0.000 C 
ATOM     22  C   UNL     1     141.124 111.125 108.774  0.00  0.00    +0.000 C 
ENDROOT
BRANCH   9  23
ATOM     23  O   UNL     1     147.360 110.686 104.769  0.00  0.00    +0.000 OA
ATOM     24  H   UNL     1     147.573 109.770 104.498  0.00  0.00    +0.000 HD
ENDBRANCH   9  23
BRANCH   8  25
ATOM     25  O   UNL     1     142.814 115.638 105.315  0.00  0.00    +0.000 OA
ATOM     26  H   UNL     1     142.093 115.490 104.678  0.00  0.00    +0.000 HD
ENDBRANCH   8  25
BRANCH  18  27
ATOM     27  O   UNL     1     142.335 113.503 109.615  0.00  0.00    +0.000 OA
BRANCH  27  29
ATOM     28  O   UNL     1     141.719 113.176 111.768  0.00  0.00    +0.000 OA
ATOM     29  C   UNL     1     141.722 113.883 110.766  0.00  0.00    +0.000 C 
BRANCH  29  30
ATOM     30  C   UNL     1     140.909 115.176 110.655  0.00  0.00    +0.000 C 
BRANCH  30  31
ATOM     31  O   UNL     1     141.502 116.327 111.268  0.00  0.00    +0.000 OA
ATOM     32  H   UNL     1     142.450 116.122 111.366  0.00  0.00    +0.000 HD
ENDBRANCH  30  31
BRANCH  30  33
ATOM     33  C   UNL     1     139.496 114.911 111.246  0.00  0.00    +0.000 C 
BRANCH  33  34
ATOM     34  C   UNL     1     138.694 113.998 110.329  0.00  0.00    +0.000 A 
ATOM     35  C   UNL     1     138.257 114.481 109.083  0.00  0.00    +0.000 A 
ATOM     36  C   UNL     1     138.344 112.690 110.701  0.00  0.00    +0.000 A 
ATOM     37  C   UNL     1     137.509 113.672 108.227  0.00  0.00    +0.000 A 
ATOM     38  C   UNL     1     137.597 111.882 109.843  0.00  0.00    +0.000 A 
ATOM     39  C   UNL     1     137.182 112.372 108.606  0.00  0.00    +0.000 A 
ENDBRANCH  33  34
BRANCH  33  41
ATOM     40  O   UNL     1     137.531 117.569 112.713  0.00  0.00    +0.000 OA
ATOM     41  N   UNL     1     138.790 116.178 111.476  0.00  0.00    +0.000 N 
ATOM     42  C   UNL     1     137.721 116.432 112.290  0.00  0.00    +0.000 C 
ATOM     43  H   UNL     1     139.316 117.009 111.222  0.00  0.00    +0.000 HD
BRANCH  42  44
ATOM     44  C   UNL     1     136.815 115.337 112.705  0.00  0.00    +0.000 A 
ATOM     45  C   UNL     1     135.681 115.006 111.957  0.00  0.00    +0.000 A 
ATOM     46  C   UNL     1     137.075 114.675 113.910  0.00  0.00    +0.000 A 
ATOM     47  C   UNL     1     134.844 113.973 112.384  0.00  0.00    +0.000 A 
ATOM     48  C   UNL     1     136.236 113.645 114.336  0.00  0.00    +0.000 A 
ATOM     49  C   UNL     1     135.127 113.290 113.567  0.00  0.00    +0.000 A 
ENDBRANCH  42  44
ENDBRANCH  33  41
ENDBRANCH  30  33
ENDBRANCH  29  30
ENDBRANCH  27  29
ENDBRANCH  18  27
BRANCH  17  50
ATOM     50  O   UNL     1     142.253 109.821 105.073  0.00  0.00    +0.000 OA
BRANCH  50  52
ATOM     51  O   UNL     1     141.523 108.022 106.187  0.00  0.00    +0.000 OA
ATOM     52  C   UNL     1     141.662 108.606 105.116  0.00  0.00    +0.000 C 
ATOM     53  C   UNL     1     141.270 107.970 103.815  0.00  0.00    +0.000 C 
ENDBRANCH  50  52
ENDBRANCH  17  50
BRANCH   7  54
ATOM     54  O   UNL     1     144.460 113.592 107.603  0.00  0.00    +0.000 OA
BRANCH  54  56
ATOM     55  O   UNL     1     145.093 115.498 107.660  0.00  0.00    +0.000 OA
ATOM     56  C   UNL     1     144.818 114.608 108.458  0.00  0.00    +0.000 C 
BRANCH  56  57
ATOM     57  C   UNL     1     145.085 114.386 110.340  0.00  0.00    +0.000 A 
ATOM     58  C   UNL     1     144.925 115.435 111.345  0.00  0.00    +0.000 A 
ATOM     59  C   UNL     1     145.343 113.170 111.043  0.00  0.00    +0.000 A 
ATOM     60  C   UNL     1     145.002 115.292 112.753  0.00  0.00    +0.000 A 
ATOM     61  C   UNL     1     145.426 113.007 112.455  0.00  0.00    +0.000 A 
ATOM     62  C   UNL     1     145.253 114.066 113.313  0.00  0.00    +0.000 A 
ENDBRANCH  56  57
ENDBRANCH  54  56
ENDBRANCH   7  54
BRANCH   4  63
ATOM     63  O   UNL     1     147.553 113.422 108.461  0.00  0.00    +0.000 OA
BRANCH  63  65
ATOM     64  O   UNL     1     148.277 115.204 109.600  0.00  0.00    +0.000 OA
ATOM     65  C   UNL     1     148.388 114.005 109.351  0.00  0.00    +0.000 C 
ATOM     66  C   UNL     1     149.512 113.210 109.933  0.00  0.00    +0.000 C 
ENDBRANCH  63  65
ENDBRANCH   4  63
TORSDOF 17
ENDMDL
MODEL 7
REMARK VINA RESULT:      -5.7      2.894      8.164
REMARK  Name = 
REMARK  23 active torsions:
REMARK  status: ('A' for Active; 'I' for Inactive)
REMARK    1  A    between atoms: O_2  and  C_17
REMARK    2  A    between atoms: O_2  and  C_36
REMARK    3  A    between atoms: O_3  and  C_20
REMARK    4  A    between atoms: O_3  and  C_37
REMARK    5  A    between atoms: O_4  and  C_21
REMARK    6  A    between atoms: O_5  and  C_22
REMARK    7  A    between atoms: O_6  and  C_30
REMARK    8  A    between atoms: O_6  and  C_39
REMARK    9  A    between atoms: O_8  and  C_31
REMARK   10  A    between atoms: O_8  and  C_40
REMARK   11  A    between atoms: O_13  and  C_42
REMARK   12  A    between atoms: N_15  and  C_46
REMARK   13  A    between atoms: C_18  and  C_29
REMARK   14  A    between atoms: C_24  and  C_33
REMARK   15  A    between atoms: C_24  and  C_34
REMARK   16  A    between atoms: C_32  and  C_35
REMARK   17  A    between atoms: C_36  and  C_38
REMARK   18  A    between atoms: C_37  and  C_41
REMARK   19  A    between atoms: C_39  and  C_43
REMARK   20  A    between atoms: C_40  and  C_42
REMARK   21  A    between atoms: C_42  and  C_46
REMARK   22  A    between atoms: C_46  and  C_50
REMARK   23  A    between atoms: C_53  and  C_56
REMARK                            x       y       z     vdW  Elec       q    Type
REMARK                         _______ _______ _______ _____ _____    ______ ____
ROOT
ATOM      1  O   UNL     1     143.827 116.363 112.200  0.00  0.00    +0.000 OA
ATOM      2  O   UNL     1     147.603 112.134 108.691  0.00  0.00    +0.000 OA
ATOM      3  C   UNL     1     144.222 114.845 109.137  0.00  0.00    +0.000 C 
ATOM      4  C   UNL     1     143.475 115.158 110.466  0.00  0.00    +0.000 C 
ATOM      5  C   UNL     1     145.383 113.385 109.484  0.00  0.00    +0.000 C 
ATOM      6  C   UNL     1     144.726 115.681 111.283  0.00  0.00    +0.000 C 
ATOM      7  C   UNL     1     143.072 114.866 107.669  0.00  0.00    +0.000 C 
ATOM      8  C   UNL     1     143.051 114.567 105.799  0.00  0.00    +0.000 C 
ATOM      9  C   UNL     1     146.349 113.921 110.622  0.00  0.00    +0.000 C 
ATOM     10  C   UNL     1     145.649 114.616 111.830  0.00  0.00    +0.000 C 
ATOM     11  C   UNL     1     144.306 113.834 104.781  0.00  0.00    +0.000 C 
ATOM     12  C   UNL     1     142.929 116.527 111.035  0.00  0.00    +0.000 C 
ATOM     13  C   UNL     1     146.485 112.485 108.254  0.00  0.00    +0.000 C 
ATOM     14  C   UNL     1     141.855 113.542 105.536  0.00  0.00    +0.000 C 
ATOM     15  C   UNL     1     144.749 112.391 105.328  0.00  0.00    +0.000 C 
ATOM     16  C   UNL     1     144.643 112.174 110.191  0.00  0.00    +0.000 C 
ATOM     17  C   UNL     1     146.140 112.052 106.414  0.00  0.00    +0.000 C 
ATOM     18  C   UNL     1     142.198 111.988 105.420  0.00  0.00    +0.000 C 
ATOM     19  C   UNL     1     143.694 111.509 105.340  0.00  0.00    +0.000 C 
ATOM     20  C   UNL     1     143.639 113.609 103.332  0.00  0.00    +0.000 C 
ATOM     21  C   UNL     1     145.478 114.724 104.255  0.00  0.00    +0.000 C 
ATOM     22  C   UNL     1     143.880 110.027 105.555  0.00  0.00    +0.000 C 
ENDROOT
BRANCH   9  23
ATOM     23  O   UNL     1     147.249 114.874 110.059  0.00  0.00    +0.000 OA
ATOM     24  H   UNL     1     146.737 115.374 109.391  0.00  0.00    +0.000 HD
ENDBRANCH   9  23
BRANCH   8  25
ATOM     25  O   UNL     1     142.655 115.821 105.211  0.00  0.00    +0.000 OA
ATOM     26  H   UNL     1     141.916 116.189 105.726  0.00  0.00    +0.000 HD
ENDBRANCH   8  25
BRANCH  18  27
ATOM     27  O   UNL     1     141.609 111.311 106.568  0.00  0.00    +0.000 OA
BRANCH  27  29
ATOM     28  O   UNL     1     140.621 109.411 105.836  0.00  0.00    +0.000 OA
ATOM     29  C   UNL     1     140.524 110.530 106.330  0.00  0.00    +0.000 C 
BRANCH  29  30
ATOM     30  C   UNL     1     139.179 111.219 106.577  0.00  0.00    +0.000 C 
BRANCH  30  31
ATOM     31  O   UNL     1     138.130 110.365 107.046  0.00  0.00    +0.000 OA
ATOM     32  H   UNL     1     138.530 109.483 107.162  0.00  0.00    +0.000 HD
ENDBRANCH  30  31
BRANCH  30  33
ATOM     33  C   UNL     1     138.755 111.933 105.264  0.00  0.00    +0.000 C 
BRANCH  33  34
ATOM     34  C   UNL     1     138.172 113.307 105.564  0.00  0.00    +0.000 A 
ATOM     35  C   UNL     1     138.222 113.807 106.876  0.00  0.00    +0.000 A 
ATOM     36  C   UNL     1     137.553 114.086 104.573  0.00  0.00    +0.000 A 
ATOM     37  C   UNL     1     137.685 115.058 107.185  0.00  0.00    +0.000 A 
ATOM     38  C   UNL     1     137.018 115.337 104.883  0.00  0.00    +0.000 A 
ATOM     39  C   UNL     1     137.086 115.823 106.188  0.00  0.00    +0.000 A 
ENDBRANCH  33  34
BRANCH  33  41
ATOM     40  O   UNL     1     137.254 109.637 102.907  0.00  0.00    +0.000 OA
ATOM     41  N   UNL     1     137.796 111.107 104.517  0.00  0.00    +0.000 N 
ATOM     42  C   UNL     1     137.877 110.642 103.233  0.00  0.00    +0.000 C 
ATOM     43  H   UNL     1     137.138 110.594 105.096  0.00  0.00    +0.000 HD
BRANCH  42  44
ATOM     44  C   UNL     1     138.747 111.317 102.244  0.00  0.00    +0.000 A 
ATOM     45  C   UNL     1     140.134 111.137 102.250  0.00  0.00    +0.000 A 
ATOM     46  C   UNL     1     138.162 112.207 101.335  0.00  0.00    +0.000 A 
ATOM     47  C   UNL     1     140.925 111.798 101.308  0.00  0.00    +0.000 A 
ATOM     48  C   UNL     1     138.955 112.868 100.397  0.00  0.00    +0.000 A 
ATOM     49  C   UNL     1     140.334 112.655 100.379  0.00  0.00    +0.000 A 
ENDBRANCH  42  44
ENDBRANCH  33  41
ENDBRANCH  30  33
ENDBRANCH  29  30
ENDBRANCH  27  29
ENDBRANCH  18  27
BRANCH  17  50
ATOM     50  O   UNL     1     147.290 112.272 105.570  0.00  0.00    +0.000 OA
BRANCH  50  52
ATOM     51  O   UNL     1     149.260 111.575 104.768  0.00  0.00    +0.000 OA
ATOM     52  C   UNL     1     148.165 111.293 105.245  0.00  0.00    +0.000 C 
ATOM     53  C   UNL     1     147.717 109.871 105.403  0.00  0.00    +0.000 C 
ENDBRANCH  50  52
ENDBRANCH  17  50
BRANCH   7  54
ATOM     54  O   UNL     1     142.973 113.566 107.846  0.00  0.00    +0.000 OA
BRANCH  54  56
ATOM     55  O   UNL     1     141.470 114.882 108.057  0.00  0.00    +0.000 OA
ATOM     56  C   UNL     1     141.697 113.710 108.338  0.00  0.00    +0.000 C 
BRANCH  56  57
ATOM     57  C   UNL     1     140.818 112.416 109.441  0.00  0.00    +0.000 A 
ATOM     58  C   UNL     1     139.449 112.524 109.942  0.00  0.00    +0.000 A 
ATOM     59  C   UNL     1     141.300 111.127 109.820  0.00  0.00    +0.000 A 
ATOM     60  C   UNL     1     138.720 111.547 110.664  0.00  0.00    +0.000 A 
ATOM     61  C   UNL     1     140.584 110.133 110.546  0.00  0.00    +0.000 A 
ATOM     62  C   UNL     1     139.293 110.339 110.967  0.00  0.00    +0.000 A 
ENDBRANCH  56  57
ENDBRANCH  54  56
ENDBRANCH   7  54
BRANCH   4  63
ATOM     63  O   UNL     1     142.842 113.985 111.029  0.00  0.00    +0.000 OA
BRANCH  63  65
ATOM     64  O   UNL     1     140.995 114.613 112.123  0.00  0.00    +0.000 OA
ATOM     65  C   UNL     1     142.056 113.991 112.130  0.00  0.00    +0.000 C 
ATOM     66  C   UNL     1     142.543 113.337 113.384  0.00  0.00    +0.000 C 
ENDBRANCH  63  65
ENDBRANCH   4  63
TORSDOF 17
ENDMDL
MODEL 8
REMARK VINA RESULT:      -5.7      3.489      6.280
REMARK  Name = 
REMARK  23 active torsions:
REMARK  status: ('A' for Active; 'I' for Inactive)
REMARK    1  A    between atoms: O_2  and  C_17
REMARK    2  A    between atoms: O_2  and  C_36
REMARK    3  A    between atoms: O_3  and  C_20
REMARK    4  A    between atoms: O_3  and  C_37
REMARK    5  A    between atoms: O_4  and  C_21
REMARK    6  A    between atoms: O_5  and  C_22
REMARK    7  A    between atoms: O_6  and  C_30
REMARK    8  A    between atoms: O_6  and  C_39
REMARK    9  A    between atoms: O_8  and  C_31
REMARK   10  A    between atoms: O_8  and  C_40
REMARK   11  A    between atoms: O_13  and  C_42
REMARK   12  A    between atoms: N_15  and  C_46
REMARK   13  A    between atoms: C_18  and  C_29
REMARK   14  A    between atoms: C_24  and  C_33
REMARK   15  A    between atoms: C_24  and  C_34
REMARK   16  A    between atoms: C_32  and  C_35
REMARK   17  A    between atoms: C_36  and  C_38
REMARK   18  A    between atoms: C_37  and  C_41
REMARK   19  A    between atoms: C_39  and  C_43
REMARK   20  A    between atoms: C_40  and  C_42
REMARK   21  A    between atoms: C_42  and  C_46
REMARK   22  A    between atoms: C_46  and  C_50
REMARK   23  A    between atoms: C_53  and  C_56
REMARK                            x       y       z     vdW  Elec       q    Type
REMARK                         _______ _______ _______ _____ _____    ______ ____
ROOT
ATOM      1  O   UNL     1     139.164 112.180 108.273  0.00  0.00    +0.000 OA
ATOM      2  O   UNL     1     143.740 115.074 104.382  0.00  0.00    +0.000 OA
ATOM      3  C   UNL     1     142.521 112.323 107.532  0.00  0.00    +0.000 C 
ATOM      4  C   UNL     1     141.275 112.485 108.451  0.00  0.00    +0.000 C 
ATOM      5  C   UNL     1     142.722 113.950 106.578  0.00  0.00    +0.000 C 
ATOM      6  C   UNL     1     140.185 112.544 107.304  0.00  0.00    +0.000 C 
ATOM      7  C   UNL     1     143.947 111.519 108.426  0.00  0.00    +0.000 C 
ATOM      8  C   UNL     1     145.752 111.004 108.175  0.00  0.00    +0.000 C 
ATOM      9  C   UNL     1     141.369 114.090 105.761  0.00  0.00    +0.000 C 
ATOM     10  C   UNL     1     140.061 113.865 106.579  0.00  0.00    +0.000 C 
ATOM     11  C   UNL     1     146.849 111.425 106.845  0.00  0.00    +0.000 C 
ATOM     12  C   UNL     1     140.230 111.412 108.954  0.00  0.00    +0.000 C 
ATOM     13  C   UNL     1     144.097 114.410 105.379  0.00  0.00    +0.000 C 
ATOM     14  C   UNL     1     146.559 111.634 109.401  0.00  0.00    +0.000 C 
ATOM     15  C   UNL     1     146.939 113.013 106.627  0.00  0.00    +0.000 C 
ATOM     16  C   UNL     1     142.693 115.219 107.528  0.00  0.00    +0.000 C 
ATOM     17  C   UNL     1     145.967 113.979 105.463  0.00  0.00    +0.000 C 
ATOM     18  C   UNL     1     147.301 113.030 109.185  0.00  0.00    +0.000 C 
ATOM     19  C   UNL     1     147.422 113.651 107.746  0.00  0.00    +0.000 C 
ATOM     20  C   UNL     1     148.313 110.922 107.289  0.00  0.00    +0.000 C 
ATOM     21  C   UNL     1     146.810 110.584 105.529  0.00  0.00    +0.000 C 
ATOM     22  C   UNL     1     147.853 115.096 107.731  0.00  0.00    +0.000 C 
ENDROOT
BRANCH   9  23
ATOM     23  O   UNL     1     141.365 113.135 104.701  0.00  0.00    +0.000 OA
ATOM     24  H   UNL     1     142.042 113.432 104.060  0.00  0.00    +0.000 HD
ENDBRANCH   9  23
BRANCH   8  25
ATOM     25  O   UNL     1     145.776 109.575 108.357  0.00  0.00    +0.000 OA
ATOM     26  H   UNL     1     146.028 109.157 107.515  0.00  0.00    +0.000 HD
ENDBRANCH   8  25
BRANCH  18  27
ATOM     27  O   UNL     1     146.629 114.027 110.009  0.00  0.00    +0.000 OA
BRANCH  27  29
ATOM     28  O   UNL     1     148.325 115.245 110.882  0.00  0.00    +0.000 OA
ATOM     29  C   UNL     1     147.335 114.541 111.049  0.00  0.00    +0.000 C 
BRANCH  29  30
ATOM     30  C   UNL     1     146.891 114.039 112.427  0.00  0.00    +0.000 C 
BRANCH  30  31
ATOM     31  O   UNL     1     146.951 115.007 113.480  0.00  0.00    +0.000 OA
ATOM     32  H   UNL     1     146.714 114.532 114.298  0.00  0.00    +0.000 HD
ENDBRANCH  30  31
BRANCH  30  33
ATOM     33  C   UNL     1     147.745 112.791 112.784  0.00  0.00    +0.000 C 
BRANCH  33  34
ATOM     34  C   UNL     1     146.972 111.857 113.704  0.00  0.00    +0.000 A 
ATOM     35  C   UNL     1     145.630 111.556 113.414  0.00  0.00    +0.000 A 
ATOM     36  C   UNL     1     147.548 111.306 114.860  0.00  0.00    +0.000 A 
ATOM     37  C   UNL     1     144.892 110.713 114.246  0.00  0.00    +0.000 A 
ATOM     38  C   UNL     1     146.808 110.462 115.690  0.00  0.00    +0.000 A 
ATOM     39  C   UNL     1     145.482 110.164 115.382  0.00  0.00    +0.000 A 
ENDBRANCH  33  34
BRANCH  33  41
ATOM     40  O   UNL     1     151.131 113.955 113.297  0.00  0.00    +0.000 OA
ATOM     41  N   UNL     1     149.017 113.198 113.396  0.00  0.00    +0.000 N 
ATOM     42  C   UNL     1     150.273 113.198 112.853  0.00  0.00    +0.000 C 
ATOM     43  H   UNL     1     148.924 113.802 114.207  0.00  0.00    +0.000 HD
BRANCH  42  44
ATOM     44  C   UNL     1     150.592 112.326 111.700  0.00  0.00    +0.000 A 
ATOM     45  C   UNL     1     150.759 110.946 111.854  0.00  0.00    +0.000 A 
ATOM     46  C   UNL     1     150.799 112.919 110.449  0.00  0.00    +0.000 A 
ATOM     47  C   UNL     1     151.070 110.155 110.747  0.00  0.00    +0.000 A 
ATOM     48  C   UNL     1     151.112 112.127 109.345  0.00  0.00    +0.000 A 
ATOM     49  C   UNL     1     151.238 110.745 109.493  0.00  0.00    +0.000 A 
ENDBRANCH  42  44
ENDBRANCH  33  41
ENDBRANCH  30  33
ENDBRANCH  29  30
ENDBRANCH  27  29
ENDBRANCH  18  27
BRANCH  17  50
ATOM     50  O   UNL     1     146.506 113.602 104.178  0.00  0.00    +0.000 OA
BRANCH  50  52
ATOM     51  O   UNL     1     147.037 114.491 102.194  0.00  0.00    +0.000 OA
ATOM     52  C   UNL     1     147.229 114.445 103.405  0.00  0.00    +0.000 C 
ATOM     53  C   UNL     1     148.316 115.241 104.062  0.00  0.00    +0.000 C 
ENDBRANCH  50  52
ENDBRANCH  17  50
BRANCH   7  54
ATOM     54  O   UNL     1     144.364 112.743 108.669  0.00  0.00    +0.000 OA
BRANCH  54  56
ATOM     55  O   UNL     1     143.750 111.428 110.058  0.00  0.00    +0.000 OA
ATOM     56  C   UNL     1     144.001 112.626 109.990  0.00  0.00    +0.000 C 
BRANCH  56  57
ATOM     57  C   UNL     1     143.696 114.112 111.157  0.00  0.00    +0.000 A 
ATOM     58  C   UNL     1     143.453 114.020 112.595  0.00  0.00    +0.000 A 
ATOM     59  C   UNL     1     143.788 115.501 110.838  0.00  0.00    +0.000 A 
ATOM     60  C   UNL     1     143.334 115.092 113.515  0.00  0.00    +0.000 A 
ATOM     61  C   UNL     1     143.670 116.591 111.746  0.00  0.00    +0.000 A 
ATOM     62  C   UNL     1     143.446 116.389 113.087  0.00  0.00    +0.000 A 
ENDBRANCH  56  57
ENDBRANCH  54  56
ENDBRANCH   7  54
BRANCH   4  63
ATOM     63  O   UNL     1     141.347 113.676 109.268  0.00  0.00    +0.000 OA
BRANCH  63  65
ATOM     64  O   UNL     1     139.696 115.020 109.950  0.00  0.00    +0.000 OA
ATOM     65  C   UNL     1     140.410 114.044 110.172  0.00  0.00    +0.000 C 
ATOM     66  C   UNL     1     140.334 113.330 111.483  0.00  0.00    +0.000 C 
ENDBRANCH  63  65
ENDBRANCH   4  63
TORSDOF 17
ENDMDL
MODEL 9
REMARK VINA RESULT:      -5.7      3.150      6.814
REMARK  Name = 
REMARK  23 active torsions:
REMARK  status: ('A' for Active; 'I' for Inactive)
REMARK    1  A    between atoms: O_2  and  C_17
REMARK    2  A    between atoms: O_2  and  C_36
REMARK    3  A    between atoms: O_3  and  C_20
REMARK    4  A    between atoms: O_3  and  C_37
REMARK    5  A    between atoms: O_4  and  C_21
REMARK    6  A    between atoms: O_5  and  C_22
REMARK    7  A    between atoms: O_6  and  C_30
REMARK    8  A    between atoms: O_6  and  C_39
REMARK    9  A    between atoms: O_8  and  C_31
REMARK   10  A    between atoms: O_8  and  C_40
REMARK   11  A    between atoms: O_13  and  C_42
REMARK   12  A    between atoms: N_15  and  C_46
REMARK   13  A    between atoms: C_18  and  C_29
REMARK   14  A    between atoms: C_24  and  C_33
REMARK   15  A    between atoms: C_24  and  C_34
REMARK   16  A    between atoms: C_32  and  C_35
REMARK   17  A    between atoms: C_36  and  C_38
REMARK   18  A    between atoms: C_37  and  C_41
REMARK   19  A    between atoms: C_39  and  C_43
REMARK   20  A    between atoms: C_40  and  C_42
REMARK   21  A    between atoms: C_42  and  C_46
REMARK   22  A    between atoms: C_46  and  C_50
REMARK   23  A    between atoms: C_53  and  C_56
REMARK                            x       y       z     vdW  Elec       q    Type
REMARK                         _______ _______ _______ _____ _____    ______ ____
ROOT
ATOM      1  O   UNL     1     139.907 112.539 105.246  0.00  0.00    +0.000 OA
ATOM      2  O   UNL     1     137.570 113.742 111.374  0.00  0.00    +0.000 OA
ATOM      3  C   UNL     1     140.599 114.053 108.258  0.00  0.00    +0.000 C 
ATOM      4  C   UNL     1     140.836 113.026 107.113  0.00  0.00    +0.000 C 
ATOM      5  C   UNL     1     139.380 113.256 109.474  0.00  0.00    +0.000 C 
ATOM      6  C   UNL     1     139.381 113.079 106.490  0.00  0.00    +0.000 C 
ATOM      7  C   UNL     1     142.190 114.841 108.828  0.00  0.00    +0.000 C 
ATOM      8  C   UNL     1     142.863 116.063 110.109  0.00  0.00    +0.000 C 
ATOM      9  C   UNL     1     138.080 112.994 108.604  0.00  0.00    +0.000 C 
ATOM     10  C   UNL     1     138.317 112.300 107.229  0.00  0.00    +0.000 C 
ATOM     11  C   UNL     1     142.039 116.751 111.522  0.00  0.00    +0.000 C 
ATOM     12  C   UNL     1     141.157 113.256 105.583  0.00  0.00    +0.000 C 
ATOM     13  C   UNL     1     138.772 113.960 111.109  0.00  0.00    +0.000 C 
ATOM     14  C   UNL     1     144.069 115.310 110.838  0.00  0.00    +0.000 C 
ATOM     15  C   UNL     1     141.422 115.609 112.467  0.00  0.00    +0.000 C 
ATOM     16  C   UNL     1     139.817 111.793 109.903  0.00  0.00    +0.000 C 
ATOM     17  C   UNL     1     139.736 114.988 112.415  0.00  0.00    +0.000 C 
ATOM     18  C   UNL     1     143.776 114.572 112.222  0.00  0.00    +0.000 C 
ATOM     19  C   UNL     1     142.400 114.774 112.956  0.00  0.00    +0.000 C 
ATOM     20  C   UNL     1     143.170 117.516 112.377  0.00  0.00    +0.000 C 
ATOM     21  C   UNL     1     141.132 118.010 111.338  0.00  0.00    +0.000 C 
ATOM     22  C   UNL     1     142.140 113.785 114.065  0.00  0.00    +0.000 C 
ENDROOT
BRANCH   9  23
ATOM     23  O   UNL     1     137.442 114.242 108.334  0.00  0.00    +0.000 OA
ATOM     24  H   UNL     1     138.156 114.878 108.130  0.00  0.00    +0.000 HD
ENDBRANCH   9  23
BRANCH   8  25
ATOM     25  O   UNL     1     143.449 117.137 109.349  0.00  0.00    +0.000 OA
ATOM     26  H   UNL     1     142.867 117.916 109.408  0.00  0.00    +0.000 HD
ENDBRANCH   8  25
BRANCH  18  27
ATOM     27  O   UNL     1     143.921 113.138 112.006  0.00  0.00    +0.000 OA
BRANCH  27  29
ATOM     28  O   UNL     1     145.412 112.371 113.526  0.00  0.00    +0.000 OA
ATOM     29  C   UNL     1     145.109 112.581 112.356  0.00  0.00    +0.000 C 
BRANCH  29  30
ATOM     30  C   UNL     1     146.089 112.391 111.194  0.00  0.00    +0.000 C 
BRANCH  30  31
ATOM     31  O   UNL     1     146.028 111.117 110.543  0.00  0.00    +0.000 OA
ATOM     32  H   UNL     1     146.581 110.515 111.075  0.00  0.00    +0.000 HD
ENDBRANCH  30  31
BRANCH  30  33
ATOM     33  C   UNL     1     147.524 112.665 111.722  0.00  0.00    +0.000 C 
BRANCH  33  34
ATOM     34  C   UNL     1     148.379 113.312 110.642  0.00  0.00    +0.000 A 
ATOM     35  C   UNL     1     148.847 112.530 109.571  0.00  0.00    +0.000 A 
ATOM     36  C   UNL     1     148.748 114.665 110.695  0.00  0.00    +0.000 A 
ATOM     37  C   UNL     1     149.644 113.092 108.573  0.00  0.00    +0.000 A 
ATOM     38  C   UNL     1     149.544 115.225 109.695  0.00  0.00    +0.000 A 
ATOM     39  C   UNL     1     149.990 114.440 108.633  0.00  0.00    +0.000 A 
ENDBRANCH  33  34
BRANCH  33  41
ATOM     40  O   UNL     1     148.986 110.107 113.819  0.00  0.00    +0.000 OA
ATOM     41  N   UNL     1     148.138 111.422 112.206  0.00  0.00    +0.000 N 
ATOM     42  C   UNL     1     148.923 111.221 113.308  0.00  0.00    +0.000 C 
ATOM     43  H   UNL     1     147.714 110.572 111.848  0.00  0.00    +0.000 HD
BRANCH  42  44
ATOM     44  C   UNL     1     149.662 112.349 113.919  0.00  0.00    +0.000 A 
ATOM     45  C   UNL     1     149.096 113.126 114.935  0.00  0.00    +0.000 A 
ATOM     46  C   UNL     1     150.924 112.677 113.409  0.00  0.00    +0.000 A 
ATOM     47  C   UNL     1     149.819 114.189 115.481  0.00  0.00    +0.000 A 
ATOM     48  C   UNL     1     151.642 113.741 113.954  0.00  0.00    +0.000 A 
ATOM     49  C   UNL     1     151.092 114.490 114.996  0.00  0.00    +0.000 A 
ENDBRANCH  42  44
ENDBRANCH  33  41
ENDBRANCH  30  33
ENDBRANCH  29  30
ENDBRANCH  27  29
ENDBRANCH  18  27
BRANCH  17  50
ATOM     50  O   UNL     1     138.957 116.082 112.943  0.00  0.00    +0.000 OA
BRANCH  50  52
ATOM     51  O   UNL     1     138.209 114.941 114.718  0.00  0.00    +0.000 OA
ATOM     52  C   UNL     1     138.245 115.995 114.090  0.00  0.00    +0.000 C 
ATOM     53  C   UNL     1     137.442 117.190 114.509  0.00  0.00    +0.000 C 
ENDBRANCH  50  52
ENDBRANCH  17  50
BRANCH   7  54
ATOM     54  O   UNL     1     142.212 113.907 109.755  0.00  0.00    +0.000 OA
BRANCH  54  56
ATOM     55  O   UNL     1     143.100 112.111 109.601  0.00  0.00    +0.000 OA
ATOM     56  C   UNL     1     143.169 113.208 109.058  0.00  0.00    +0.000 C 
BRANCH  56  57
ATOM     57  C   UNL     1     144.411 114.008 107.840  0.00  0.00    +0.000 A 
ATOM     58  C   UNL     1     145.699 114.590 108.210  0.00  0.00    +0.000 A 
ATOM     59  C   UNL     1     144.334 114.037 106.415  0.00  0.00    +0.000 A 
ATOM     60  C   UNL     1     146.697 115.090 107.336  0.00  0.00    +0.000 A 
ATOM     61  C   UNL     1     145.323 114.536 105.521  0.00  0.00    +0.000 A 
ATOM     62  C   UNL     1     146.508 115.060 105.979  0.00  0.00    +0.000 A 
ENDBRANCH  56  57
ENDBRANCH  54  56
ENDBRANCH   7  54
BRANCH   4  63
ATOM     63  O   UNL     1     141.223 111.724 107.613  0.00  0.00    +0.000 OA
BRANCH  63  65
ATOM     64  O   UNL     1     140.845 109.807 106.528  0.00  0.00    +0.000 OA
ATOM     65  C   UNL     1     141.635 110.696 106.838  0.00  0.00    +0.000 C 
ATOM     66  C   UNL     1     143.080 110.591 106.465  0.00  0.00    +0.000 C 
ENDBRANCH  63  65
ENDBRANCH   4  63
TORSDOF 17
ENDMDL
