MODEL 1
REMARK VINA RESULT:      -7.2      0.000      0.000
REMARK  Name = 
REMARK  5 active torsions:
REMARK  status: ('A' for Active; 'I' for Inactive)
REMARK    1  A    between atoms: O_1  and  C_16
REMARK    2  A    between atoms: O_3  and  C_25
REMARK    3  A    between atoms: C_11  and  C_22
REMARK    4  A    between atoms: C_16  and  C_28
REMARK    5  A    between atoms: C_29  and  C_31
REMARK                            x       y       z     vdW  Elec       q    Type
REMARK                         _______ _______ _______ _____ _____    ______ ____
ROOT
ATOM      1  O   UNL     1     144.059 125.031  91.916  0.00  0.00    +0.000 OA
ATOM      2  N   UNL     1     145.379 126.053 101.263  0.00  0.00    +0.000 NA
ATOM      3  C   UNL     1     144.558 124.538  97.819  0.00  0.00    +0.000 C 
ATOM      4  C   UNL     1     143.434 124.728  96.766  0.00  0.00    +0.000 C 
ATOM      5  C   UNL     1     145.486 124.174  95.641  0.00  0.00    +0.000 C 
ATOM      6  C   UNL     1     144.177 124.948  95.438  0.00  0.00    +0.000 C 
ATOM      7  C   UNL     1     144.451 125.505  99.015  0.00  0.00    +0.000 C 
ATOM      8  C   UNL     1     145.887 124.630  97.040  0.00  0.00    +0.000 C 
ATOM      9  C   UNL     1     146.477 124.364  94.461  0.00  0.00    +0.000 C 
ATOM     10  C   UNL     1     143.023 125.436  99.599  0.00  0.00    +0.000 C 
ATOM     11  C   UNL     1     142.486 125.875  97.099  0.00  0.00    +0.000 C 
ATOM     12  C   UNL     1     145.742 123.840  93.190  0.00  0.00    +0.000 C 
ATOM     13  C   UNL     1     141.961 125.806  98.532  0.00  0.00    +0.000 C 
ATOM     14  C   UNL     1     142.909 126.279 100.903  0.00  0.00    +0.000 C 
ATOM     15  C   UNL     1     143.445 124.506  94.179  0.00  0.00    +0.000 C 
ATOM     16  C   UNL     1     145.497 125.174 100.087  0.00  0.00    +0.000 C 
ATOM     17  C   UNL     1     144.049 125.890 101.916  0.00  0.00    +0.000 C 
ATOM     18  C   UNL     1     147.739 123.493  94.679  0.00  0.00    +0.000 C 
ATOM     19  C   UNL     1     144.400 124.550  92.994  0.00  0.00    +0.000 C 
ATOM     20  C   UNL     1     146.910 125.843  94.304  0.00  0.00    +0.000 C 
ATOM     21  C   UNL     1     146.633 123.860  91.948  0.00  0.00    +0.000 C 
ATOM     22  C   UNL     1     148.646 123.428  93.447  0.00  0.00    +0.000 C 
ATOM     23  C   UNL     1     147.893 123.024  92.178  0.00  0.00    +0.000 C 
ATOM     24  C   UNL     1     143.973 126.750 103.203  0.00  0.00    +0.000 C 
ATOM     25  C   UNL     1     146.484 125.741 102.192  0.00  0.00    +0.000 C 
ATOM     26  C   UNL     1     141.519 126.116 101.536  0.00  0.00    +0.000 C 
ATOM     27  C   UNL     1     146.486 126.634 103.437  0.00  0.00    +0.000 C 
ATOM     28  C   UNL     1     145.142 126.507 104.151  0.00  0.00    +0.000 C 
ATOM     29  C   UNL     1     146.820 128.088 103.094  0.00  0.00    +0.000 C 
ENDROOT
BRANCH  14  30
ATOM     30  O   UNL     1     143.064 127.665 100.553  0.00  0.00    +0.000 OA
ATOM     31  H   UNL     1     143.362 127.660  99.621  0.00  0.00    +0.000 HD
ENDBRANCH  14  30
BRANCH  23  32
ATOM     32  O   UNL     1     148.775 123.165  91.070  0.00  0.00    +0.000 OA
ATOM     33  H   UNL     1     149.505 122.533  91.189  0.00  0.00    +0.000 HD
ENDBRANCH  23  32
TORSDOF 2
ENDMDL
MODEL 2
REMARK VINA RESULT:      -7.1     14.592     16.756
REMARK  Name = 
REMARK  5 active torsions:
REMARK  status: ('A' for Active; 'I' for Inactive)
REMARK    1  A    between atoms: O_1  and  C_16
REMARK    2  A    between atoms: O_3  and  C_25
REMARK    3  A    between atoms: C_11  and  C_22
REMARK    4  A    between atoms: C_16  and  C_28
REMARK    5  A    between atoms: C_29  and  C_31
REMARK                            x       y       z     vdW  Elec       q    Type
REMARK                         _______ _______ _______ _____ _____    ______ ____
ROOT
ATOM      1  O   UNL     1     148.776 113.231 102.738  0.00  0.00    +0.000 OA
ATOM      2  N   UNL     1     148.491 113.375 112.228  0.00  0.00    +0.000 NA
ATOM      3  C   UNL     1     148.798 114.477 108.551  0.00  0.00    +0.000 C 
ATOM      4  C   UNL     1     149.829 114.257 107.412  0.00  0.00    +0.000 C 
ATOM      5  C   UNL     1     147.629 114.446 106.460  0.00  0.00    +0.000 C 
ATOM      6  C   UNL     1     148.991 113.785 106.213  0.00  0.00    +0.000 C 
ATOM      7  C   UNL     1     149.129 113.699 109.840  0.00  0.00    +0.000 C 
ATOM      8  C   UNL     1     147.419 114.149 107.942  0.00  0.00    +0.000 C 
ATOM      9  C   UNL     1     146.557 113.998 105.431  0.00  0.00    +0.000 C 
ATOM     10  C   UNL     1     150.590 113.988 110.249  0.00  0.00    +0.000 C 
ATOM     11  C   UNL     1     150.929 113.266 107.780  0.00  0.00    +0.000 C 
ATOM     12  C   UNL     1     147.101 114.413 104.031  0.00  0.00    +0.000 C 
ATOM     13  C   UNL     1     151.578 113.583 109.126  0.00  0.00    +0.000 C 
ATOM     14  C   UNL     1     150.924 113.348 111.627  0.00  0.00    +0.000 C 
ATOM     15  C   UNL     1     149.543 114.120 104.835  0.00  0.00    +0.000 C 
ATOM     16  C   UNL     1     148.161 114.068 110.971  0.00  0.00    +0.000 C 
ATOM     17  C   UNL     1     149.850 113.757 112.703  0.00  0.00    +0.000 C 
ATOM     18  C   UNL     1     145.231 114.762 105.677  0.00  0.00    +0.000 C 
ATOM     19  C   UNL     1     148.489 113.820 103.779  0.00  0.00    +0.000 C 
ATOM     20  C   UNL     1     146.280 112.476 105.511  0.00  0.00    +0.000 C 
ATOM     21  C   UNL     1     146.102 114.136 102.908  0.00  0.00    +0.000 C 
ATOM     22  C   UNL     1     144.208 114.567 104.554  0.00  0.00    +0.000 C 
ATOM     23  C   UNL     1     144.783 114.866 103.169  0.00  0.00    +0.000 C 
ATOM     24  C   UNL     1     150.147 113.094 114.072  0.00  0.00    +0.000 C 
ATOM     25  C   UNL     1     147.453 113.701 113.227  0.00  0.00    +0.000 C 
ATOM     26  C   UNL     1     152.341 113.732 112.077  0.00  0.00    +0.000 C 
ATOM     27  C   UNL     1     147.672 112.991 114.567  0.00  0.00    +0.000 C 
ATOM     28  C   UNL     1     149.056 113.347 115.106  0.00  0.00    +0.000 C 
ATOM     29  C   UNL     1     147.473 111.477 114.450  0.00  0.00    +0.000 C 
ENDROOT
BRANCH  14  30
ATOM     30  O   UNL     1     150.893 111.918 111.474  0.00  0.00    +0.000 OA
ATOM     31  H   UNL     1     149.944 111.684 111.471  0.00  0.00    +0.000 HD
ENDBRANCH  14  30
BRANCH  23  32
ATOM     32  O   UNL     1     143.820 114.488 102.192  0.00  0.00    +0.000 OA
ATOM     33  H   UNL     1     143.357 113.698 102.520  0.00  0.00    +0.000 HD
ENDBRANCH  23  32
TORSDOF 2
ENDMDL
MODEL 3
REMARK VINA RESULT:      -6.9     36.245     42.626
REMARK  Name = 
REMARK  5 active torsions:
REMARK  status: ('A' for Active; 'I' for Inactive)
REMARK    1  A    between atoms: O_1  and  C_16
REMARK    2  A    between atoms: O_3  and  C_25
REMARK    3  A    between atoms: C_11  and  C_22
REMARK    4  A    between atoms: C_16  and  C_28
REMARK    5  A    between atoms: C_29  and  C_31
REMARK                            x       y       z     vdW  Elec       q    Type
REMARK                         _______ _______ _______ _____ _____    ______ ____
ROOT
ATOM      1  O   UNL     1     133.048 120.190 142.757  0.00  0.00    +0.000 OA
ATOM      2  N   UNL     1     137.436 123.065 134.843  0.00  0.00    +0.000 NA
ATOM      3  C   UNL     1     134.864 122.705 137.686  0.00  0.00    +0.000 C 
ATOM      4  C   UNL     1     133.861 121.610 138.140  0.00  0.00    +0.000 C 
ATOM      5  C   UNL     1     134.648 122.809 140.070  0.00  0.00    +0.000 C 
ATOM      6  C   UNL     1     134.134 121.429 139.642  0.00  0.00    +0.000 C 
ATOM      7  C   UNL     1     135.753 122.273 136.503  0.00  0.00    +0.000 C 
ATOM      8  C   UNL     1     135.642 123.116 138.954  0.00  0.00    +0.000 C 
ATOM      9  C   UNL     1     135.126 122.832 141.546  0.00  0.00    +0.000 C 
ATOM     10  C   UNL     1     134.860 121.729 135.367  0.00  0.00    +0.000 C 
ATOM     11  C   UNL     1     134.001 120.307 137.360  0.00  0.00    +0.000 C 
ATOM     12  C   UNL     1     133.889 122.436 142.408  0.00  0.00    +0.000 C 
ATOM     13  C   UNL     1     134.010 120.525 135.848  0.00  0.00    +0.000 C 
ATOM     14  C   UNL     1     135.697 121.424 134.091  0.00  0.00    +0.000 C 
ATOM     15  C   UNL     1     132.954 120.974 140.488  0.00  0.00    +0.000 C 
ATOM     16  C   UNL     1     136.617 123.440 136.008  0.00  0.00    +0.000 C 
ATOM     17  C   UNL     1     136.575 122.669 133.694  0.00  0.00    +0.000 C 
ATOM     18  C   UNL     1     135.550 124.268 141.947  0.00  0.00    +0.000 C 
ATOM     19  C   UNL     1     133.313 121.089 141.963  0.00  0.00    +0.000 C 
ATOM     20  C   UNL     1     136.320 121.873 141.783  0.00  0.00    +0.000 C 
ATOM     21  C   UNL     1     134.168 122.517 143.908  0.00  0.00    +0.000 C 
ATOM     22  C   UNL     1     135.791 124.426 143.451  0.00  0.00    +0.000 C 
ATOM     23  C   UNL     1     134.617 123.927 144.295  0.00  0.00    +0.000 C 
ATOM     24  C   UNL     1     137.446 122.366 132.448  0.00  0.00    +0.000 C 
ATOM     25  C   UNL     1     138.311 124.204 134.502  0.00  0.00    +0.000 C 
ATOM     26  C   UNL     1     134.787 120.989 132.933  0.00  0.00    +0.000 C 
ATOM     27  C   UNL     1     139.247 123.905 133.326  0.00  0.00    +0.000 C 
ATOM     28  C   UNL     1     138.416 123.493 132.112  0.00  0.00    +0.000 C 
ATOM     29  C   UNL     1     140.299 122.853 133.687  0.00  0.00    +0.000 C 
ENDROOT
BRANCH  14  30
ATOM     30  O   UNL     1     136.575 120.324 134.387  0.00  0.00    +0.000 OA
ATOM     31  H   UNL     1     136.121 119.534 134.031  0.00  0.00    +0.000 HD
ENDBRANCH  14  30
BRANCH  23  32
ATOM     32  O   UNL     1     135.006 123.952 145.664  0.00  0.00    +0.000 OA
ATOM     33  H   UNL     1     134.345 123.448 146.170  0.00  0.00    +0.000 HD
ENDBRANCH  23  32
TORSDOF 2
ENDMDL
MODEL 4
REMARK VINA RESULT:      -6.8      4.216      5.461
REMARK  Name = 
REMARK  5 active torsions:
REMARK  status: ('A' for Active; 'I' for Inactive)
REMARK    1  A    between atoms: O_1  and  C_16
REMARK    2  A    between atoms: O_3  and  C_25
REMARK    3  A    between atoms: C_11  and  C_22
REMARK    4  A    between atoms: C_16  and  C_28
REMARK    5  A    between atoms: C_29  and  C_31
REMARK                            x       y       z     vdW  Elec       q    Type
REMARK                         _______ _______ _______ _____ _____    ______ ____
ROOT
ATOM      1  O   UNL     1     139.277 129.859  91.168  0.00  0.00    +0.000 OA
ATOM      2  N   UNL     1     145.963 127.719  97.561  0.00  0.00    +0.000 NA
ATOM      3  C   UNL     1     142.945 127.459  95.184  0.00  0.00    +0.000 C 
ATOM      4  C   UNL     1     141.516 128.064  95.139  0.00  0.00    +0.000 C 
ATOM      5  C   UNL     1     142.309 127.742  92.892  0.00  0.00    +0.000 C 
ATOM      6  C   UNL     1     141.381 128.640  93.720  0.00  0.00    +0.000 C 
ATOM      7  C   UNL     1     143.804 127.996  96.345  0.00  0.00    +0.000 C 
ATOM      8  C   UNL     1     143.546 127.692  93.783  0.00  0.00    +0.000 C 
ATOM      9  C   UNL     1     142.444 128.224  91.422  0.00  0.00    +0.000 C 
ATOM     10  C   UNL     1     143.019 127.855  97.668  0.00  0.00    +0.000 C 
ATOM     11  C   UNL     1     141.274 129.113  96.219  0.00  0.00    +0.000 C 
ATOM     12  C   UNL     1     141.005 128.194  90.824  0.00  0.00    +0.000 C 
ATOM     13  C   UNL     1     141.678 128.629  97.610  0.00  0.00    +0.000 C 
ATOM     14  C   UNL     1     143.903 128.240  98.890  0.00  0.00    +0.000 C 
ATOM     15  C   UNL     1     139.972 128.684  93.145  0.00  0.00    +0.000 C 
ATOM     16  C   UNL     1     145.147 127.258  96.425  0.00  0.00    +0.000 C 
ATOM     17  C   UNL     1     145.269 127.459  98.853  0.00  0.00    +0.000 C 
ATOM     18  C   UNL     1     143.320 127.233  90.615  0.00  0.00    +0.000 C 
ATOM     19  C   UNL     1     140.038 129.032  91.665  0.00  0.00    +0.000 C 
ATOM     20  C   UNL     1     143.073 129.636  91.333  0.00  0.00    +0.000 C 
ATOM     21  C   UNL     1     140.982 128.542  89.336  0.00  0.00    +0.000 C 
ATOM     22  C   UNL     1     143.292 127.497  89.107  0.00  0.00    +0.000 C 
ATOM     23  C   UNL     1     141.872 127.582  88.546  0.00  0.00    +0.000 C 
ATOM     24  C   UNL     1     146.178 127.863 100.042  0.00  0.00    +0.000 C 
ATOM     25  C   UNL     1     147.273 127.040  97.500  0.00  0.00    +0.000 C 
ATOM     26  C   UNL     1     143.151 127.991 100.206  0.00  0.00    +0.000 C 
ATOM     27  C   UNL     1     148.226 127.483  98.614  0.00  0.00    +0.000 C 
ATOM     28  C   UNL     1     147.567 127.238  99.970  0.00  0.00    +0.000 C 
ATOM     29  C   UNL     1     148.666 128.939  98.443  0.00  0.00    +0.000 C 
ENDROOT
BRANCH  14  30
ATOM     30  O   UNL     1     144.182 129.648  98.812  0.00  0.00    +0.000 OA
ATOM     31  H   UNL     1     143.890 130.013  99.672  0.00  0.00    +0.000 HD
ENDBRANCH  14  30
BRANCH  23  32
ATOM     32  O   UNL     1     141.950 128.001  87.188  0.00  0.00    +0.000 OA
ATOM     33  H   UNL     1     141.580 128.899  87.132  0.00  0.00    +0.000 HD
ENDBRANCH  23  32
TORSDOF 2
ENDMDL
MODEL 5
REMARK VINA RESULT:      -6.7     14.793     19.026
REMARK  Name = 
REMARK  5 active torsions:
REMARK  status: ('A' for Active; 'I' for Inactive)
REMARK    1  A    between atoms: O_1  and  C_16
REMARK    2  A    between atoms: O_3  and  C_25
REMARK    3  A    between atoms: C_11  and  C_22
REMARK    4  A    between atoms: C_16  and  C_28
REMARK    5  A    between atoms: C_29  and  C_31
REMARK                            x       y       z     vdW  Elec       q    Type
REMARK                         _______ _______ _______ _____ _____    ______ ____
ROOT
ATOM      1  O   UNL     1     139.944 115.270 115.542  0.00  0.00    +0.000 OA
ATOM      2  N   UNL     1     146.348 114.818 108.546  0.00  0.00    +0.000 NA
ATOM      3  C   UNL     1     143.685 113.838 111.149  0.00  0.00    +0.000 C 
ATOM      4  C   UNL     1     143.631 113.747 112.697  0.00  0.00    +0.000 C 
ATOM      5  C   UNL     1     141.457 114.353 111.866  0.00  0.00    +0.000 C 
ATOM      6  C   UNL     1     142.365 114.525 113.090  0.00  0.00    +0.000 C 
ATOM      7  C   UNL     1     145.014 114.402 110.611  0.00  0.00    +0.000 C 
ATOM      8  C   UNL     1     142.434 114.639 110.729  0.00  0.00    +0.000 C 
ATOM      9  C   UNL     1     140.149 115.181 111.976  0.00  0.00    +0.000 C 
ATOM     10  C   UNL     1     146.190 113.620 111.236  0.00  0.00    +0.000 C 
ATOM     11  C   UNL     1     144.884 114.291 113.375  0.00  0.00    +0.000 C 
ATOM     12  C   UNL     1     139.419 114.667 113.254  0.00  0.00    +0.000 C 
ATOM     13  C   UNL     1     146.169 113.716 112.783  0.00  0.00    +0.000 C 
ATOM     14  C   UNL     1     147.547 114.049 110.608  0.00  0.00    +0.000 C 
ATOM     15  C   UNL     1     141.677 114.084 114.374  0.00  0.00    +0.000 C 
ATOM     16  C   UNL     1     145.064 114.333 109.079  0.00  0.00    +0.000 C 
ATOM     17  C   UNL     1     147.477 113.979 109.037  0.00  0.00    +0.000 C 
ATOM     18  C   UNL     1     139.236 114.899 110.756  0.00  0.00    +0.000 C 
ATOM     19  C   UNL     1     140.322 114.768 114.485  0.00  0.00    +0.000 C 
ATOM     20  C   UNL     1     140.432 116.702 112.049  0.00  0.00    +0.000 C 
ATOM     21  C   UNL     1     138.047 115.315 113.445  0.00  0.00    +0.000 C 
ATOM     22  C   UNL     1     137.826 115.477 110.913  0.00  0.00    +0.000 C 
ATOM     23  C   UNL     1     137.159 115.062 112.225  0.00  0.00    +0.000 C 
ATOM     24  C   UNL     1     148.810 114.443 108.396  0.00  0.00    +0.000 C 
ATOM     25  C   UNL     1     146.271 114.819 107.072  0.00  0.00    +0.000 C 
ATOM     26  C   UNL     1     148.697 113.189 111.155  0.00  0.00    +0.000 C 
ATOM     27  C   UNL     1     147.544 115.354 106.409  0.00  0.00    +0.000 C 
ATOM     28  C   UNL     1     148.741 114.528 106.875  0.00  0.00    +0.000 C 
ATOM     29  C   UNL     1     147.739 116.850 106.672  0.00  0.00    +0.000 C 
ENDROOT
BRANCH  14  30
ATOM     30  O   UNL     1     147.806 115.410 110.993  0.00  0.00    +0.000 OA
ATOM     31  H   UNL     1     147.289 115.954 110.366  0.00  0.00    +0.000 HD
ENDBRANCH  14  30
BRANCH  23  32
ATOM     32  O   UNL     1     135.940 115.784 112.357  0.00  0.00    +0.000 OA
ATOM     33  H   UNL     1     135.889 116.117 113.270  0.00  0.00    +0.000 HD
ENDBRANCH  23  32
TORSDOF 2
ENDMDL
MODEL 6
REMARK VINA RESULT:      -6.6     13.412     16.858
REMARK  Name = 
REMARK  5 active torsions:
REMARK  status: ('A' for Active; 'I' for Inactive)
REMARK    1  A    between atoms: O_1  and  C_16
REMARK    2  A    between atoms: O_3  and  C_25
REMARK    3  A    between atoms: C_11  and  C_22
REMARK    4  A    between atoms: C_16  and  C_28
REMARK    5  A    between atoms: C_29  and  C_31
REMARK                            x       y       z     vdW  Elec       q    Type
REMARK                         _______ _______ _______ _____ _____    ______ ____
ROOT
ATOM      1  O   UNL     1     140.997 114.428 109.249  0.00  0.00    +0.000 OA
ATOM      2  N   UNL     1     149.767 113.624 105.700  0.00  0.00    +0.000 NA
ATOM      3  C   UNL     1     146.449 115.103 106.976  0.00  0.00    +0.000 C 
ATOM      4  C   UNL     1     144.979 115.116 106.478  0.00  0.00    +0.000 C 
ATOM      5  C   UNL     1     144.998 115.136 108.883  0.00  0.00    +0.000 C 
ATOM      6  C   UNL     1     144.151 114.666 107.693  0.00  0.00    +0.000 C 
ATOM      7  C   UNL     1     147.387 114.249 106.102  0.00  0.00    +0.000 C 
ATOM      8  C   UNL     1     146.389 114.674 108.457  0.00  0.00    +0.000 C 
ATOM      9  C   UNL     1     144.420 114.666 110.244  0.00  0.00    +0.000 C 
ATOM     10  C   UNL     1     147.228 114.667 104.624  0.00  0.00    +0.000 C 
ATOM     11  C   UNL     1     144.750 114.231 105.257  0.00  0.00    +0.000 C 
ATOM     12  C   UNL     1     142.989 115.275 110.340  0.00  0.00    +0.000 C 
ATOM     13  C   UNL     1     145.764 114.491 104.145  0.00  0.00    +0.000 C 
ATOM     14  C   UNL     1     148.265 113.941 103.719  0.00  0.00    +0.000 C 
ATOM     15  C   UNL     1     142.726 115.195 107.767  0.00  0.00    +0.000 C 
ATOM     16  C   UNL     1     148.846 114.391 106.556  0.00  0.00    +0.000 C 
ATOM     17  C   UNL     1     149.720 114.116 104.295  0.00  0.00    +0.000 C 
ATOM     18  C   UNL     1     145.266 115.241 111.409  0.00  0.00    +0.000 C 
ATOM     19  C   UNL     1     142.136 114.876 109.134  0.00  0.00    +0.000 C 
ATOM     20  C   UNL     1     144.395 113.121 110.359  0.00  0.00    +0.000 C 
ATOM     21  C   UNL     1     142.319 114.991 111.684  0.00  0.00    +0.000 C 
ATOM     22  C   UNL     1     144.617 115.036 112.781  0.00  0.00    +0.000 C 
ATOM     23  C   UNL     1     143.172 115.532 112.834  0.00  0.00    +0.000 C 
ATOM     24  C   UNL     1     150.760 113.363 103.426  0.00  0.00    +0.000 C 
ATOM     25  C   UNL     1     151.126 113.727 106.268  0.00  0.00    +0.000 C 
ATOM     26  C   UNL     1     148.173 114.445 102.271  0.00  0.00    +0.000 C 
ATOM     27  C   UNL     1     152.164 112.923 105.479  0.00  0.00    +0.000 C 
ATOM     28  C   UNL     1     152.163 113.386 104.024  0.00  0.00    +0.000 C 
ATOM     29  C   UNL     1     151.931 111.415 105.603  0.00  0.00    +0.000 C 
ENDROOT
BRANCH  14  30
ATOM     30  O   UNL     1     147.945 112.540 103.709  0.00  0.00    +0.000 OA
ATOM     31  H   UNL     1     148.554 112.144 103.053  0.00  0.00    +0.000 HD
ENDBRANCH  14  30
BRANCH  23  32
ATOM     32  O   UNL     1     142.608 115.139 114.080  0.00  0.00    +0.000 OA
ATOM     33  H   UNL     1     143.117 115.573 114.787  0.00  0.00    +0.000 HD
ENDBRANCH  23  32
TORSDOF 2
ENDMDL
MODEL 7
REMARK VINA RESULT:      -6.5     13.982     16.046
REMARK  Name = 
REMARK  5 active torsions:
REMARK  status: ('A' for Active; 'I' for Inactive)
REMARK    1  A    between atoms: O_1  and  C_16
REMARK    2  A    between atoms: O_3  and  C_25
REMARK    3  A    between atoms: C_11  and  C_22
REMARK    4  A    between atoms: C_16  and  C_28
REMARK    5  A    between atoms: C_29  and  C_31
REMARK                            x       y       z     vdW  Elec       q    Type
REMARK                         _______ _______ _______ _____ _____    ______ ____
ROOT
ATOM      1  O   UNL     1     152.401 112.350 104.606  0.00  0.00    +0.000 OA
ATOM      2  N   UNL     1     145.347 114.476 110.595  0.00  0.00    +0.000 NA
ATOM      3  C   UNL     1     148.416 114.778 108.289  0.00  0.00    +0.000 C 
ATOM      4  C   UNL     1     149.889 114.291 108.338  0.00  0.00    +0.000 C 
ATOM      5  C   UNL     1     149.152 114.351 106.050  0.00  0.00    +0.000 C 
ATOM      6  C   UNL     1     150.119 113.608 106.980  0.00  0.00    +0.000 C 
ATOM      7  C   UNL     1     147.562 114.274 109.469  0.00  0.00    +0.000 C 
ATOM      8  C   UNL     1     147.884 114.376 106.898  0.00  0.00    +0.000 C 
ATOM      9  C   UNL     1     149.107 113.734 104.626  0.00  0.00    +0.000 C 
ATOM     10  C   UNL     1     148.287 114.594 110.795  0.00  0.00    +0.000 C 
ATOM     11  C   UNL     1     150.177 113.363 109.513  0.00  0.00    +0.000 C 
ATOM     12  C   UNL     1     150.559 113.831 104.067  0.00  0.00    +0.000 C 
ATOM     13  C   UNL     1     149.687 113.931 110.843  0.00  0.00    +0.000 C 
ATOM     14  C   UNL     1     147.395 114.244 112.022  0.00  0.00    +0.000 C 
ATOM     15  C   UNL     1     151.546 113.631 106.451  0.00  0.00    +0.000 C 
ATOM     16  C   UNL     1     146.163 114.903 109.446  0.00  0.00    +0.000 C 
ATOM     17  C   UNL     1     145.973 114.904 111.878  0.00  0.00    +0.000 C 
ATOM     18  C   UNL     1     148.183 114.576 103.709  0.00  0.00    +0.000 C 
ATOM     19  C   UNL     1     151.559 113.152 105.006  0.00  0.00    +0.000 C 
ATOM     20  C   UNL     1     148.595 112.272 104.645  0.00  0.00    +0.000 C 
ATOM     21  C   UNL     1     150.661 113.358 102.617  0.00  0.00    +0.000 C 
ATOM     22  C   UNL     1     148.284 114.185 102.232  0.00  0.00    +0.000 C 
ATOM     23  C   UNL     1     149.725 114.170 101.720  0.00  0.00    +0.000 C 
ATOM     24  C   UNL     1     145.058 114.530 113.073  0.00  0.00    +0.000 C 
ATOM     25  C   UNL     1     143.990 115.037 110.438  0.00  0.00    +0.000 C 
ATOM     26  C   UNL     1     148.078 114.667 113.331  0.00  0.00    +0.000 C 
ATOM     27  C   UNL     1     143.037 114.615 111.561  0.00  0.00    +0.000 C 
ATOM     28  C   UNL     1     143.627 115.030 112.907  0.00  0.00    +0.000 C 
ATOM     29  C   UNL     1     142.721 113.117 111.508  0.00  0.00    +0.000 C 
ENDROOT
BRANCH  14  30
ATOM     30  O   UNL     1     147.232 112.816 112.062  0.00  0.00    +0.000 OA
ATOM     31  H   UNL     1     146.270 112.667 111.969  0.00  0.00    +0.000 HD
ENDBRANCH  14  30
BRANCH  23  32
ATOM     32  O   UNL     1     149.728 113.630 100.404  0.00  0.00    +0.000 OA
ATOM     33  H   UNL     1     150.092 114.305  99.806  0.00  0.00    +0.000 HD
ENDBRANCH  23  32
TORSDOF 2
ENDMDL
MODEL 8
REMARK VINA RESULT:      -6.4     12.669     13.946
REMARK  Name = 
REMARK  5 active torsions:
REMARK  status: ('A' for Active; 'I' for Inactive)
REMARK    1  A    between atoms: O_1  and  C_16
REMARK    2  A    between atoms: O_3  and  C_25
REMARK    3  A    between atoms: C_11  and  C_22
REMARK    4  A    between atoms: C_16  and  C_28
REMARK    5  A    between atoms: C_29  and  C_31
REMARK                            x       y       z     vdW  Elec       q    Type
REMARK                         _______ _______ _______ _____ _____    ______ ____
ROOT
ATOM      1  O   UNL     1     154.018 112.350 101.813  0.00  0.00    +0.000 OA
ATOM      2  N   UNL     1     145.080 114.117 104.486  0.00  0.00    +0.000 NA
ATOM      3  C   UNL     1     148.724 114.588 103.333  0.00  0.00    +0.000 C 
ATOM      4  C   UNL     1     150.122 114.388 103.975  0.00  0.00    +0.000 C 
ATOM      5  C   UNL     1     150.266 113.940 101.617  0.00  0.00    +0.000 C 
ATOM      6  C   UNL     1     150.905 113.546 102.955  0.00  0.00    +0.000 C 
ATOM      7  C   UNL     1     147.561 114.137 104.238  0.00  0.00    +0.000 C 
ATOM      8  C   UNL     1     148.782 113.874 101.966  0.00  0.00    +0.000 C 
ATOM      9  C   UNL     1     150.811 113.102 100.430  0.00  0.00    +0.000 C 
ATOM     10  C   UNL     1     147.713 114.794 105.627  0.00  0.00    +0.000 C 
ATOM     11  C   UNL     1     150.064 113.732 105.350  0.00  0.00    +0.000 C 
ATOM     12  C   UNL     1     152.346 113.366 100.382  0.00  0.00    +0.000 C 
ATOM     13  C   UNL     1     149.065 114.412 106.284  0.00  0.00    +0.000 C 
ATOM     14  C   UNL     1     146.481 114.494 106.530  0.00  0.00    +0.000 C 
ATOM     15  C   UNL     1     152.414 113.739 102.942  0.00  0.00    +0.000 C 
ATOM     16  C   UNL     1     146.206 114.491 103.612  0.00  0.00    +0.000 C 
ATOM     17  C   UNL     1     145.145 114.854 105.779  0.00  0.00    +0.000 C 
ATOM     18  C   UNL     1     150.196 113.602  99.098  0.00  0.00    +0.000 C 
ATOM     19  C   UNL     1     153.005 113.041 101.725  0.00  0.00    +0.000 C 
ATOM     20  C   UNL     1     150.493 111.595 100.593  0.00  0.00    +0.000 C 
ATOM     21  C   UNL     1     153.021 112.690  99.189  0.00  0.00    +0.000 C 
ATOM     22  C   UNL     1     150.870 113.001  97.861  0.00  0.00    +0.000 C 
ATOM     23  C   UNL     1     152.391 113.162  97.877  0.00  0.00    +0.000 C 
ATOM     24  C   UNL     1     143.906 114.522 106.650  0.00  0.00    +0.000 C 
ATOM     25  C   UNL     1     143.820 114.391 103.766  0.00  0.00    +0.000 C 
ATOM     26  C   UNL     1     146.590 115.241 107.867  0.00  0.00    +0.000 C 
ATOM     27  C   UNL     1     142.577 113.993 104.568  0.00  0.00    +0.000 C 
ATOM     28  C   UNL     1     142.588 114.721 105.910  0.00  0.00    +0.000 C 
ATOM     29  C   UNL     1     142.470 112.475 104.738  0.00  0.00    +0.000 C 
ENDROOT
BRANCH  14  30
ATOM     30  O   UNL     1     146.475 113.086 106.821  0.00  0.00    +0.000 OA
ATOM     31  H   UNL     1     146.772 113.018 107.751  0.00  0.00    +0.000 HD
ENDBRANCH  14  30
BRANCH  23  32
ATOM     32  O   UNL     1     152.932 112.423  96.788  0.00  0.00    +0.000 OA
ATOM     33  H   UNL     1     153.891 112.343  96.930  0.00  0.00    +0.000 HD
ENDBRANCH  23  32
TORSDOF 2
ENDMDL
MODEL 9
REMARK VINA RESULT:      -6.4     20.517     22.857
REMARK  Name = 
REMARK  5 active torsions:
REMARK  status: ('A' for Active; 'I' for Inactive)
REMARK    1  A    between atoms: O_1  and  C_16
REMARK    2  A    between atoms: O_3  and  C_25
REMARK    3  A    between atoms: C_11  and  C_22
REMARK    4  A    between atoms: C_16  and  C_28
REMARK    5  A    between atoms: C_29  and  C_31
REMARK                            x       y       z     vdW  Elec       q    Type
REMARK                         _______ _______ _______ _____ _____    ______ ____
ROOT
ATOM      1  O   UNL     1     154.628 119.023 114.575  0.00  0.00    +0.000 OA
ATOM      2  N   UNL     1     157.314 127.647 117.500  0.00  0.00    +0.000 NA
ATOM      3  C   UNL     1     155.586 124.211 117.315  0.00  0.00    +0.000 C 
ATOM      4  C   UNL     1     154.504 123.564 116.410  0.00  0.00    +0.000 C 
ATOM      5  C   UNL     1     156.046 121.867 117.134  0.00  0.00    +0.000 C 
ATOM      6  C   UNL     1     155.114 122.224 115.968  0.00  0.00    +0.000 C 
ATOM      7  C   UNL     1     155.993 125.629 116.869  0.00  0.00    +0.000 C 
ATOM      8  C   UNL     1     156.750 123.200 117.370  0.00  0.00    +0.000 C 
ATOM      9  C   UNL     1     156.891 120.596 116.850  0.00  0.00    +0.000 C 
ATOM     10  C   UNL     1     154.724 126.491 116.691  0.00  0.00    +0.000 C 
ATOM     11  C   UNL     1     154.107 124.441 115.227  0.00  0.00    +0.000 C 
ATOM     12  C   UNL     1     155.870 119.442 116.614  0.00  0.00    +0.000 C 
ATOM     13  C   UNL     1     153.765 125.870 115.644  0.00  0.00    +0.000 C 
ATOM     14  C   UNL     1     155.090 127.974 116.392  0.00  0.00    +0.000 C 
ATOM     15  C   UNL     1     154.129 121.105 115.666  0.00  0.00    +0.000 C 
ATOM     16  C   UNL     1     156.953 126.271 117.880  0.00  0.00    +0.000 C 
ATOM     17  C   UNL     1     156.107 128.521 117.462  0.00  0.00    +0.000 C 
ATOM     18  C   UNL     1     157.745 120.236 118.092  0.00  0.00    +0.000 C 
ATOM     19  C   UNL     1     154.885 119.794 115.498  0.00  0.00    +0.000 C 
ATOM     20  C   UNL     1     157.831 120.787 115.633  0.00  0.00    +0.000 C 
ATOM     21  C   UNL     1     156.551 118.086 116.426  0.00  0.00    +0.000 C 
ATOM     22  C   UNL     1     158.409 118.860 117.985  0.00  0.00    +0.000 C 
ATOM     23  C   UNL     1     157.418 117.748 117.640  0.00  0.00    +0.000 C 
ATOM     24  C   UNL     1     156.513 129.984 117.153  0.00  0.00    +0.000 C 
ATOM     25  C   UNL     1     158.318 128.148 118.461  0.00  0.00    +0.000 C 
ATOM     26  C   UNL     1     153.826 128.845 116.326  0.00  0.00    +0.000 C 
ATOM     27  C   UNL     1     158.803 129.563 118.133  0.00  0.00    +0.000 C 
ATOM     28  C   UNL     1     157.604 130.508 118.080  0.00  0.00    +0.000 C 
ATOM     29  C   UNL     1     159.621 129.600 116.839  0.00  0.00    +0.000 C 
ENDROOT
BRANCH  14  30
ATOM     30  O   UNL     1     155.717 128.026 115.099  0.00  0.00    +0.000 OA
ATOM     31  H   UNL     1     156.444 128.674 115.195  0.00  0.00    +0.000 HD
ENDBRANCH  14  30
BRANCH  23  32
ATOM     32  O   UNL     1     158.152 116.554 117.392  0.00  0.00    +0.000 OA
ATOM     33  H   UNL     1     157.899 116.228 116.511  0.00  0.00    +0.000 HD
ENDBRANCH  23  32
TORSDOF 2
ENDMDL
