MODEL 1
REMARK VINA RESULT:      -6.9      0.000      0.000
REMARK  Name = PhIP.pdbqt.pdb
REMARK  2 active torsions:
REMARK  status: ('A' for Active; 'I' for Inactive)
REMARK    1  A    between atoms: N_4  and  C_9
REMARK    2  A    between atoms: C_7  and  C_10
REMARK                            x       y       z     vdW  Elec       q    Type
REMARK                         _______ _______ _______ _____ _____    ______ ____
ROOT
ATOM      1  N   UNL     1     137.495 121.849 134.362  0.00  0.00    +0.000 N 
ATOM      2  N   UNL     1     136.833 122.577 132.192  0.00  0.00    +0.000 NA
ATOM      3  N   UNL     1     138.364 124.454 132.034  0.00  0.00    +0.000 NA
ATOM      4  C   UNL     1     138.290 122.908 134.043  0.00  0.00    +0.000 C 
ATOM      5  C   UNL     1     137.806 123.324 132.647  0.00  0.00    +0.000 C 
ATOM      6  C   UNL     1     139.611 124.952 134.120  0.00  0.00    +0.000 C 
ATOM      7  C   UNL     1     139.069 123.744 134.661  0.00  0.00    +0.000 C 
ATOM      8  C   UNL     1     136.646 121.716 133.261  0.00  0.00    +0.000 C 
ATOM      9  C   UNL     1     137.059 121.580 135.721  0.00  0.00    +0.000 C 
ATOM     10  C   UNL     1     139.071 125.019 132.790  0.00  0.00    +0.000 C 
ENDROOT
BRANCH   6  11
ATOM     11  C   UNL     1     140.555 125.861 134.741  0.00  0.00    +0.000 A 
ATOM     12  C   UNL     1     141.217 125.505 135.918  0.00  0.00    +0.000 A 
ATOM     13  C   UNL     1     140.820 127.109 134.173  0.00  0.00    +0.000 A 
ATOM     14  C   UNL     1     142.125 126.376 136.517  0.00  0.00    +0.000 A 
ATOM     15  C   UNL     1     141.726 127.985 134.769  0.00  0.00    +0.000 A 
ATOM     16  C   UNL     1     142.379 127.617 135.942  0.00  0.00    +0.000 A 
ENDBRANCH   6  11
BRANCH   8  17
ATOM     17  N   UNL     1     135.550 120.839 133.185  0.00  0.00    +0.000 NA
ATOM     18  H   UNL     1     135.521 120.160 133.938  0.00  0.00    +0.000 HD
ATOM     19  H   UNL     1     134.673 121.319 133.028  0.00  0.00    +0.000 HD
ENDBRANCH   8  17
TORSDOF 2
ENDMDL
MODEL 2
REMARK VINA RESULT:      -6.7      2.943      3.585
REMARK  Name = PhIP.pdbqt.pdb
REMARK  2 active torsions:
REMARK  status: ('A' for Active; 'I' for Inactive)
REMARK    1  A    between atoms: N_4  and  C_9
REMARK    2  A    between atoms: C_7  and  C_10
REMARK                            x       y       z     vdW  Elec       q    Type
REMARK                         _______ _______ _______ _____ _____    ______ ____
ROOT
ATOM      1  N   UNL     1     136.910 122.937 135.360  0.00  0.00    +0.000 N 
ATOM      2  N   UNL     1     136.795 124.515 133.579  0.00  0.00    +0.000 NA
ATOM      3  N   UNL     1     139.104 124.314 132.861  0.00  0.00    +0.000 NA
ATOM      4  C   UNL     1     138.136 122.950 134.766  0.00  0.00    +0.000 C 
ATOM      5  C   UNL     1     137.989 123.984 133.641  0.00  0.00    +0.000 C 
ATOM      6  C   UNL     1     140.534 122.930 134.342  0.00  0.00    +0.000 C 
ATOM      7  C   UNL     1     139.345 122.570 135.051  0.00  0.00    +0.000 C 
ATOM      8  C   UNL     1     136.175 123.887 134.647  0.00  0.00    +0.000 C 
ATOM      9  C   UNL     1     136.735 122.725 136.786  0.00  0.00    +0.000 C 
ATOM     10  C   UNL     1     140.074 123.808 133.301  0.00  0.00    +0.000 C 
ENDROOT
BRANCH   6  11
ATOM     11  C   UNL     1     141.885 122.455 134.569  0.00  0.00    +0.000 A 
ATOM     12  C   UNL     1     142.718 123.095 135.490  0.00  0.00    +0.000 A 
ATOM     13  C   UNL     1     142.377 121.349 133.874  0.00  0.00    +0.000 A 
ATOM     14  C   UNL     1     144.017 122.640 135.711  0.00  0.00    +0.000 A 
ATOM     15  C   UNL     1     143.675 120.890 134.090  0.00  0.00    +0.000 A 
ATOM     16  C   UNL     1     144.496 121.538 135.010  0.00  0.00    +0.000 A 
ENDBRANCH   6  11
BRANCH   8  17
ATOM     17  N   UNL     1     134.885 124.331 134.983  0.00  0.00    +0.000 NA
ATOM     18  H   UNL     1     134.246 123.578 135.216  0.00  0.00    +0.000 HD
ATOM     19  H   UNL     1     134.891 125.089 135.653  0.00  0.00    +0.000 HD
ENDBRANCH   8  17
TORSDOF 2
ENDMDL
MODEL 3
REMARK VINA RESULT:      -6.6     32.460     34.360
REMARK  Name = PhIP.pdbqt.pdb
REMARK  2 active torsions:
REMARK  status: ('A' for Active; 'I' for Inactive)
REMARK    1  A    between atoms: N_4  and  C_9
REMARK    2  A    between atoms: C_7  and  C_10
REMARK                            x       y       z     vdW  Elec       q    Type
REMARK                         _______ _______ _______ _____ _____    ______ ____
ROOT
ATOM      1  N   UNL     1     144.786 125.834 102.670  0.00  0.00    +0.000 N 
ATOM      2  N   UNL     1     142.898 127.159 103.265  0.00  0.00    +0.000 NA
ATOM      3  N   UNL     1     141.354 126.209 101.651  0.00  0.00    +0.000 NA
ATOM      4  C   UNL     1     143.752 125.418 101.887  0.00  0.00    +0.000 C 
ATOM      5  C   UNL     1     142.581 126.313 102.319  0.00  0.00    +0.000 C 
ATOM      6  C   UNL     1     142.386 124.648 100.024  0.00  0.00    +0.000 C 
ATOM      7  C   UNL     1     143.588 124.736 100.794  0.00  0.00    +0.000 C 
ATOM      8  C   UNL     1     144.242 126.868 103.434  0.00  0.00    +0.000 C 
ATOM      9  C   UNL     1     146.162 125.847 102.204  0.00  0.00    +0.000 C 
ATOM     10  C   UNL     1     141.457 125.495 100.718  0.00  0.00    +0.000 C 
ENDROOT
BRANCH   6  11
ATOM     11  C   UNL     1     142.136 123.827  98.855  0.00  0.00    +0.000 A 
ATOM     12  C   UNL     1     143.123 122.971  98.362  0.00  0.00    +0.000 A 
ATOM     13  C   UNL     1     140.903 123.877  98.201  0.00  0.00    +0.000 A 
ATOM     14  C   UNL     1     142.885 122.181  97.238  0.00  0.00    +0.000 A 
ATOM     15  C   UNL     1     140.659 123.089  97.077  0.00  0.00    +0.000 A 
ATOM     16  C   UNL     1     141.652 122.241  96.596  0.00  0.00    +0.000 A 
ENDBRANCH   6  11
BRANCH   8  17
ATOM     17  N   UNL     1     144.969 127.706 104.297  0.00  0.00    +0.000 NA
ATOM     18  H   UNL     1     144.561 127.788 105.222  0.00  0.00    +0.000 HD
ATOM     19  H   UNL     1     145.961 127.502 104.300  0.00  0.00    +0.000 HD
ENDBRANCH   8  17
TORSDOF 2
ENDMDL
MODEL 4
REMARK VINA RESULT:      -6.5     21.601     23.220
REMARK  Name = PhIP.pdbqt.pdb
REMARK  2 active torsions:
REMARK  status: ('A' for Active; 'I' for Inactive)
REMARK    1  A    between atoms: N_4  and  C_9
REMARK    2  A    between atoms: C_7  and  C_10
REMARK                            x       y       z     vdW  Elec       q    Type
REMARK                         _______ _______ _______ _____ _____    ______ ____
ROOT
ATOM      1  N   UNL     1     133.239 129.569 110.973  0.00  0.00    +0.000 N 
ATOM      2  N   UNL     1     133.152 130.325 113.231  0.00  0.00    +0.000 NA
ATOM      3  N   UNL     1     135.355 129.545 113.885  0.00  0.00    +0.000 NA
ATOM      4  C   UNL     1     134.441 129.263 111.537  0.00  0.00    +0.000 C 
ATOM      5  C   UNL     1     134.310 129.770 112.980  0.00  0.00    +0.000 C 
ATOM      6  C   UNL     1     136.508 128.152 112.188  0.00  0.00    +0.000 C 
ATOM      7  C   UNL     1     135.449 128.483 111.285  0.00  0.00    +0.000 C 
ATOM      8  C   UNL     1     132.516 130.162 112.011  0.00  0.00    +0.000 C 
ATOM      9  C   UNL     1     132.613 128.732 109.964  0.00  0.00    +0.000 C 
ATOM     10  C   UNL     1     136.169 128.843 113.401  0.00  0.00    +0.000 C 
ENDROOT
BRANCH   6  11
ATOM     11  C   UNL     1     137.696 127.365 111.916  0.00  0.00    +0.000 A 
ATOM     12  C   UNL     1     138.462 126.850 112.964  0.00  0.00    +0.000 A 
ATOM     13  C   UNL     1     138.093 127.106 110.603  0.00  0.00    +0.000 A 
ATOM     14  C   UNL     1     139.604 126.093 112.706  0.00  0.00    +0.000 A 
ATOM     15  C   UNL     1     139.234 126.350 110.339  0.00  0.00    +0.000 A 
ATOM     16  C   UNL     1     139.989 125.844 111.393  0.00  0.00    +0.000 A 
ENDBRANCH   6  11
BRANCH   8  17
ATOM     17  N   UNL     1     131.159 130.522 111.949  0.00  0.00    +0.000 NA
ATOM     18  H   UNL     1     130.703 130.540 112.855  0.00  0.00    +0.000 HD
ATOM     19  H   UNL     1     130.997 131.350 111.389  0.00  0.00    +0.000 HD
ENDBRANCH   8  17
TORSDOF 2
ENDMDL
MODEL 5
REMARK VINA RESULT:      -6.4      1.416      2.022
REMARK  Name = PhIP.pdbqt.pdb
REMARK  2 active torsions:
REMARK  status: ('A' for Active; 'I' for Inactive)
REMARK    1  A    between atoms: N_4  and  C_9
REMARK    2  A    between atoms: C_7  and  C_10
REMARK                            x       y       z     vdW  Elec       q    Type
REMARK                         _______ _______ _______ _____ _____    ______ ____
ROOT
ATOM      1  N   UNL     1     137.794 122.041 135.603  0.00  0.00    +0.000 N 
ATOM      2  N   UNL     1     136.710 121.385 133.585  0.00  0.00    +0.000 NA
ATOM      3  N   UNL     1     137.588 123.165 132.189  0.00  0.00    +0.000 NA
ATOM      4  C   UNL     1     138.200 122.913 134.637  0.00  0.00    +0.000 C 
ATOM      5  C   UNL     1     137.462 122.435 133.378  0.00  0.00    +0.000 C 
ATOM      6  C   UNL     1     138.856 124.912 133.412  0.00  0.00    +0.000 C 
ATOM      7  C   UNL     1     138.759 124.083 134.573  0.00  0.00    +0.000 C 
ATOM      8  C   UNL     1     136.906 121.189 134.943  0.00  0.00    +0.000 C 
ATOM      9  C   UNL     1     137.611 122.440 136.987  0.00  0.00    +0.000 C 
ATOM     10  C   UNL     1     138.176 124.168 132.388  0.00  0.00    +0.000 C 
ENDROOT
BRANCH   6  11
ATOM     11  C   UNL     1     139.550 126.178 133.276  0.00  0.00    +0.000 A 
ATOM     12  C   UNL     1     140.582 126.520 134.153  0.00  0.00    +0.000 A 
ATOM     13  C   UNL     1     139.202 127.076 132.265  0.00  0.00    +0.000 A 
ATOM     14  C   UNL     1     141.252 127.736 134.025  0.00  0.00    +0.000 A 
ATOM     15  C   UNL     1     139.868 128.293 132.133  0.00  0.00    +0.000 A 
ATOM     16  C   UNL     1     140.894 128.623 133.014  0.00  0.00    +0.000 A 
ENDBRANCH   6  11
BRANCH   8  17
ATOM     17  N   UNL     1     136.118 120.204 135.562  0.00  0.00    +0.000 NA
ATOM     18  H   UNL     1     135.312 119.925 135.012  0.00  0.00    +0.000 HD
ATOM     19  H   UNL     1     136.664 119.430 135.918  0.00  0.00    +0.000 HD
ENDBRANCH   8  17
TORSDOF 2
ENDMDL
MODEL 6
REMARK VINA RESULT:      -6.1      2.618      5.627
REMARK  Name = PhIP.pdbqt.pdb
REMARK  2 active torsions:
REMARK  status: ('A' for Active; 'I' for Inactive)
REMARK    1  A    between atoms: N_4  and  C_9
REMARK    2  A    between atoms: C_7  and  C_10
REMARK                            x       y       z     vdW  Elec       q    Type
REMARK                         _______ _______ _______ _____ _____    ______ ____
ROOT
ATOM      1  N   UNL     1     140.226 124.314 133.588  0.00  0.00    +0.000 N 
ATOM      2  N   UNL     1     138.815 124.795 131.729  0.00  0.00    +0.000 NA
ATOM      3  N   UNL     1     136.714 124.228 132.804  0.00  0.00    +0.000 NA
ATOM      4  C   UNL     1     138.946 124.099 134.000  0.00  0.00    +0.000 C 
ATOM      5  C   UNL     1     138.101 124.420 132.760  0.00  0.00    +0.000 C 
ATOM      6  C   UNL     1     136.942 123.190 135.045  0.00  0.00    +0.000 C 
ATOM      7  C   UNL     1     138.340 123.485 134.972  0.00  0.00    +0.000 C 
ATOM      8  C   UNL     1     140.095 124.691 132.249  0.00  0.00    +0.000 C 
ATOM      9  C   UNL     1     141.345 123.523 134.070  0.00  0.00    +0.000 C 
ATOM     10  C   UNL     1     136.409 123.692 133.809  0.00  0.00    +0.000 C 
ENDROOT
BRANCH   6  11
ATOM     11  C   UNL     1     136.215 122.593 136.148  0.00  0.00    +0.000 A 
ATOM     12  C   UNL     1     136.824 122.423 137.393  0.00  0.00    +0.000 A 
ATOM     13  C   UNL     1     134.891 122.179 135.987  0.00  0.00    +0.000 A 
ATOM     14  C   UNL     1     136.127 121.850 138.456  0.00  0.00    +0.000 A 
ATOM     15  C   UNL     1     134.189 121.605 137.045  0.00  0.00    +0.000 A 
ATOM     16  C   UNL     1     134.809 121.441 138.281  0.00  0.00    +0.000 A 
ENDBRANCH   6  11
BRANCH   8  17
ATOM     17  N   UNL     1     141.161 124.883 131.354  0.00  0.00    +0.000 NA
ATOM     18  H   UNL     1     142.048 124.533 131.700  0.00  0.00    +0.000 HD
ATOM     19  H   UNL     1     140.941 124.589 130.411  0.00  0.00    +0.000 HD
ENDBRANCH   8  17
TORSDOF 2
ENDMDL
MODEL 7
REMARK VINA RESULT:      -6.1      2.979      6.337
REMARK  Name = PhIP.pdbqt.pdb
REMARK  2 active torsions:
REMARK  status: ('A' for Active; 'I' for Inactive)
REMARK    1  A    between atoms: N_4  and  C_9
REMARK    2  A    between atoms: C_7  and  C_10
REMARK                            x       y       z     vdW  Elec       q    Type
REMARK                         _______ _______ _______ _____ _____    ______ ____
ROOT
ATOM      1  N   UNL     1     138.130 123.670 134.106  0.00  0.00    +0.000 N 
ATOM      2  N   UNL     1     136.706 122.851 132.381  0.00  0.00    +0.000 NA
ATOM      3  N   UNL     1     134.808 122.319 133.797  0.00  0.00    +0.000 NA
ATOM      4  C   UNL     1     136.946 123.345 134.696  0.00  0.00    +0.000 C 
ATOM      5  C   UNL     1     136.088 122.824 133.534  0.00  0.00    +0.000 C 
ATOM      6  C   UNL     1     135.238 122.535 136.231  0.00  0.00    +0.000 C 
ATOM      7  C   UNL     1     136.501 123.116 135.894  0.00  0.00    +0.000 C 
ATOM      8  C   UNL     1     137.946 123.337 132.762  0.00  0.00    +0.000 C 
ATOM      9  C   UNL     1     139.407 123.516 134.781  0.00  0.00    +0.000 C 
ATOM     10  C   UNL     1     134.629 122.250 134.961  0.00  0.00    +0.000 C 
ENDROOT
BRANCH   6  11
ATOM     11  C   UNL     1     134.666 122.350 137.551  0.00  0.00    +0.000 A 
ATOM     12  C   UNL     1     133.436 121.709 137.710  0.00  0.00    +0.000 A 
ATOM     13  C   UNL     1     135.337 122.808 138.687  0.00  0.00    +0.000 A 
ATOM     14  C   UNL     1     132.885 121.529 138.977  0.00  0.00    +0.000 A 
ATOM     15  C   UNL     1     134.790 122.631 139.957  0.00  0.00    +0.000 A 
ATOM     16  C   UNL     1     133.562 121.991 140.101  0.00  0.00    +0.000 A 
ENDBRANCH   6  11
BRANCH   8  17
ATOM     17  N   UNL     1     138.948 123.364 131.777  0.00  0.00    +0.000 NA
ATOM     18  H   UNL     1     139.025 122.498 131.254  0.00  0.00    +0.000 HD
ATOM     19  H   UNL     1     138.907 124.193 131.198  0.00  0.00    +0.000 HD
ENDBRANCH   8  17
TORSDOF 2
ENDMDL
MODEL 8
REMARK VINA RESULT:      -6.0      2.067      3.671
REMARK  Name = PhIP.pdbqt.pdb
REMARK  2 active torsions:
REMARK  status: ('A' for Active; 'I' for Inactive)
REMARK    1  A    between atoms: N_4  and  C_9
REMARK    2  A    between atoms: C_7  and  C_10
REMARK                            x       y       z     vdW  Elec       q    Type
REMARK                         _______ _______ _______ _____ _____    ______ ____
ROOT
ATOM      1  N   UNL     1     136.137 121.170 137.512  0.00  0.00    +0.000 N 
ATOM      2  N   UNL     1     135.341 119.901 135.659  0.00  0.00    +0.000 NA
ATOM      3  N   UNL     1     136.619 121.051 133.947  0.00  0.00    +0.000 NA
ATOM      4  C   UNL     1     136.785 121.637 136.408  0.00  0.00    +0.000 C 
ATOM      5  C   UNL     1     136.222 120.783 135.263  0.00  0.00    +0.000 C 
ATOM      6  C   UNL     1     137.839 123.061 134.738  0.00  0.00    +0.000 C 
ATOM      7  C   UNL     1     137.465 122.690 136.067  0.00  0.00    +0.000 C 
ATOM      8  C   UNL     1     135.287 120.178 137.016  0.00  0.00    +0.000 C 
ATOM      9  C   UNL     1     135.768 122.030 138.623  0.00  0.00    +0.000 C 
ATOM     10  C   UNL     1     137.266 122.037 133.909  0.00  0.00    +0.000 C 
ENDROOT
BRANCH   6  11
ATOM     11  C   UNL     1     138.673 124.173 134.325  0.00  0.00    +0.000 A 
ATOM     12  C   UNL     1     138.260 125.033 133.305  0.00  0.00    +0.000 A 
ATOM     13  C   UNL     1     139.905 124.405 134.941  0.00  0.00    +0.000 A 
ATOM     14  C   UNL     1     139.060 126.102 132.907  0.00  0.00    +0.000 A 
ATOM     15  C   UNL     1     140.709 125.473 134.546  0.00  0.00    +0.000 A 
ATOM     16  C   UNL     1     140.285 126.322 133.528  0.00  0.00    +0.000 A 
ENDBRANCH   6  11
BRANCH   8  17
ATOM     17  N   UNL     1     134.310 119.501 137.764  0.00  0.00    +0.000 NA
ATOM     18  H   UNL     1     134.517 118.518 137.906  0.00  0.00    +0.000 HD
ATOM     19  H   UNL     1     134.050 119.994 138.609  0.00  0.00    +0.000 HD
ENDBRANCH   8  17
TORSDOF 2
ENDMDL
MODEL 9
REMARK VINA RESULT:      -5.9     33.655     35.511
REMARK  Name = PhIP.pdbqt.pdb
REMARK  2 active torsions:
REMARK  status: ('A' for Active; 'I' for Inactive)
REMARK    1  A    between atoms: N_4  and  C_9
REMARK    2  A    between atoms: C_7  and  C_10
REMARK                            x       y       z     vdW  Elec       q    Type
REMARK                         _______ _______ _______ _____ _____    ______ ____
ROOT
ATOM      1  N   UNL     1     143.639 127.225 100.960  0.00  0.00    +0.000 N 
ATOM      2  N   UNL     1     143.918 125.716 102.782  0.00  0.00    +0.000 NA
ATOM      3  N   UNL     1     144.195 123.703 101.454  0.00  0.00    +0.000 NA
ATOM      4  C   UNL     1     143.863 125.995 100.420  0.00  0.00    +0.000 C 
ATOM      5  C   UNL     1     144.026 125.081 101.643  0.00  0.00    +0.000 C 
ATOM      6  C   UNL     1     143.790 124.000  99.025  0.00  0.00    +0.000 C 
ATOM      7  C   UNL     1     143.705 125.406  99.272  0.00  0.00    +0.000 C 
ATOM      8  C   UNL     1     143.654 127.002 102.338  0.00  0.00    +0.000 C 
ATOM      9  C   UNL     1     142.765 128.204 100.337  0.00  0.00    +0.000 C 
ATOM     10  C   UNL     1     144.047 123.427 100.317  0.00  0.00    +0.000 C 
ENDROOT
BRANCH   6  11
ATOM     11  C   UNL     1     143.714 123.315  97.749  0.00  0.00    +0.000 A 
ATOM     12  C   UNL     1     144.639 123.587  96.739  0.00  0.00    +0.000 A 
ATOM     13  C   UNL     1     142.715 122.369  97.508  0.00  0.00    +0.000 A 
ATOM     14  C   UNL     1     144.569 122.929  95.512  0.00  0.00    +0.000 A 
ATOM     15  C   UNL     1     142.640 121.709  96.282  0.00  0.00    +0.000 A 
ATOM     16  C   UNL     1     143.568 121.990  95.284  0.00  0.00    +0.000 A 
ENDBRANCH   6  11
BRANCH   8  17
ATOM     17  N   UNL     1     143.329 127.956 103.317  0.00  0.00    +0.000 NA
ATOM     18  H   UNL     1     142.357 128.247 103.291  0.00  0.00    +0.000 HD
ATOM     19  H   UNL     1     143.659 127.702 104.239  0.00  0.00    +0.000 HD
ENDBRANCH   8  17
TORSDOF 2
ENDMDL
