REMARK  Name = 
REMARK  5 active torsions:
REMARK  status: ('A' for Active; 'I' for Inactive)
REMARK    1  A    between atoms: O_5  and  C_22
REMARK    2  A    between atoms: O_6  and  C_24
REMARK    3  A    between atoms: O_8  and  C_35
REMARK    4  A    between atoms: O_9  and  C_39
REMARK    5  A    between atoms: C_26  and  C_29
REMARK                            x       y       z     vdW  Elec       q    Type
REMARK                         _______ _______ _______ _____ _____    ______ ____
ROOT
ATOM      1  O   UNL     1      -0.237   1.286  -0.980  0.00  0.00    +0.000 OA
ATOM      2  O   UNL     1       2.093  -2.396   0.299  0.00  0.00    +0.000 OA
ATOM      3  O   UNL     1       0.674  -3.450  -1.551  0.00  0.00    +0.000 OA
ATOM      4  C   UNL     1       0.084  -0.909  -1.350  0.00  0.00    +0.000 A 
ATOM      5  C   UNL     1       0.586   0.405  -0.455  0.00  0.00    +0.000 A 
ATOM      6  C   UNL     1      -1.410  -0.427  -1.618  0.00  0.00    +0.000 A 
ATOM      7  C   UNL     1       1.804   0.420   1.227  0.00  0.00    +0.000 A 
ATOM      8  C   UNL     1      -1.232   0.446  -0.275  0.00  0.00    +0.000 A 
ATOM      9  C   UNL     1       2.600  -1.144   1.484  0.00  0.00    +0.000 A 
ATOM     10  C   UNL     1       0.911  -2.390  -0.978  0.00  0.00    +0.000 A 
ATOM     11  C   UNL     1      -3.115  -0.646  -2.059  0.00  0.00    +0.000 A 
ATOM     12  C   UNL     1      -2.567   0.907   1.132  0.00  0.00    +0.000 A 
ATOM     13  C   UNL     1       2.194   1.297   2.254  0.00  0.00    +0.000 A 
ATOM     14  C   UNL     1       3.470  -1.553   2.447  0.00  0.00    +0.000 A 
ATOM     15  C   UNL     1      -4.526  -0.134  -1.015  0.00  0.00    +0.000 A 
ATOM     16  C   UNL     1      -4.286   0.586   0.606  0.00  0.00    +0.000 A 
ATOM     17  C   UNL     1       3.127   0.824   3.241  0.00  0.00    +0.000 A 
ATOM     18  C   UNL     1       3.720  -0.502   3.320  0.00  0.00    +0.000 A 
ENDROOT
BRANCH  16  19
ATOM     19  O   UNL     1      -5.320   0.944   1.403  0.00  0.00    +0.000 OA
ATOM     20  H   UNL     1      -6.129   0.692   0.927  0.00  0.00    +0.000 HD
ENDBRANCH  16  19
BRANCH  18  21
ATOM     21  O   UNL     1       4.602  -0.772   4.339  0.00  0.00    +0.000 OA
ATOM     22  H   UNL     1       4.729   0.030   4.872  0.00  0.00    +0.000 HD
ENDBRANCH  18  21
TORSDOF 2
REMARK  Name = 
REMARK  5 active torsions:
REMARK  status: ('A' for Active; 'I' for Inactive)
REMARK    1  A    between atoms: O_5  and  C_22
REMARK    2  A    between atoms: O_6  and  C_24
REMARK    3  A    between atoms: O_8  and  C_35
REMARK    4  A    between atoms: O_9  and  C_39
REMARK    5  A    between atoms: C_26  and  C_29
REMARK                            x       y       z     vdW  Elec       q    Type
REMARK                         _______ _______ _______ _____ _____    ______ ____
ROOT
ATOM      1  O   UNL     1       0.895  -0.990   0.567  0.00  0.00    +0.000 OA
ATOM      2  O   UNL     1       1.492   3.698   0.089  0.00  0.00    +0.000 OA
ATOM      3  C   UNL     1      -0.294   1.883   1.022  0.00  0.00    +0.000 A 
ATOM      4  C   UNL     1       2.512   1.288  -0.669  0.00  0.00    +0.000 A 
ATOM      5  C   UNL     1      -0.287   0.077   1.571  0.00  0.00    +0.000 A 
ATOM      6  C   UNL     1       1.277   2.489   0.149  0.00  0.00    +0.000 A 
ATOM      7  C   UNL     1       2.362  -0.256  -0.559  0.00  0.00    +0.000 A 
ATOM      8  C   UNL     1      -1.687   2.476  -0.023  0.00  0.00    +0.000 A 
ATOM      9  C   UNL     1      -1.501  -1.099   1.275  0.00  0.00    +0.000 A 
ATOM     10  C   UNL     1      -2.719  -0.682   0.096  0.00  0.00    +0.000 A 
ATOM     11  C   UNL     1      -2.839   1.191  -0.717  0.00  0.00    +0.000 A 
ENDROOT
BRANCH   4  12
ATOM     12  C   UNL     1       3.633   1.886  -1.420  0.00  0.00    +0.000 A 
ATOM     13  C   UNL     1       3.444   3.028  -2.206  0.00  0.00    +0.000 A 
ATOM     14  C   UNL     1       4.920   1.330  -1.335  0.00  0.00    +0.000 A 
ATOM     15  C   UNL     1       4.517   3.604  -2.893  0.00  0.00    +0.000 A 
ATOM     16  C   UNL     1       5.994   1.903  -2.023  0.00  0.00    +0.000 A 
ATOM     17  C   UNL     1       5.781   3.039  -2.796  0.00  0.00    +0.000 A 
BRANCH  17  18
ATOM     18  O   UNL     1       6.800   3.636  -3.477  0.00  0.00    +0.000 OA
ATOM     19  H   UNL     1       7.622   3.153  -3.294  0.00  0.00    +0.000 HD
ENDBRANCH  17  18
ENDBRANCH   4  12
BRANCH  10  20
ATOM     20  O   UNL     1      -3.466  -1.889  -0.064  0.00  0.00    +0.000 OA
ATOM     21  H   UNL     1      -3.304  -2.454   0.707  0.00  0.00    +0.000 HD
ENDBRANCH  10  20
TORSDOF 3
