MODEL 1
REMARK VINA RESULT:      -7.3      0.000      0.000
REMARK  Name = Piroxicam.pdbqt.pdb
REMARK  3 active torsions:
REMARK  status: ('A' for Active; 'I' for Inactive)
REMARK    1  A    between atoms: C_7  and  C_14
REMARK    2  A    between atoms: C_8  and  O_24
REMARK    3  A    between atoms: N_16  and  C_18
REMARK                            x       y       z     vdW  Elec       q    Type
REMARK                         _______ _______ _______ _____ _____    ______ ____
ROOT
ATOM      1  S   UNL     1     142.084 125.887  98.880  0.00  0.00    +0.000 S 
ATOM      2  O   UNL     1     141.102 125.479  99.868  0.00  0.00    +0.000 OA
ATOM      3  O   UNL     1     141.819 127.000  97.990  0.00  0.00    +0.000 OA
ATOM      4  N   UNL     1     143.600 126.097  99.669  0.00  0.00    +0.000 N 
ATOM      5  C   UNL     1     142.412 124.475  97.899  0.00  0.00    +0.000 A 
ATOM      6  C   UNL     1     143.298 123.529  98.410  0.00  0.00    +0.000 A 
ATOM      7  C   UNL     1     144.072 124.912 100.327  0.00  0.00    +0.000 C 
ATOM      8  C   UNL     1     143.925 123.704  99.735  0.00  0.00    +0.000 C 
ATOM      9  C   UNL     1     141.817 124.350  96.649  0.00  0.00    +0.000 A 
ATOM     10  C   UNL     1     144.677 126.801  98.951  0.00  0.00    +0.000 C 
ATOM     11  C   UNL     1     143.553 122.398  97.632  0.00  0.00    +0.000 A 
ATOM     12  C   UNL     1     142.096 123.222  95.887  0.00  0.00    +0.000 A 
ATOM     13  C   UNL     1     142.958 122.243  96.379  0.00  0.00    +0.000 A 
ENDROOT
BRANCH   7  14
ATOM     14  C   UNL     1     144.709 125.045 101.678  0.00  0.00    +0.000 C 
ATOM     15  O   UNL     1     145.916 124.838 101.798  0.00  0.00    +0.000 OA
ATOM     16  N   UNL     1     143.854 125.393 102.692  0.00  0.00    +0.000 N 
ATOM     17  H   UNL     1     142.884 125.610 102.494  0.00  0.00    +0.000 HD
BRANCH  16  18
ATOM     18  C   UNL     1     144.184 125.554 104.038  0.00  0.00    +0.000 A 
ATOM     19  N   UNL     1     145.125 126.492 104.270  0.00  0.00    +0.000 NA
ATOM     20  C   UNL     1     145.480 126.692 105.560  0.00  0.00    +0.000 A 
ATOM     21  C   UNL     1     144.941 126.006 106.633  0.00  0.00    +0.000 A 
ATOM     22  C   UNL     1     143.974 125.050 106.360  0.00  0.00    +0.000 A 
ATOM     23  C   UNL     1     143.583 124.815 105.047  0.00  0.00    +0.000 A 
ENDBRANCH  16  18
ENDBRANCH   7  14
BRANCH   8  24
ATOM     24  O   UNL     1     144.354 122.514 100.298  0.00  0.00    +0.000 OA
ATOM     25  H   UNL     1     144.054 122.464 101.234  0.00  0.00    +0.000 HD
ENDBRANCH   8  24
TORSDOF 3
ENDMDL
MODEL 2
REMARK VINA RESULT:      -7.0     33.091     35.824
REMARK  Name = Piroxicam.pdbqt.pdb
REMARK  3 active torsions:
REMARK  status: ('A' for Active; 'I' for Inactive)
REMARK    1  A    between atoms: C_7  and  C_14
REMARK    2  A    between atoms: C_8  and  O_24
REMARK    3  A    between atoms: N_16  and  C_18
REMARK                            x       y       z     vdW  Elec       q    Type
REMARK                         _______ _______ _______ _____ _____    ______ ____
ROOT
ATOM      1  S   UNL     1     136.513 122.919 133.168  0.00  0.00    +0.000 S 
ATOM      2  O   UNL     1     136.880 121.627 132.619  0.00  0.00    +0.000 OA
ATOM      3  O   UNL     1     135.749 123.867 132.381  0.00  0.00    +0.000 OA
ATOM      4  N   UNL     1     135.768 122.672 134.701  0.00  0.00    +0.000 N 
ATOM      5  C   UNL     1     138.009 123.694 133.646  0.00  0.00    +0.000 A 
ATOM      6  C   UNL     1     138.566 123.318 134.867  0.00  0.00    +0.000 A 
ATOM      7  C   UNL     1     136.610 121.992 135.644  0.00  0.00    +0.000 C 
ATOM      8  C   UNL     1     137.928 122.294 135.716  0.00  0.00    +0.000 C 
ATOM      9  C   UNL     1     138.574 124.666 132.829  0.00  0.00    +0.000 A 
ATOM     10  C   UNL     1     135.034 123.791 135.317  0.00  0.00    +0.000 C 
ATOM     11  C   UNL     1     139.763 123.928 135.244  0.00  0.00    +0.000 A 
ATOM     12  C   UNL     1     139.759 125.269 133.232  0.00  0.00    +0.000 A 
ATOM     13  C   UNL     1     140.357 124.898 134.434  0.00  0.00    +0.000 A 
ENDROOT
BRANCH   7  14
ATOM     14  C   UNL     1     136.002 120.940 136.522  0.00  0.00    +0.000 C 
ATOM     15  O   UNL     1     136.191 120.985 137.736  0.00  0.00    +0.000 OA
ATOM     16  N   UNL     1     135.269 119.986 135.863  0.00  0.00    +0.000 N 
ATOM     17  H   UNL     1     135.107 120.060 134.865  0.00  0.00    +0.000 HD
BRANCH  16  18
ATOM     18  C   UNL     1     134.625 118.889 136.438  0.00  0.00    +0.000 A 
ATOM     19  N   UNL     1     135.219 117.705 136.189  0.00  0.00    +0.000 NA
ATOM     20  C   UNL     1     134.639 116.607 136.726  0.00  0.00    +0.000 A 
ATOM     21  C   UNL     1     133.495 116.631 137.504  0.00  0.00    +0.000 A 
ATOM     22  C   UNL     1     132.910 117.866 137.743  0.00  0.00    +0.000 A 
ATOM     23  C   UNL     1     133.477 119.016 137.207  0.00  0.00    +0.000 A 
ENDBRANCH  16  18
ENDBRANCH   7  14
BRANCH   8  24
ATOM     24  O   UNL     1     138.807 121.689 136.598  0.00  0.00    +0.000 OA
ATOM     25  H   UNL     1     138.592 120.731 136.676  0.00  0.00    +0.000 HD
ENDBRANCH   8  24
TORSDOF 3
ENDMDL
MODEL 3
REMARK VINA RESULT:      -6.7      3.098      4.186
REMARK  Name = Piroxicam.pdbqt.pdb
REMARK  3 active torsions:
REMARK  status: ('A' for Active; 'I' for Inactive)
REMARK    1  A    between atoms: C_7  and  C_14
REMARK    2  A    between atoms: C_8  and  O_24
REMARK    3  A    between atoms: N_16  and  C_18
REMARK                            x       y       z     vdW  Elec       q    Type
REMARK                         _______ _______ _______ _____ _____    ______ ____
ROOT
ATOM      1  S   UNL     1     144.870 126.400  97.786  0.00  0.00    +0.000 S 
ATOM      2  O   UNL     1     145.485 125.091  97.665  0.00  0.00    +0.000 OA
ATOM      3  O   UNL     1     143.852 126.828  96.846  0.00  0.00    +0.000 OA
ATOM      4  N   UNL     1     144.315 126.596  99.404  0.00  0.00    +0.000 N 
ATOM      5  C   UNL     1     146.176 127.565  97.738  0.00  0.00    +0.000 A 
ATOM      6  C   UNL     1     146.892 127.777  98.915  0.00  0.00    +0.000 A 
ATOM      7  C   UNL     1     145.357 126.484 100.385  0.00  0.00    +0.000 C 
ATOM      8  C   UNL     1     146.571 127.036 100.150  0.00  0.00    +0.000 C 
ATOM      9  C   UNL     1     146.440 128.257  96.562  0.00  0.00    +0.000 A 
ATOM     10  C   UNL     1     143.388 127.702  99.702  0.00  0.00    +0.000 C 
ATOM     11  C   UNL     1     147.939 128.699  98.875  0.00  0.00    +0.000 A 
ATOM     12  C   UNL     1     147.480 129.179  96.550  0.00  0.00    +0.000 A 
ATOM     13  C   UNL     1     148.233 129.396  97.702  0.00  0.00    +0.000 A 
ENDROOT
BRANCH   7  14
ATOM     14  C   UNL     1     145.073 125.733 101.652  0.00  0.00    +0.000 C 
ATOM     15  O   UNL     1     144.940 124.512 101.611  0.00  0.00    +0.000 OA
ATOM     16  N   UNL     1     144.980 126.510 102.778  0.00  0.00    +0.000 N 
ATOM     17  H   UNL     1     145.170 127.505 102.734  0.00  0.00    +0.000 HD
BRANCH  16  18
ATOM     18  C   UNL     1     144.698 126.066 104.071  0.00  0.00    +0.000 A 
ATOM     19  N   UNL     1     145.579 126.480 105.004  0.00  0.00    +0.000 NA
ATOM     20  C   UNL     1     145.351 126.082 106.277  0.00  0.00    +0.000 A 
ATOM     21  C   UNL     1     144.285 125.293 106.668  0.00  0.00    +0.000 A 
ATOM     22  C   UNL     1     143.395 124.886 105.684  0.00  0.00    +0.000 A 
ATOM     23  C   UNL     1     143.597 125.275 104.365  0.00  0.00    +0.000 A 
ENDBRANCH  16  18
ENDBRANCH   7  14
BRANCH   8  24
ATOM     24  O   UNL     1     147.627 126.977 101.043  0.00  0.00    +0.000 OA
ATOM     25  H   UNL     1     147.324 127.264 101.934  0.00  0.00    +0.000 HD
ENDBRANCH   8  24
TORSDOF 3
ENDMDL
MODEL 4
REMARK VINA RESULT:      -6.6      2.859      6.933
REMARK  Name = Piroxicam.pdbqt.pdb
REMARK  3 active torsions:
REMARK  status: ('A' for Active; 'I' for Inactive)
REMARK    1  A    between atoms: C_7  and  C_14
REMARK    2  A    between atoms: C_8  and  O_24
REMARK    3  A    between atoms: N_16  and  C_18
REMARK                            x       y       z     vdW  Elec       q    Type
REMARK                         _______ _______ _______ _____ _____    ______ ____
ROOT
ATOM      1  S   UNL     1     144.427 125.866 101.380  0.00  0.00    +0.000 S 
ATOM      2  O   UNL     1     144.830 124.664 102.087  0.00  0.00    +0.000 OA
ATOM      3  O   UNL     1     144.998 127.153 101.724  0.00  0.00    +0.000 OA
ATOM      4  N   UNL     1     144.568 125.579  99.688  0.00  0.00    +0.000 N 
ATOM      5  C   UNL     1     142.688 125.981 101.554  0.00  0.00    +0.000 A 
ATOM      6  C   UNL     1     141.904 125.202 100.705  0.00  0.00    +0.000 A 
ATOM      7  C   UNL     1     143.768 124.481  99.224  0.00  0.00    +0.000 C 
ATOM      8  C   UNL     1     142.517 124.302  99.709  0.00  0.00    +0.000 C 
ATOM      9  C   UNL     1     142.145 126.850 102.492  0.00  0.00    +0.000 A 
ATOM     10  C   UNL     1     144.516 126.730  98.771  0.00  0.00    +0.000 C 
ATOM     11  C   UNL     1     140.518 125.286 100.850  0.00  0.00    +0.000 A 
ATOM     12  C   UNL     1     140.762 126.927 102.609  0.00  0.00    +0.000 A 
ATOM     13  C   UNL     1     139.949 126.142 101.794  0.00  0.00    +0.000 A 
ENDROOT
BRANCH   7  14
ATOM     14  C   UNL     1     144.356 123.539  98.216  0.00  0.00    +0.000 C 
ATOM     15  O   UNL     1     145.429 122.989  98.459  0.00  0.00    +0.000 OA
ATOM     16  N   UNL     1     143.618 123.380  97.071  0.00  0.00    +0.000 N 
ATOM     17  H   UNL     1     142.710 123.821  96.979  0.00  0.00    +0.000 HD
BRANCH  16  18
ATOM     18  C   UNL     1     143.952 122.588  95.972  0.00  0.00    +0.000 A 
ATOM     19  N   UNL     1     144.971 123.069  95.231  0.00  0.00    +0.000 NA
ATOM     20  C   UNL     1     145.340 122.338  94.154  0.00  0.00    +0.000 A 
ATOM     21  C   UNL     1     144.744 121.147  93.778  0.00  0.00    +0.000 A 
ATOM     22  C   UNL     1     143.700 120.679  94.563  0.00  0.00    +0.000 A 
ATOM     23  C   UNL     1     143.293 121.403  95.677  0.00  0.00    +0.000 A 
ENDBRANCH  16  18
ENDBRANCH   7  14
BRANCH   8  24
ATOM     24  O   UNL     1     141.679 123.273  99.313  0.00  0.00    +0.000 OA
ATOM     25  H   UNL     1     141.452 123.378  98.361  0.00  0.00    +0.000 HD
ENDBRANCH   8  24
TORSDOF 3
ENDMDL
MODEL 5
REMARK VINA RESULT:      -6.5      2.496      3.001
REMARK  Name = Piroxicam.pdbqt.pdb
REMARK  3 active torsions:
REMARK  status: ('A' for Active; 'I' for Inactive)
REMARK    1  A    between atoms: C_7  and  C_14
REMARK    2  A    between atoms: C_8  and  O_24
REMARK    3  A    between atoms: N_16  and  C_18
REMARK                            x       y       z     vdW  Elec       q    Type
REMARK                         _______ _______ _______ _____ _____    ______ ____
ROOT
ATOM      1  S   UNL     1     142.446 123.217  97.547  0.00  0.00    +0.000 S 
ATOM      2  O   UNL     1     142.670 121.908  98.133  0.00  0.00    +0.000 OA
ATOM      3  O   UNL     1     141.144 123.579  97.021  0.00  0.00    +0.000 OA
ATOM      4  N   UNL     1     143.002 124.415  98.652  0.00  0.00    +0.000 N 
ATOM      5  C   UNL     1     143.617 123.386  96.256  0.00  0.00    +0.000 A 
ATOM      6  C   UNL     1     144.915 123.751  96.609  0.00  0.00    +0.000 A 
ATOM      7  C   UNL     1     144.393 124.289  98.981  0.00  0.00    +0.000 C 
ATOM      8  C   UNL     1     145.291 123.971  98.019  0.00  0.00    +0.000 C 
ATOM      9  C   UNL     1     143.224 123.186  94.938  0.00  0.00    +0.000 A 
ATOM     10  C   UNL     1     142.608 125.817  98.428  0.00  0.00    +0.000 C 
ATOM     11  C   UNL     1     145.851 123.876  95.582  0.00  0.00    +0.000 A 
ATOM     12  C   UNL     1     144.171 123.330  93.931  0.00  0.00    +0.000 A 
ATOM     13  C   UNL     1     145.484 123.668  94.251  0.00  0.00    +0.000 A 
ENDROOT
BRANCH   7  14
ATOM     14  C   UNL     1     144.816 124.499 100.404  0.00  0.00    +0.000 C 
ATOM     15  O   UNL     1     144.345 123.782 101.285  0.00  0.00    +0.000 OA
ATOM     16  N   UNL     1     145.718 125.514 100.598  0.00  0.00    +0.000 N 
ATOM     17  H   UNL     1     146.106 126.015  99.807  0.00  0.00    +0.000 HD
BRANCH  16  18
ATOM     18  C   UNL     1     146.247 125.932 101.820  0.00  0.00    +0.000 A 
ATOM     19  N   UNL     1     147.481 125.455 102.082  0.00  0.00    +0.000 NA
ATOM     20  C   UNL     1     148.044 125.832 103.253  0.00  0.00    +0.000 A 
ATOM     21  C   UNL     1     147.440 126.665 104.177  0.00  0.00    +0.000 A 
ATOM     22  C   UNL     1     146.172 127.141 103.875  0.00  0.00    +0.000 A 
ATOM     23  C   UNL     1     145.560 126.774 102.682  0.00  0.00    +0.000 A 
ENDBRANCH  16  18
ENDBRANCH   7  14
BRANCH   8  24
ATOM     24  O   UNL     1     146.649 123.834  98.251  0.00  0.00    +0.000 OA
ATOM     25  H   UNL     1     146.799 123.556  99.183  0.00  0.00    +0.000 HD
ENDBRANCH   8  24
TORSDOF 3
ENDMDL
MODEL 6
REMARK VINA RESULT:      -6.4      3.943      4.614
REMARK  Name = Piroxicam.pdbqt.pdb
REMARK  3 active torsions:
REMARK  status: ('A' for Active; 'I' for Inactive)
REMARK    1  A    between atoms: C_7  and  C_14
REMARK    2  A    between atoms: C_8  and  O_24
REMARK    3  A    between atoms: N_16  and  C_18
REMARK                            x       y       z     vdW  Elec       q    Type
REMARK                         _______ _______ _______ _____ _____    ______ ____
ROOT
ATOM      1  S   UNL     1     147.089 128.234  96.349  0.00  0.00    +0.000 S 
ATOM      2  O   UNL     1     145.686 128.291  95.981  0.00  0.00    +0.000 OA
ATOM      3  O   UNL     1     148.026 129.222  95.849  0.00  0.00    +0.000 OA
ATOM      4  N   UNL     1     147.201 128.112  98.063  0.00  0.00    +0.000 N 
ATOM      5  C   UNL     1     147.661 126.652  95.865  0.00  0.00    +0.000 A 
ATOM      6  C   UNL     1     147.381 125.580  96.711  0.00  0.00    +0.000 A 
ATOM      7  C   UNL     1     146.536 126.960  98.600  0.00  0.00    +0.000 C 
ATOM      8  C   UNL     1     146.618 125.770  97.959  0.00  0.00    +0.000 C 
ATOM      9  C   UNL     1     148.392 126.512  94.691  0.00  0.00    +0.000 A 
ATOM     10  C   UNL     1     148.507 128.349  98.703  0.00  0.00    +0.000 C 
ATOM     11  C   UNL     1     147.829 124.317  96.321  0.00  0.00    +0.000 A 
ATOM     12  C   UNL     1     148.838 125.246  94.330  0.00  0.00    +0.000 A 
ATOM     13  C   UNL     1     148.553 124.149  95.139  0.00  0.00    +0.000 A 
ENDROOT
BRANCH   7  14
ATOM     14  C   UNL     1     145.744 127.112  99.864  0.00  0.00    +0.000 C 
ATOM     15  O   UNL     1     144.879 127.984  99.933  0.00  0.00    +0.000 OA
ATOM     16  N   UNL     1     146.074 126.235 100.866  0.00  0.00    +0.000 N 
ATOM     17  H   UNL     1     146.755 125.502 100.703  0.00  0.00    +0.000 HD
BRANCH  16  18
ATOM     18  C   UNL     1     145.513 126.183 102.142  0.00  0.00    +0.000 A 
ATOM     19  N   UNL     1     146.222 126.833 103.087  0.00  0.00    +0.000 NA
ATOM     20  C   UNL     1     145.720 126.818 104.343  0.00  0.00    +0.000 A 
ATOM     21  C   UNL     1     144.544 126.188 104.706  0.00  0.00    +0.000 A 
ATOM     22  C   UNL     1     143.837 125.530 103.710  0.00  0.00    +0.000 A 
ATOM     23  C   UNL     1     144.321 125.523 102.407  0.00  0.00    +0.000 A 
ENDBRANCH  16  18
ENDBRANCH   7  14
BRANCH   8  24
ATOM     24  O   UNL     1     146.010 124.611  98.410  0.00  0.00    +0.000 OA
ATOM     25  H   UNL     1     146.175 123.880  97.771  0.00  0.00    +0.000 HD
ENDBRANCH   8  24
TORSDOF 3
ENDMDL
MODEL 7
REMARK VINA RESULT:      -6.3     33.530     37.340
REMARK  Name = Piroxicam.pdbqt.pdb
REMARK  3 active torsions:
REMARK  status: ('A' for Active; 'I' for Inactive)
REMARK    1  A    between atoms: C_7  and  C_14
REMARK    2  A    between atoms: C_8  and  O_24
REMARK    3  A    between atoms: N_16  and  C_18
REMARK                            x       y       z     vdW  Elec       q    Type
REMARK                         _______ _______ _______ _____ _____    ______ ____
ROOT
ATOM      1  S   UNL     1     135.515 121.486 134.157  0.00  0.00    +0.000 S 
ATOM      2  O   UNL     1     135.934 120.112 134.360  0.00  0.00    +0.000 OA
ATOM      3  O   UNL     1     134.635 121.838 133.060  0.00  0.00    +0.000 OA
ATOM      4  N   UNL     1     134.895 122.096 135.644  0.00  0.00    +0.000 N 
ATOM      5  C   UNL     1     136.982 122.429 133.997  0.00  0.00    +0.000 A 
ATOM      6  C   UNL     1     137.646 122.790 135.168  0.00  0.00    +0.000 A 
ATOM      7  C   UNL     1     135.845 122.056 136.719  0.00  0.00    +0.000 C 
ATOM      8  C   UNL     1     137.140 122.378 136.492  0.00  0.00    +0.000 C 
ATOM      9  C   UNL     1     137.421 122.813 132.735  0.00  0.00    +0.000 A 
ATOM     10  C   UNL     1     134.128 123.353 135.625  0.00  0.00    +0.000 C 
ATOM     11  C   UNL     1     138.820 123.533 135.041  0.00  0.00    +0.000 A 
ATOM     12  C   UNL     1     138.586 123.565 132.635  0.00  0.00    +0.000 A 
ATOM     13  C   UNL     1     139.289 123.920 133.784  0.00  0.00    +0.000 A 
ENDROOT
BRANCH   7  14
ATOM     14  C   UNL     1     135.372 121.637 138.079  0.00  0.00    +0.000 C 
ATOM     15  O   UNL     1     134.941 120.497 138.242  0.00  0.00    +0.000 OA
ATOM     16  N   UNL     1     135.463 122.603 139.049  0.00  0.00    +0.000 N 
ATOM     17  H   UNL     1     135.893 123.498 138.845  0.00  0.00    +0.000 HD
BRANCH  16  18
ATOM     18  C   UNL     1     135.068 122.481 140.381  0.00  0.00    +0.000 A 
ATOM     19  N   UNL     1     133.755 122.703 140.593  0.00  0.00    +0.000 NA
ATOM     20  C   UNL     1     133.316 122.594 141.868  0.00  0.00    +0.000 A 
ATOM     21  C   UNL     1     134.122 122.272 142.946  0.00  0.00    +0.000 A 
ATOM     22  C   UNL     1     135.467 122.047 142.693  0.00  0.00    +0.000 A 
ATOM     23  C   UNL     1     135.955 122.151 141.396  0.00  0.00    +0.000 A 
ENDBRANCH  16  18
ENDBRANCH   7  14
BRANCH   8  24
ATOM     24  O   UNL     1     138.117 122.370 137.473  0.00  0.00    +0.000 OA
ATOM     25  H   UNL     1     137.975 121.603 138.075  0.00  0.00    +0.000 HD
ENDBRANCH   8  24
TORSDOF 3
ENDMDL
MODEL 8
REMARK VINA RESULT:      -6.2      3.454      6.558
REMARK  Name = Piroxicam.pdbqt.pdb
REMARK  3 active torsions:
REMARK  status: ('A' for Active; 'I' for Inactive)
REMARK    1  A    between atoms: C_7  and  C_14
REMARK    2  A    between atoms: C_8  and  O_24
REMARK    3  A    between atoms: N_16  and  C_18
REMARK                            x       y       z     vdW  Elec       q    Type
REMARK                         _______ _______ _______ _____ _____    ______ ____
ROOT
ATOM      1  S   UNL     1     142.060 124.939  98.795  0.00  0.00    +0.000 S 
ATOM      2  O   UNL     1     141.946 125.948  97.758  0.00  0.00    +0.000 OA
ATOM      3  O   UNL     1     141.240 123.744  98.760  0.00  0.00    +0.000 OA
ATOM      4  N   UNL     1     143.722 124.521  98.971  0.00  0.00    +0.000 N 
ATOM      5  C   UNL     1     141.761 125.756 100.314  0.00  0.00    +0.000 A 
ATOM      6  C   UNL     1     142.814 126.475 100.877  0.00  0.00    +0.000 A 
ATOM      7  C   UNL     1     144.559 125.635  99.316  0.00  0.00    +0.000 C 
ATOM      8  C   UNL     1     144.127 126.556 100.209  0.00  0.00    +0.000 C 
ATOM      9  C   UNL     1     140.516 125.645 100.923  0.00  0.00    +0.000 A 
ATOM     10  C   UNL     1     144.067 123.309  99.734  0.00  0.00    +0.000 C 
ATOM     11  C   UNL     1     142.572 127.135 102.083  0.00  0.00    +0.000 A 
ATOM     12  C   UNL     1     140.304 126.301 102.130  0.00  0.00    +0.000 A 
ATOM     13  C   UNL     1     141.327 127.049 102.707  0.00  0.00    +0.000 A 
ENDROOT
BRANCH   7  14
ATOM     14  C   UNL     1     145.900 125.757  98.655  0.00  0.00    +0.000 C 
ATOM     15  O   UNL     1     146.886 126.023  99.339  0.00  0.00    +0.000 OA
ATOM     16  N   UNL     1     145.898 125.560  97.298  0.00  0.00    +0.000 N 
ATOM     17  H   UNL     1     145.050 125.279  96.820  0.00  0.00    +0.000 HD
BRANCH  16  18
ATOM     18  C   UNL     1     147.000 125.644  96.446  0.00  0.00    +0.000 A 
ATOM     19  N   UNL     1     147.110 126.821  95.796  0.00  0.00    +0.000 NA
ATOM     20  C   UNL     1     148.164 126.958  94.959  0.00  0.00    +0.000 A 
ATOM     21  C   UNL     1     149.118 125.981  94.738  0.00  0.00    +0.000 A 
ATOM     22  C   UNL     1     148.977 124.783  95.425  0.00  0.00    +0.000 A 
ATOM     23  C   UNL     1     147.906 124.605  96.293  0.00  0.00    +0.000 A 
ENDBRANCH  16  18
ENDBRANCH   7  14
BRANCH   8  24
ATOM     24  O   UNL     1     144.872 127.656 100.599  0.00  0.00    +0.000 OA
ATOM     25  H   UNL     1     144.514 128.016 101.442  0.00  0.00    +0.000 HD
ENDBRANCH   8  24
TORSDOF 3
ENDMDL
MODEL 9
REMARK VINA RESULT:      -6.2     38.198     40.009
REMARK  Name = Piroxicam.pdbqt.pdb
REMARK  3 active torsions:
REMARK  status: ('A' for Active; 'I' for Inactive)
REMARK    1  A    between atoms: C_7  and  C_14
REMARK    2  A    between atoms: C_8  and  O_24
REMARK    3  A    between atoms: N_16  and  C_18
REMARK                            x       y       z     vdW  Elec       q    Type
REMARK                         _______ _______ _______ _____ _____    ______ ____
ROOT
ATOM      1  S   UNL     1     153.929 130.451 139.067  0.00  0.00    +0.000 S 
ATOM      2  O   UNL     1     153.553 130.713 140.444  0.00  0.00    +0.000 OA
ATOM      3  O   UNL     1     155.286 130.681 138.614  0.00  0.00    +0.000 OA
ATOM      4  N   UNL     1     153.419 128.858 138.654  0.00  0.00    +0.000 N 
ATOM      5  C   UNL     1     152.856 131.412 138.072  0.00  0.00    +0.000 A 
ATOM      6  C   UNL     1     151.578 130.910 137.833  0.00  0.00    +0.000 A 
ATOM      7  C   UNL     1     152.005 128.656 138.793  0.00  0.00    +0.000 C 
ATOM      8  C   UNL     1     151.140 129.625 138.411  0.00  0.00    +0.000 C 
ATOM      9  C   UNL     1     153.306 132.611 137.530  0.00  0.00    +0.000 A 
ATOM     10  C   UNL     1     153.950 128.245 137.424  0.00  0.00    +0.000 C 
ATOM     11  C   UNL     1     150.719 131.681 137.047  0.00  0.00    +0.000 A 
ATOM     12  C   UNL     1     152.437 133.354 136.740  0.00  0.00    +0.000 A 
ATOM     13  C   UNL     1     151.143 132.894 136.504  0.00  0.00    +0.000 A 
ENDROOT
BRANCH   7  14
ATOM     14  C   UNL     1     151.519 127.365 139.381  0.00  0.00    +0.000 C 
ATOM     15  O   UNL     1     150.787 126.636 138.714  0.00  0.00    +0.000 OA
ATOM     16  N   UNL     1     151.948 127.111 140.659  0.00  0.00    +0.000 N 
ATOM     17  H   UNL     1     152.605 127.735 141.114  0.00  0.00    +0.000 HD
BRANCH  16  18
ATOM     18  C   UNL     1     151.620 126.002 141.440  0.00  0.00    +0.000 A 
ATOM     19  N   UNL     1     152.393 124.920 141.219  0.00  0.00    +0.000 NA
ATOM     20  C   UNL     1     152.122 123.816 141.953  0.00  0.00    +0.000 A 
ATOM     21  C   UNL     1     151.117 123.737 142.900  0.00  0.00    +0.000 A 
ATOM     22  C   UNL     1     150.342 124.869 143.106  0.00  0.00    +0.000 A 
ATOM     23  C   UNL     1     150.590 126.022 142.370  0.00  0.00    +0.000 A 
ENDBRANCH  16  18
ENDBRANCH   7  14
BRANCH   8  24
ATOM     24  O   UNL     1     149.764 129.509 138.508  0.00  0.00    +0.000 OA
ATOM     25  H   UNL     1     149.340 130.349 138.219  0.00  0.00    +0.000 HD
ENDBRANCH   8  24
TORSDOF 3
ENDMDL
