MODEL 1
REMARK VINA RESULT:      -7.1      0.000      0.000
REMARK  Name = PKR_Inhibitor.pdbqt.pdb
REMARK  0 active torsions:
REMARK  status: ('A' for Active; 'I' for Inactive)
REMARK                            x       y       z     vdW  Elec       q    Type
REMARK                         _______ _______ _______ _____ _____    ______ ____
ROOT
ATOM      1  S   UNL     1     142.184 126.463 102.123  0.00  0.00    +0.000 S 
ATOM      2  O   UNL     1     146.020 122.860  99.730  0.00  0.00    +0.000 OA
ATOM      3  N   UNL     1     143.739 122.851  99.183  0.00  0.00    +0.000 N 
ATOM      4  N   UNL     1     139.781 126.078 101.201  0.00  0.00    +0.000 NA
ATOM      5  C   UNL     1     142.952 124.520 100.525  0.00  0.00    +0.000 A 
ATOM      6  C   UNL     1     142.601 123.550  99.553  0.00  0.00    +0.000 A 
ATOM      7  C   UNL     1     144.419 124.387 100.751  0.00  0.00    +0.000 C 
ATOM      8  C   UNL     1     141.926 125.279 100.978  0.00  0.00    +0.000 A 
ATOM      9  C   UNL     1     144.887 123.282  99.849  0.00  0.00    +0.000 C 
ATOM     10  C   UNL     1     140.614 125.171 100.568  0.00  0.00    +0.000 A 
ATOM     11  C   UNL     1     141.315 123.345  99.061  0.00  0.00    +0.000 A 
ATOM     12  C   UNL     1     145.207 125.045 101.540  0.00  0.00    +0.000 C 
ATOM     13  C   UNL     1     140.313 124.188  99.595  0.00  0.00    +0.000 A 
ATOM     14  C   UNL     1     140.505 126.799 102.033  0.00  0.00    +0.000 A 
ATOM     15  H   UNL     1     143.763 122.104  98.503  0.00  0.00    +0.000 HD
ATOM     16  C   UNL     1     146.133 125.715 102.374  0.00  0.00    +0.000 C 
ATOM     17  N   UNL     1     147.470 125.443 102.439  0.00  0.00    +0.000 N 
ATOM     18  C   UNL     1     148.022 126.297 103.353  0.00  0.00    +0.000 C 
ATOM     19  H   UNL     1     147.968 124.739 101.911  0.00  0.00    +0.000 HD
ATOM     20  N   UNL     1     147.116 127.095 103.872  0.00  0.00    +0.000 NA
ATOM     21  C   UNL     1     145.933 126.741 103.269  0.00  0.00    +0.000 C 
ENDROOT
TORSDOF 0
ENDMDL
MODEL 2
REMARK VINA RESULT:      -6.9      1.797      5.107
REMARK  Name = PKR_Inhibitor.pdbqt.pdb
REMARK  0 active torsions:
REMARK  status: ('A' for Active; 'I' for Inactive)
REMARK                            x       y       z     vdW  Elec       q    Type
REMARK                         _______ _______ _______ _____ _____    ______ ____
ROOT
ATOM      1  S   UNL     1     141.234 125.693 100.814  0.00  0.00    +0.000 S 
ATOM      2  O   UNL     1     146.427 123.386  99.747  0.00  0.00    +0.000 OA
ATOM      3  N   UNL     1     146.027 124.883 101.508  0.00  0.00    +0.000 N 
ATOM      4  N   UNL     1     141.283 127.291 102.867  0.00  0.00    +0.000 NA
ATOM      5  C   UNL     1     143.800 125.302 101.241  0.00  0.00    +0.000 A 
ATOM      6  C   UNL     1     144.949 125.589 102.019  0.00  0.00    +0.000 A 
ATOM      7  C   UNL     1     144.231 124.348 100.180  0.00  0.00    +0.000 C 
ATOM      8  C   UNL     1     142.667 125.931 101.633  0.00  0.00    +0.000 A 
ATOM      9  C   UNL     1     145.695 124.105 100.399  0.00  0.00    +0.000 C 
ATOM     10  C   UNL     1     142.566 126.798 102.700  0.00  0.00    +0.000 A 
ATOM     11  C   UNL     1     144.973 126.445 103.118  0.00  0.00    +0.000 A 
ATOM     12  C   UNL     1     143.551 123.792  99.228  0.00  0.00    +0.000 C 
ATOM     13  C   UNL     1     143.740 127.052 103.447  0.00  0.00    +0.000 A 
ATOM     14  C   UNL     1     140.512 126.775 101.931  0.00  0.00    +0.000 A 
ATOM     15  H   UNL     1     146.966 124.911 101.883  0.00  0.00    +0.000 HD
ATOM     16  C   UNL     1     142.879 123.146  98.163  0.00  0.00    +0.000 C 
ATOM     17  N   UNL     1     143.461 122.284  97.277  0.00  0.00    +0.000 N 
ATOM     18  C   UNL     1     142.493 121.872  96.404  0.00  0.00    +0.000 C 
ATOM     19  H   UNL     1     144.430 121.998  97.264  0.00  0.00    +0.000 HD
ATOM     20  N   UNL     1     141.331 122.422  96.683  0.00  0.00    +0.000 NA
ATOM     21  C   UNL     1     141.560 123.219  97.778  0.00  0.00    +0.000 C 
ENDROOT
TORSDOF 0
ENDMDL
MODEL 3
REMARK VINA RESULT:      -6.8      4.095      4.925
REMARK  Name = PKR_Inhibitor.pdbqt.pdb
REMARK  0 active torsions:
REMARK  status: ('A' for Active; 'I' for Inactive)
REMARK                            x       y       z     vdW  Elec       q    Type
REMARK                         _______ _______ _______ _____ _____    ______ ____
ROOT
ATOM      1  S   UNL     1     145.218 127.102 102.226  0.00  0.00    +0.000 S 
ATOM      2  O   UNL     1     142.596 129.102  97.477  0.00  0.00    +0.000 OA
ATOM      3  N   UNL     1     141.429 128.216  99.309  0.00  0.00    +0.000 N 
ATOM      4  N   UNL     1     143.512 126.223 103.982  0.00  0.00    +0.000 NA
ATOM      5  C   UNL     1     143.145 127.675 100.712  0.00  0.00    +0.000 A 
ATOM      6  C   UNL     1     141.737 127.675 100.548  0.00  0.00    +0.000 A 
ATOM      7  C   UNL     1     143.720 128.264  99.470  0.00  0.00    +0.000 C 
ATOM      8  C   UNL     1     143.587 127.168 101.888  0.00  0.00    +0.000 A 
ATOM      9  C   UNL     1     142.557 128.601  98.584  0.00  0.00    +0.000 C 
ATOM     10  C   UNL     1     142.785 126.674 102.894  0.00  0.00    +0.000 A 
ATOM     11  C   UNL     1     140.825 127.204 101.488  0.00  0.00    +0.000 A 
ATOM     12  C   UNL     1     144.953 128.477  99.139  0.00  0.00    +0.000 C 
ATOM     13  C   UNL     1     141.386 126.696 102.683  0.00  0.00    +0.000 A 
ATOM     14  C   UNL     1     144.793 126.402 103.732  0.00  0.00    +0.000 A 
ATOM     15  H   UNL     1     140.492 128.331  98.946  0.00  0.00    +0.000 HD
ATOM     16  C   UNL     1     146.273 128.742  98.703  0.00  0.00    +0.000 C 
ATOM     17  N   UNL     1     146.605 129.302  97.501  0.00  0.00    +0.000 N 
ATOM     18  C   UNL     1     147.968 129.395  97.450  0.00  0.00    +0.000 C 
ATOM     19  H   UNL     1     145.964 129.595  96.776  0.00  0.00    +0.000 HD
ATOM     20  N   UNL     1     148.521 128.929  98.547  0.00  0.00    +0.000 NA
ATOM     21  C   UNL     1     147.474 128.518  99.336  0.00  0.00    +0.000 C 
ENDROOT
TORSDOF 0
ENDMDL
MODEL 4
REMARK VINA RESULT:      -6.8      3.804      4.797
REMARK  Name = PKR_Inhibitor.pdbqt.pdb
REMARK  0 active torsions:
REMARK  status: ('A' for Active; 'I' for Inactive)
REMARK                            x       y       z     vdW  Elec       q    Type
REMARK                         _______ _______ _______ _____ _____    ______ ____
ROOT
ATOM      1  S   UNL     1     145.840 127.968  99.745  0.00  0.00    +0.000 S 
ATOM      2  O   UNL     1     141.069 127.251 102.932  0.00  0.00    +0.000 OA
ATOM      3  N   UNL     1     141.021 127.923 100.685  0.00  0.00    +0.000 N 
ATOM      4  N   UNL     1     145.285 128.718  97.317  0.00  0.00    +0.000 NA
ATOM      5  C   UNL     1     143.247 127.964 100.183  0.00  0.00    +0.000 A 
ATOM      6  C   UNL     1     141.940 128.179  99.678  0.00  0.00    +0.000 A 
ATOM      7  C   UNL     1     143.092 127.548 101.606  0.00  0.00    +0.000 C 
ATOM      8  C   UNL     1     144.248 128.179  99.297  0.00  0.00    +0.000 A 
ATOM      9  C   UNL     1     141.618 127.536 101.885  0.00  0.00    +0.000 C 
ATOM     10  C   UNL     1     144.082 128.577  97.988  0.00  0.00    +0.000 A 
ATOM     11  C   UNL     1     141.644 128.580  98.378  0.00  0.00    +0.000 A 
ATOM     12  C   UNL     1     143.987 127.240 102.489  0.00  0.00    +0.000 C 
ATOM     13  C   UNL     1     142.758 128.778  97.531  0.00  0.00    +0.000 A 
ATOM     14  C   UNL     1     146.263 128.423  98.148  0.00  0.00    +0.000 A 
ATOM     15  H   UNL     1     140.018 128.002 100.585  0.00  0.00    +0.000 HD
ATOM     16  C   UNL     1     144.902 126.891 103.511  0.00  0.00    +0.000 C 
ATOM     17  N   UNL     1     144.557 126.527 104.782  0.00  0.00    +0.000 N 
ATOM     18  C   UNL     1     145.712 126.268 105.466  0.00  0.00    +0.000 C 
ATOM     19  H   UNL     1     143.620 126.461 105.156  0.00  0.00    +0.000 HD
ATOM     20  N   UNL     1     146.769 126.445 104.705  0.00  0.00    +0.000 NA
ATOM     21  C   UNL     1     146.276 126.834 103.483  0.00  0.00    +0.000 C 
ENDROOT
TORSDOF 0
ENDMDL
MODEL 5
REMARK VINA RESULT:      -6.7      4.284      5.589
REMARK  Name = PKR_Inhibitor.pdbqt.pdb
REMARK  0 active torsions:
REMARK  status: ('A' for Active; 'I' for Inactive)
REMARK                            x       y       z     vdW  Elec       q    Type
REMARK                         _______ _______ _______ _____ _____    ______ ____
ROOT
ATOM      1  S   UNL     1     144.235 126.257  96.607  0.00  0.00    +0.000 S 
ATOM      2  O   UNL     1     140.531 125.343 100.951  0.00  0.00    +0.000 OA
ATOM      3  N   UNL     1     141.504 123.607  99.709  0.00  0.00    +0.000 N 
ATOM      4  N   UNL     1     145.045 124.030  95.534  0.00  0.00    +0.000 NA
ATOM      5  C   UNL     1     142.796 124.780  98.238  0.00  0.00    +0.000 A 
ATOM      6  C   UNL     1     142.392 123.485  98.651  0.00  0.00    +0.000 A 
ATOM      7  C   UNL     1     142.090 125.749  99.123  0.00  0.00    +0.000 C 
ATOM      8  C   UNL     1     143.669 124.807  97.204  0.00  0.00    +0.000 A 
ATOM      9  C   UNL     1     141.259 124.932 100.068  0.00  0.00    +0.000 C 
ATOM     10  C   UNL     1     144.170 123.699  96.555  0.00  0.00    +0.000 A 
ATOM     11  C   UNL     1     142.826 122.294  98.076  0.00  0.00    +0.000 A 
ATOM     12  C   UNL     1     142.129 127.043  99.144  0.00  0.00    +0.000 C 
ATOM     13  C   UNL     1     143.737 122.429  97.003  0.00  0.00    +0.000 A 
ATOM     14  C   UNL     1     145.147 125.342  95.480  0.00  0.00    +0.000 A 
ATOM     15  H   UNL     1     141.067 122.831 100.188  0.00  0.00    +0.000 HD
ATOM     16  C   UNL     1     142.115 128.456  99.231  0.00  0.00    +0.000 C 
ATOM     17  N   UNL     1     141.386 129.179 100.134  0.00  0.00    +0.000 N 
ATOM     18  C   UNL     1     141.637 130.503  99.902  0.00  0.00    +0.000 C 
ATOM     19  H   UNL     1     140.771 128.809 100.846  0.00  0.00    +0.000 HD
ATOM     20  N   UNL     1     142.482 130.663  98.908  0.00  0.00    +0.000 NA
ATOM     21  C   UNL     1     142.786 129.393  98.481  0.00  0.00    +0.000 C 
ENDROOT
TORSDOF 0
ENDMDL
MODEL 6
REMARK VINA RESULT:      -6.6      2.952      3.953
REMARK  Name = PKR_Inhibitor.pdbqt.pdb
REMARK  0 active torsions:
REMARK  status: ('A' for Active; 'I' for Inactive)
REMARK                            x       y       z     vdW  Elec       q    Type
REMARK                         _______ _______ _______ _____ _____    ______ ____
ROOT
ATOM      1  S   UNL     1     142.729 124.395  98.746  0.00  0.00    +0.000 S 
ATOM      2  O   UNL     1     143.240 128.406 102.878  0.00  0.00    +0.000 OA
ATOM      3  N   UNL     1     141.278 127.168 102.529  0.00  0.00    +0.000 N 
ATOM      4  N   UNL     1     140.373 123.291  98.748  0.00  0.00    +0.000 NA
ATOM      5  C   UNL     1     141.890 125.849 100.771  0.00  0.00    +0.000 A 
ATOM      6  C   UNL     1     140.841 126.175 101.666  0.00  0.00    +0.000 A 
ATOM      7  C   UNL     1     143.044 126.720 101.130  0.00  0.00    +0.000 C 
ATOM      8  C   UNL     1     141.595 124.885  99.866  0.00  0.00    +0.000 A 
ATOM      9  C   UNL     1     142.594 127.563 102.286  0.00  0.00    +0.000 C 
ATOM     10  C   UNL     1     140.388 124.228  99.767  0.00  0.00    +0.000 A 
ATOM     11  C   UNL     1     139.581 125.583 101.666  0.00  0.00    +0.000 A 
ATOM     12  C   UNL     1     144.227 126.798 100.609  0.00  0.00    +0.000 C 
ATOM     13  C   UNL     1     139.372 124.588 100.684  0.00  0.00    +0.000 A 
ATOM     14  C   UNL     1     141.549 123.300  98.154  0.00  0.00    +0.000 A 
ATOM     15  H   UNL     1     140.722 127.579 103.266  0.00  0.00    +0.000 HD
ATOM     16  C   UNL     1     145.537 126.945 100.095  0.00  0.00    +0.000 C 
ATOM     17  N   UNL     1     146.474 127.819 100.574  0.00  0.00    +0.000 N 
ATOM     18  C   UNL     1     147.605 127.665  99.822  0.00  0.00    +0.000 C 
ATOM     19  H   UNL     1     146.358 128.465 101.342  0.00  0.00    +0.000 HD
ATOM     20  N   UNL     1     147.444 126.746  98.896  0.00  0.00    +0.000 NA
ATOM     21  C   UNL     1     146.157 126.291  99.057  0.00  0.00    +0.000 C 
ENDROOT
TORSDOF 0
ENDMDL
MODEL 7
REMARK VINA RESULT:      -6.5      2.866      6.351
REMARK  Name = PKR_Inhibitor.pdbqt.pdb
REMARK  0 active torsions:
REMARK  status: ('A' for Active; 'I' for Inactive)
REMARK                            x       y       z     vdW  Elec       q    Type
REMARK                         _______ _______ _______ _____ _____    ______ ____
ROOT
ATOM      1  S   UNL     1     144.364 124.763  98.610  0.00  0.00    +0.000 S 
ATOM      2  O   UNL     1     142.496 127.671 103.245  0.00  0.00    +0.000 OA
ATOM      3  N   UNL     1     144.690 127.831 102.429  0.00  0.00    +0.000 N 
ATOM      4  N   UNL     1     146.864 125.262  98.091  0.00  0.00    +0.000 NA
ATOM      5  C   UNL     1     144.605 126.418 100.639  0.00  0.00    +0.000 A 
ATOM      6  C   UNL     1     145.431 127.293 101.388  0.00  0.00    +0.000 A 
ATOM      7  C   UNL     1     143.264 126.437 101.289  0.00  0.00    +0.000 C 
ATOM      8  C   UNL     1     145.208 125.819  99.585  0.00  0.00    +0.000 A 
ATOM      9  C   UNL     1     143.372 127.376 102.454  0.00  0.00    +0.000 C 
ATOM     10  C   UNL     1     146.521 126.002  99.209  0.00  0.00    +0.000 A 
ATOM     11  C   UNL     1     146.769 127.559 101.109  0.00  0.00    +0.000 A 
ATOM     12  C   UNL     1     142.176 125.807 100.980  0.00  0.00    +0.000 C 
ATOM     13  C   UNL     1     147.305 126.886  99.987  0.00  0.00    +0.000 A 
ATOM     14  C   UNL     1     145.806 124.580  97.701  0.00  0.00    +0.000 A 
ATOM     15  H   UNL     1     145.045 128.487 103.112  0.00  0.00    +0.000 HD
ATOM     16  C   UNL     1     140.949 125.155 100.709  0.00  0.00    +0.000 C 
ATOM     17  N   UNL     1     139.803 125.307 101.437  0.00  0.00    +0.000 N 
ATOM     18  C   UNL     1     138.843 124.519 100.866  0.00  0.00    +0.000 C 
ATOM     19  H   UNL     1     139.680 125.893 102.252  0.00  0.00    +0.000 HD
ATOM     20  N   UNL     1     139.311 123.876  99.819  0.00  0.00    +0.000 NA
ATOM     21  C   UNL     1     140.624 124.265  99.712  0.00  0.00    +0.000 C 
ENDROOT
TORSDOF 0
ENDMDL
MODEL 8
REMARK VINA RESULT:      -6.4      3.171      6.213
REMARK  Name = PKR_Inhibitor.pdbqt.pdb
REMARK  0 active torsions:
REMARK  status: ('A' for Active; 'I' for Inactive)
REMARK                            x       y       z     vdW  Elec       q    Type
REMARK                         _______ _______ _______ _____ _____    ______ ____
ROOT
ATOM      1  S   UNL     1     144.472 127.746  97.835  0.00  0.00    +0.000 S 
ATOM      2  O   UNL     1     143.984 123.575 101.809  0.00  0.00    +0.000 OA
ATOM      3  N   UNL     1     145.609 125.263 101.916  0.00  0.00    +0.000 N 
ATOM      4  N   UNL     1     146.417 129.386  98.380  0.00  0.00    +0.000 NA
ATOM      5  C   UNL     1     145.132 126.462 100.033  0.00  0.00    +0.000 A 
ATOM      6  C   UNL     1     145.984 126.365 101.162  0.00  0.00    +0.000 A 
ATOM      7  C   UNL     1     144.174 125.324 100.123  0.00  0.00    +0.000 C 
ATOM      8  C   UNL     1     145.390 127.502  99.205  0.00  0.00    +0.000 A 
ATOM      9  C   UNL     1     144.527 124.571 101.372  0.00  0.00    +0.000 C 
ATOM     10  C   UNL     1     146.389 128.435  99.386  0.00  0.00    +0.000 A 
ATOM     11  C   UNL     1     147.025 127.243 101.452  0.00  0.00    +0.000 A 
ATOM     12  C   UNL     1     143.205 124.982  99.335  0.00  0.00    +0.000 C 
ATOM     13  C   UNL     1     147.212 128.296 100.528  0.00  0.00    +0.000 A 
ATOM     14  C   UNL     1     145.456 129.115  97.521  0.00  0.00    +0.000 A 
ATOM     15  H   UNL     1     146.057 124.971 102.774  0.00  0.00    +0.000 HD
ATOM     16  C   UNL     1     142.132 124.543  98.524  0.00  0.00    +0.000 C 
ATOM     17  N   UNL     1     141.351 123.451  98.782  0.00  0.00    +0.000 N 
ATOM     18  C   UNL     1     140.429 123.355  97.777  0.00  0.00    +0.000 C 
ATOM     19  H   UNL     1     141.434 122.823  99.570  0.00  0.00    +0.000 HD
ATOM     20  N   UNL     1     140.578 124.321  96.897  0.00  0.00    +0.000 NA
ATOM     21  C   UNL     1     141.637 125.068  97.353  0.00  0.00    +0.000 C 
ENDROOT
TORSDOF 0
ENDMDL
MODEL 9
REMARK VINA RESULT:      -6.3      3.961      5.298
REMARK  Name = PKR_Inhibitor.pdbqt.pdb
REMARK  0 active torsions:
REMARK  status: ('A' for Active; 'I' for Inactive)
REMARK                            x       y       z     vdW  Elec       q    Type
REMARK                         _______ _______ _______ _____ _____    ______ ____
ROOT
ATOM      1  S   UNL     1     147.175 128.671  99.060  0.00  0.00    +0.000 S 
ATOM      2  O   UNL     1     145.714 123.188 100.170  0.00  0.00    +0.000 OA
ATOM      3  N   UNL     1     146.467 123.914  98.070  0.00  0.00    +0.000 N 
ATOM      4  N   UNL     1     147.948 128.992  96.597  0.00  0.00    +0.000 NA
ATOM      5  C   UNL     1     146.817 126.134  98.465  0.00  0.00    +0.000 A 
ATOM      6  C   UNL     1     146.881 125.105  97.492  0.00  0.00    +0.000 A 
ATOM      7  C   UNL     1     146.325 125.504  99.722  0.00  0.00    +0.000 C 
ATOM      8  C   UNL     1     147.197 127.360  98.031  0.00  0.00    +0.000 A 
ATOM      9  C   UNL     1     146.111 124.052  99.412  0.00  0.00    +0.000 C 
ATOM     10  C   UNL     1     147.625 127.655  96.754  0.00  0.00    +0.000 A 
ATOM     11  C   UNL     1     147.295 125.278  96.174  0.00  0.00    +0.000 A 
ATOM     12  C   UNL     1     146.100 126.025 100.886  0.00  0.00    +0.000 C 
ATOM     13  C   UNL     1     147.672 126.594  95.820  0.00  0.00    +0.000 A 
ATOM     14  C   UNL     1     147.748 129.608  97.744  0.00  0.00    +0.000 A 
ATOM     15  H   UNL     1     146.420 123.026  97.590  0.00  0.00    +0.000 HD
ATOM     16  C   UNL     1     145.830 126.517 102.185  0.00  0.00    +0.000 C 
ATOM     17  N   UNL     1     145.375 125.763 103.230  0.00  0.00    +0.000 N 
ATOM     18  C   UNL     1     145.237 126.591 104.309  0.00  0.00    +0.000 C 
ATOM     19  H   UNL     1     145.173 124.772 103.216  0.00  0.00    +0.000 HD
ATOM     20  N   UNL     1     145.578 127.826 104.012  0.00  0.00    +0.000 NA
ATOM     21  C   UNL     1     145.949 127.791 102.689  0.00  0.00    +0.000 C 
ENDROOT
TORSDOF 0
ENDMDL
