MODEL 1
REMARK VINA RESULT:      -8.9      0.000      0.000
REMARK  Name = 
REMARK  14 active torsions:
REMARK  status: ('A' for Active; 'I' for Inactive)
REMARK    1  A    between atoms: O_1  and  C_14
REMARK    2  A    between atoms: O_1  and  C_15
REMARK    3  A    between atoms: O_4  and  C_16
REMARK    4  A    between atoms: O_5  and  C_18
REMARK    5  A    between atoms: O_6  and  C_26
REMARK    6  A    between atoms: O_7  and  C_29
REMARK    7  A    between atoms: O_8  and  C_35
REMARK    8  A    between atoms: O_9  and  C_36
REMARK    9  A    between atoms: O_10  and  C_39
REMARK   10  A    between atoms: O_11  and  C_40
REMARK   11  A    between atoms: O_12  and  C_41
REMARK   12  A    between atoms: O_13  and  C_43
REMARK   13  A    between atoms: C_14  and  C_20
REMARK   14  A    between atoms: C_17  and  C_24
REMARK                            x       y       z     vdW  Elec       q    Type
REMARK                         _______ _______ _______ _____ _____    ______ ____
ROOT
ATOM      1  O   UNL     1     146.540 127.505  98.608  0.00  0.00    +0.000 OA
ATOM      2  C   UNL     1     145.488 126.625  98.189  0.00  0.00    +0.000 C 
ATOM      3  C   UNL     1     145.882 125.857  96.890  0.00  0.00    +0.000 C 
ATOM      4  C   UNL     1     146.271 126.837  95.788  0.00  0.00    +0.000 C 
ATOM      5  C   UNL     1     147.229 127.874  96.293  0.00  0.00    +0.000 A 
ATOM      6  C   UNL     1     147.291 128.145  97.663  0.00  0.00    +0.000 A 
ATOM      7  C   UNL     1     148.047 128.621  95.432  0.00  0.00    +0.000 A 
ATOM      8  C   UNL     1     148.159 129.123  98.155  0.00  0.00    +0.000 A 
ATOM      9  C   UNL     1     148.900 129.611  95.911  0.00  0.00    +0.000 A 
ATOM     10  C   UNL     1     148.952 129.851  97.276  0.00  0.00    +0.000 A 
ENDROOT
BRANCH   2  11
ATOM     11  C   UNL     1     144.136 127.344  98.016  0.00  0.00    +0.000 A 
ATOM     12  C   UNL     1     143.936 128.637  98.548  0.00  0.00    +0.000 A 
ATOM     13  C   UNL     1     143.070 126.745  97.312  0.00  0.00    +0.000 A 
ATOM     14  C   UNL     1     142.714 129.282  98.386  0.00  0.00    +0.000 A 
ATOM     15  C   UNL     1     141.841 127.395  97.167  0.00  0.00    +0.000 A 
ATOM     16  C   UNL     1     141.673 128.655  97.712  0.00  0.00    +0.000 A 
BRANCH  14  17
ATOM     17  O   UNL     1     142.479 130.540  98.865  0.00  0.00    +0.000 OA
ATOM     18  H   UNL     1     141.523 130.651  99.039  0.00  0.00    +0.000 HD
ENDBRANCH  14  17
BRANCH  16  19
ATOM     19  O   UNL     1     140.474 129.292  97.567  0.00  0.00    +0.000 OA
ATOM     20  H   UNL     1     140.151 129.006  96.688  0.00  0.00    +0.000 HD
ENDBRANCH  16  19
ENDBRANCH   2  11
BRANCH   3  21
ATOM     21  O   UNL     1     146.998 124.948  97.110  0.00  0.00    +0.000 OA
ATOM     22  H   UNL     1     146.598 124.055  97.108  0.00  0.00    +0.000 HD
ENDBRANCH   3  21
BRANCH   4  23
ATOM     23  O   UNL     1     146.877 126.118  94.699  0.00  0.00    +0.000 OA
ATOM     24  H   UNL     1     146.607 126.623  93.900  0.00  0.00    +0.000 HD
ENDBRANCH   4  23
BRANCH   7  25
ATOM     25  O   UNL     1     148.058 128.399  94.081  0.00  0.00    +0.000 OA
ATOM     26  H   UNL     1     148.888 127.915  93.874  0.00  0.00    +0.000 HD
ENDBRANCH   7  25
BRANCH  10  27
ATOM     27  O   UNL     1     149.777 130.803  97.800  0.00  0.00    +0.000 OA
ATOM     28  H   UNL     1     149.445 131.045  98.681  0.00  0.00    +0.000 HD
ENDBRANCH  10  27
BRANCH   2  29
ATOM     29  O   UNL     1     145.365 125.561  99.175  0.00  0.00    +0.000 OA
BRANCH  29  31
ATOM     30  O   UNL     1     143.373 125.014 102.251  0.00  0.00    +0.000 OA
ATOM     31  C   UNL     1     144.821 125.919 100.461  0.00  0.00    +0.000 C 
ATOM     32  C   UNL     1     144.013 124.713 101.003  0.00  0.00    +0.000 C 
ATOM     33  C   UNL     1     145.925 126.228 101.477  0.00  0.00    +0.000 C 
ATOM     34  C   UNL     1     145.443 126.123 102.898  0.00  0.00    +0.000 A 
ATOM     35  C   UNL     1     144.211 125.533 103.199  0.00  0.00    +0.000 A 
ATOM     36  C   UNL     1     146.225 126.609 103.953  0.00  0.00    +0.000 A 
ATOM     37  C   UNL     1     143.750 125.472 104.516  0.00  0.00    +0.000 A 
ATOM     38  C   UNL     1     145.783 126.539 105.272  0.00  0.00    +0.000 A 
ATOM     39  C   UNL     1     144.543 125.975 105.541  0.00  0.00    +0.000 A 
BRANCH  32  40
ATOM     40  C   UNL     1     142.928 124.292 100.022  0.00  0.00    +0.000 A 
ATOM     41  C   UNL     1     143.191 123.350  99.015  0.00  0.00    +0.000 A 
ATOM     42  C   UNL     1     141.619 124.786 100.168  0.00  0.00    +0.000 A 
ATOM     43  C   UNL     1     142.153 122.883  98.211  0.00  0.00    +0.000 A 
ATOM     44  C   UNL     1     140.587 124.328  99.346  0.00  0.00    +0.000 A 
ATOM     45  C   UNL     1     140.856 123.364  98.380  0.00  0.00    +0.000 A 
BRANCH  43  46
ATOM     46  O   UNL     1     142.384 121.897  97.295  0.00  0.00    +0.000 OA
ATOM     47  H   UNL     1     143.341 121.746  97.224  0.00  0.00    +0.000 HD
ENDBRANCH  43  46
BRANCH  45  48
ATOM     48  O   UNL     1     139.851 122.856  97.608  0.00  0.00    +0.000 OA
ATOM     49  H   UNL     1     140.233 122.465  96.806  0.00  0.00    +0.000 HD
ENDBRANCH  45  48
ENDBRANCH  32  40
BRANCH  36  50
ATOM     50  O   UNL     1     147.440 127.163 103.664  0.00  0.00    +0.000 OA
ATOM     51  H   UNL     1     147.945 127.264 104.489  0.00  0.00    +0.000 HD
ENDBRANCH  36  50
BRANCH  39  52
ATOM     52  O   UNL     1     144.136 125.929 106.842  0.00  0.00    +0.000 OA
ATOM     53  H   UNL     1     143.201 126.193 106.886  0.00  0.00    +0.000 HD
ENDBRANCH  39  52
ENDBRANCH  29  31
ENDBRANCH   2  29
TORSDOF 14
ENDMDL
MODEL 2
REMARK VINA RESULT:      -8.5      2.716      8.227
REMARK  Name = 
REMARK  14 active torsions:
REMARK  status: ('A' for Active; 'I' for Inactive)
REMARK    1  A    between atoms: O_1  and  C_14
REMARK    2  A    between atoms: O_1  and  C_15
REMARK    3  A    between atoms: O_4  and  C_16
REMARK    4  A    between atoms: O_5  and  C_18
REMARK    5  A    between atoms: O_6  and  C_26
REMARK    6  A    between atoms: O_7  and  C_29
REMARK    7  A    between atoms: O_8  and  C_35
REMARK    8  A    between atoms: O_9  and  C_36
REMARK    9  A    between atoms: O_10  and  C_39
REMARK   10  A    between atoms: O_11  and  C_40
REMARK   11  A    between atoms: O_12  and  C_41
REMARK   12  A    between atoms: O_13  and  C_43
REMARK   13  A    between atoms: C_14  and  C_20
REMARK   14  A    between atoms: C_17  and  C_24
REMARK                            x       y       z     vdW  Elec       q    Type
REMARK                         _______ _______ _______ _____ _____    ______ ____
ROOT
ATOM      1  O   UNL     1     142.605 126.772  98.962  0.00  0.00    +0.000 OA
ATOM      2  C   UNL     1     143.671 126.428  98.067  0.00  0.00    +0.000 C 
ATOM      3  C   UNL     1     144.306 125.057  98.450  0.00  0.00    +0.000 C 
ATOM      4  C   UNL     1     144.772 125.070  99.902  0.00  0.00    +0.000 C 
ATOM      5  C   UNL     1     143.710 125.615 100.810  0.00  0.00    +0.000 A 
ATOM      6  C   UNL     1     142.708 126.435 100.283  0.00  0.00    +0.000 A 
ATOM      7  C   UNL     1     143.704 125.366 102.190  0.00  0.00    +0.000 A 
ATOM      8  C   UNL     1     141.721 126.973 101.113  0.00  0.00    +0.000 A 
ATOM      9  C   UNL     1     142.737 125.914 103.028  0.00  0.00    +0.000 A 
ATOM     10  C   UNL     1     141.747 126.713 102.478  0.00  0.00    +0.000 A 
ENDROOT
BRANCH   2  11
ATOM     11  C   UNL     1     144.748 127.526  97.966  0.00  0.00    +0.000 A 
ATOM     12  C   UNL     1     146.096 127.190  97.711  0.00  0.00    +0.000 A 
ATOM     13  C   UNL     1     144.421 128.891  98.109  0.00  0.00    +0.000 A 
ATOM     14  C   UNL     1     147.063 128.186  97.619  0.00  0.00    +0.000 A 
ATOM     15  C   UNL     1     145.401 129.884  98.029  0.00  0.00    +0.000 A 
ATOM     16  C   UNL     1     146.714 129.521  97.791  0.00  0.00    +0.000 A 
BRANCH  14  17
ATOM     17  O   UNL     1     148.375 127.913  97.352  0.00  0.00    +0.000 OA
ATOM     18  H   UNL     1     148.923 128.158  98.125  0.00  0.00    +0.000 HD
ENDBRANCH  14  17
BRANCH  16  19
ATOM     19  O   UNL     1     147.672 130.491  97.709  0.00  0.00    +0.000 OA
ATOM     20  H   UNL     1     148.514 130.015  97.865  0.00  0.00    +0.000 HD
ENDBRANCH  16  19
ENDBRANCH   2  11
BRANCH   3  21
ATOM     21  O   UNL     1     143.370 123.954  98.278  0.00  0.00    +0.000 OA
ATOM     22  H   UNL     1     142.595 124.196  98.826  0.00  0.00    +0.000 HD
ENDBRANCH   3  21
BRANCH   4  23
ATOM     23  O   UNL     1     145.108 123.733 100.310  0.00  0.00    +0.000 OA
ATOM     24  H   UNL     1     144.948 123.731 101.281  0.00  0.00    +0.000 HD
ENDBRANCH   4  23
BRANCH   7  25
ATOM     25  O   UNL     1     144.640 124.556 102.777  0.00  0.00    +0.000 OA
ATOM     26  H   UNL     1     145.151 125.112 103.405  0.00  0.00    +0.000 HD
ENDBRANCH   7  25
BRANCH  10  27
ATOM     27  O   UNL     1     140.769 127.269 103.251  0.00  0.00    +0.000 OA
ATOM     28  H   UNL     1     140.138 127.723 102.668  0.00  0.00    +0.000 HD
ENDBRANCH  10  27
BRANCH   2  29
ATOM     29  O   UNL     1     143.097 126.170  96.754  0.00  0.00    +0.000 OA
BRANCH  29  31
ATOM     30  O   UNL     1     143.073 128.070  93.573  0.00  0.00    +0.000 OA
ATOM     31  C   UNL     1     142.835 127.313  95.917  0.00  0.00    +0.000 C 
ATOM     32  C   UNL     1     143.231 126.955  94.462  0.00  0.00    +0.000 C 
ATOM     33  C   UNL     1     141.349 127.683  95.911  0.00  0.00    +0.000 C 
ATOM     34  C   UNL     1     140.970 128.516  94.717  0.00  0.00    +0.000 A 
ATOM     35  C   UNL     1     141.841 128.662  93.634  0.00  0.00    +0.000 A 
ATOM     36  C   UNL     1     139.727 129.160  94.664  0.00  0.00    +0.000 A 
ATOM     37  C   UNL     1     141.501 129.468  92.545  0.00  0.00    +0.000 A 
ATOM     38  C   UNL     1     139.369 129.953  93.576  0.00  0.00    +0.000 A 
ATOM     39  C   UNL     1     140.266 130.105  92.526  0.00  0.00    +0.000 A 
BRANCH  32  40
ATOM     40  C   UNL     1     144.685 126.510  94.383  0.00  0.00    +0.000 A 
ATOM     41  C   UNL     1     145.718 127.443  94.200  0.00  0.00    +0.000 A 
ATOM     42  C   UNL     1     145.016 125.156  94.576  0.00  0.00    +0.000 A 
ATOM     43  C   UNL     1     147.047 127.030  94.260  0.00  0.00    +0.000 A 
ATOM     44  C   UNL     1     146.351 124.745  94.615  0.00  0.00    +0.000 A 
ATOM     45  C   UNL     1     147.363 125.689  94.473  0.00  0.00    +0.000 A 
BRANCH  43  46
ATOM     46  O   UNL     1     148.056 127.947  94.179  0.00  0.00    +0.000 OA
ATOM     47  H   UNL     1     148.086 128.461  95.003  0.00  0.00    +0.000 HD
ENDBRANCH  43  46
BRANCH  45  48
ATOM     48  O   UNL     1     148.674 125.320  94.571  0.00  0.00    +0.000 OA
ATOM     49  H   UNL     1     149.117 125.892  95.219  0.00  0.00    +0.000 HD
ENDBRANCH  45  48
ENDBRANCH  32  40
BRANCH  36  50
ATOM     50  O   UNL     1     138.862 128.999  95.710  0.00  0.00    +0.000 OA
ATOM     51  H   UNL     1     138.046 129.494  95.524  0.00  0.00    +0.000 HD
ENDBRANCH  36  50
BRANCH  39  52
ATOM     52  O   UNL     1     139.889 130.895  91.479  0.00  0.00    +0.000 OA
ATOM     53  H   UNL     1     139.831 131.815  91.788  0.00  0.00    +0.000 HD
ENDBRANCH  39  52
ENDBRANCH  29  31
ENDBRANCH   2  29
TORSDOF 14
ENDMDL
MODEL 3
REMARK VINA RESULT:      -8.1      2.835      7.206
REMARK  Name = 
REMARK  14 active torsions:
REMARK  status: ('A' for Active; 'I' for Inactive)
REMARK    1  A    between atoms: O_1  and  C_14
REMARK    2  A    between atoms: O_1  and  C_15
REMARK    3  A    between atoms: O_4  and  C_16
REMARK    4  A    between atoms: O_5  and  C_18
REMARK    5  A    between atoms: O_6  and  C_26
REMARK    6  A    between atoms: O_7  and  C_29
REMARK    7  A    between atoms: O_8  and  C_35
REMARK    8  A    between atoms: O_9  and  C_36
REMARK    9  A    between atoms: O_10  and  C_39
REMARK   10  A    between atoms: O_11  and  C_40
REMARK   11  A    between atoms: O_12  and  C_41
REMARK   12  A    between atoms: O_13  and  C_43
REMARK   13  A    between atoms: C_14  and  C_20
REMARK   14  A    between atoms: C_17  and  C_24
REMARK                            x       y       z     vdW  Elec       q    Type
REMARK                         _______ _______ _______ _____ _____    ______ ____
ROOT
ATOM      1  O   UNL     1     145.119 125.685  96.092  0.00  0.00    +0.000 OA
ATOM      2  C   UNL     1     145.355 126.514  97.239  0.00  0.00    +0.000 C 
ATOM      3  C   UNL     1     146.796 127.108  97.216  0.00  0.00    +0.000 C 
ATOM      4  C   UNL     1     147.832 125.993  97.104  0.00  0.00    +0.000 C 
ATOM      5  C   UNL     1     147.470 125.021  96.021  0.00  0.00    +0.000 A 
ATOM      6  C   UNL     1     146.142 124.925  95.598  0.00  0.00    +0.000 A 
ATOM      7  C   UNL     1     148.415 124.165  95.438  0.00  0.00    +0.000 A 
ATOM      8  C   UNL     1     145.777 124.010  94.607  0.00  0.00    +0.000 A 
ATOM      9  C   UNL     1     148.058 123.236  94.464  0.00  0.00    +0.000 A 
ATOM     10  C   UNL     1     146.735 123.170  94.052  0.00  0.00    +0.000 A 
ENDROOT
BRANCH   2  11
ATOM     11  C   UNL     1     145.077 125.789  98.570  0.00  0.00    +0.000 A 
ATOM     12  C   UNL     1     144.569 124.471  98.580  0.00  0.00    +0.000 A 
ATOM     13  C   UNL     1     145.334 126.410  99.811  0.00  0.00    +0.000 A 
ATOM     14  C   UNL     1     144.323 123.822  99.786  0.00  0.00    +0.000 A 
ATOM     15  C   UNL     1     145.070 125.755 101.018  0.00  0.00    +0.000 A 
ATOM     16  C   UNL     1     144.560 124.469 100.993  0.00  0.00    +0.000 A 
BRANCH  14  17
ATOM     17  O   UNL     1     143.852 122.541  99.846  0.00  0.00    +0.000 OA
ATOM     18  H   UNL     1     144.593 121.928 100.029  0.00  0.00    +0.000 HD
ENDBRANCH  14  17
BRANCH  16  19
ATOM     19  O   UNL     1     144.306 123.827 102.171  0.00  0.00    +0.000 OA
ATOM     20  H   UNL     1     143.347 123.956 102.316  0.00  0.00    +0.000 HD
ENDBRANCH  16  19
ENDBRANCH   2  11
BRANCH   3  21
ATOM     21  O   UNL     1     146.990 128.028  96.105  0.00  0.00    +0.000 OA
ATOM     22  H   UNL     1     147.845 127.765  95.708  0.00  0.00    +0.000 HD
ENDBRANCH   3  21
BRANCH   4  23
ATOM     23  O   UNL     1     149.121 126.564  96.821  0.00  0.00    +0.000 OA
ATOM     24  H   UNL     1     149.009 126.982  95.938  0.00  0.00    +0.000 HD
ENDBRANCH   4  23
BRANCH   7  25
ATOM     25  O   UNL     1     149.739 124.214  95.785  0.00  0.00    +0.000 OA
ATOM     26  H   UNL     1     150.258 124.006  94.976  0.00  0.00    +0.000 HD
ENDBRANCH   7  25
BRANCH  10  27
ATOM     27  O   UNL     1     146.332 122.285  93.096  0.00  0.00    +0.000 OA
ATOM     28  H   UNL     1     145.565 121.794  93.436  0.00  0.00    +0.000 HD
ENDBRANCH  10  27
BRANCH   2  29
ATOM     29  O   UNL     1     144.510 127.694  97.127  0.00  0.00    +0.000 OA
BRANCH  29  31
ATOM     30  O   UNL     1     140.950 128.354  96.341  0.00  0.00    +0.000 OA
ATOM     31  C   UNL     1     143.294 127.561  96.367  0.00  0.00    +0.000 C 
ATOM     32  C   UNL     1     142.220 128.485  96.995  0.00  0.00    +0.000 C 
ATOM     33  C   UNL     1     143.484 128.000  94.911  0.00  0.00    +0.000 C 
ATOM     34  C   UNL     1     142.181 128.337  94.239  0.00  0.00    +0.000 A 
ATOM     35  C   UNL     1     141.006 128.489  94.980  0.00  0.00    +0.000 A 
ATOM     36  C   UNL     1     142.121 128.512  92.851  0.00  0.00    +0.000 A 
ATOM     37  C   UNL     1     139.791 128.764  94.348  0.00  0.00    +0.000 A 
ATOM     38  C   UNL     1     140.919 128.803  92.210  0.00  0.00    +0.000 A 
ATOM     39  C   UNL     1     139.761 128.920  92.967  0.00  0.00    +0.000 A 
BRANCH  32  40
ATOM     40  C   UNL     1     142.011 128.162  98.468  0.00  0.00    +0.000 A 
ATOM     41  C   UNL     1     141.604 126.882  98.876  0.00  0.00    +0.000 A 
ATOM     42  C   UNL     1     142.307 129.127  99.447  0.00  0.00    +0.000 A 
ATOM     43  C   UNL     1     141.544 126.571 100.233  0.00  0.00    +0.000 A 
ATOM     44  C   UNL     1     142.226 128.815 100.807  0.00  0.00    +0.000 A 
ATOM     45  C   UNL     1     141.859 127.530 101.193  0.00  0.00    +0.000 A 
BRANCH  43  46
ATOM     46  O   UNL     1     141.241 125.301 100.634  0.00  0.00    +0.000 OA
ATOM     47  H   UNL     1     141.001 124.770  99.856  0.00  0.00    +0.000 HD
ENDBRANCH  43  46
BRANCH  45  48
ATOM     48  O   UNL     1     141.835 127.184 102.514  0.00  0.00    +0.000 OA
ATOM     49  H   UNL     1     141.802 126.217 102.589  0.00  0.00    +0.000 HD
ENDBRANCH  45  48
ENDBRANCH  32  40
BRANCH  36  50
ATOM     50  O   UNL     1     143.274 128.388  92.126  0.00  0.00    +0.000 OA
ATOM     51  H   UNL     1     143.849 127.735  92.559  0.00  0.00    +0.000 HD
ENDBRANCH  36  50
BRANCH  39  52
ATOM     52  O   UNL     1     138.598 129.198  92.309  0.00  0.00    +0.000 OA
ATOM     53  H   UNL     1     138.024 128.414  92.346  0.00  0.00    +0.000 HD
ENDBRANCH  39  52
ENDBRANCH  29  31
ENDBRANCH   2  29
TORSDOF 14
ENDMDL
MODEL 4
REMARK VINA RESULT:      -8.0      3.337      7.438
REMARK  Name = 
REMARK  14 active torsions:
REMARK  status: ('A' for Active; 'I' for Inactive)
REMARK    1  A    between atoms: O_1  and  C_14
REMARK    2  A    between atoms: O_1  and  C_15
REMARK    3  A    between atoms: O_4  and  C_16
REMARK    4  A    between atoms: O_5  and  C_18
REMARK    5  A    between atoms: O_6  and  C_26
REMARK    6  A    between atoms: O_7  and  C_29
REMARK    7  A    between atoms: O_8  and  C_35
REMARK    8  A    between atoms: O_9  and  C_36
REMARK    9  A    between atoms: O_10  and  C_39
REMARK   10  A    between atoms: O_11  and  C_40
REMARK   11  A    between atoms: O_12  and  C_41
REMARK   12  A    between atoms: O_13  and  C_43
REMARK   13  A    between atoms: C_14  and  C_20
REMARK   14  A    between atoms: C_17  and  C_24
REMARK                            x       y       z     vdW  Elec       q    Type
REMARK                         _______ _______ _______ _____ _____    ______ ____
ROOT
ATOM      1  O   UNL     1     145.444 124.869  95.258  0.00  0.00    +0.000 OA
ATOM      2  C   UNL     1     145.467 125.677  96.442  0.00  0.00    +0.000 C 
ATOM      3  C   UNL     1     146.835 126.410  96.595  0.00  0.00    +0.000 C 
ATOM      4  C   UNL     1     147.984 125.406  96.576  0.00  0.00    +0.000 C 
ATOM      5  C   UNL     1     147.843 124.440  95.438  0.00  0.00    +0.000 A 
ATOM      6  C   UNL     1     146.586 124.228  94.865  0.00  0.00    +0.000 A 
ATOM      7  C   UNL     1     148.929 123.699  94.947  0.00  0.00    +0.000 A 
ATOM      8  C   UNL     1     146.427 123.315  93.820  0.00  0.00    +0.000 A 
ATOM      9  C   UNL     1     148.777 122.773  93.919  0.00  0.00    +0.000 A 
ATOM     10  C   UNL     1     147.521 122.592  93.359  0.00  0.00    +0.000 A 
ENDROOT
BRANCH   2  11
ATOM     11  C   UNL     1     145.119 124.885  97.717  0.00  0.00    +0.000 A 
ATOM     12  C   UNL     1     145.317 125.455  98.995  0.00  0.00    +0.000 A 
ATOM     13  C   UNL     1     144.581 123.583  97.649  0.00  0.00    +0.000 A 
ATOM     14  C   UNL     1     144.998 124.735 100.142  0.00  0.00    +0.000 A 
ATOM     15  C   UNL     1     144.277 122.862  98.807  0.00  0.00    +0.000 A 
ATOM     16  C   UNL     1     144.495 123.443 100.043  0.00  0.00    +0.000 A 
BRANCH  14  17
ATOM     17  O   UNL     1     145.153 125.251 101.398  0.00  0.00    +0.000 OA
ATOM     18  H   UNL     1     145.026 124.542 102.060  0.00  0.00    +0.000 HD
ENDBRANCH  14  17
BRANCH  16  19
ATOM     19  O   UNL     1     144.195 122.741 101.175  0.00  0.00    +0.000 OA
ATOM     20  H   UNL     1     143.770 121.923 100.848  0.00  0.00    +0.000 HD
ENDBRANCH  16  19
ENDBRANCH   2  11
BRANCH   3  21
ATOM     21  O   UNL     1     147.057 127.381  95.534  0.00  0.00    +0.000 OA
ATOM     22  H   UNL     1     147.983 127.675  95.652  0.00  0.00    +0.000 HD
ENDBRANCH   3  21
BRANCH   4  23
ATOM     23  O   UNL     1     149.232 126.109  96.454  0.00  0.00    +0.000 OA
ATOM     24  H   UNL     1     149.123 126.894  97.037  0.00  0.00    +0.000 HD
ENDBRANCH   4  23
BRANCH   7  25
ATOM     25  O   UNL     1     150.195 123.866  95.442  0.00  0.00    +0.000 OA
ATOM     26  H   UNL     1     150.381 124.831  95.441  0.00  0.00    +0.000 HD
ENDBRANCH   7  25
BRANCH  10  27
ATOM     27  O   UNL     1     147.316 121.704  92.343  0.00  0.00    +0.000 OA
ATOM     28  H   UNL     1     148.150 121.599  91.855  0.00  0.00    +0.000 HD
ENDBRANCH  10  27
BRANCH   2  29
ATOM     29  O   UNL     1     144.526 126.773  96.262  0.00  0.00    +0.000 OA
BRANCH  29  31
ATOM     30  O   UNL     1     141.195 126.778  94.639  0.00  0.00    +0.000 OA
ATOM     31  C   UNL     1     143.613 126.678  95.150  0.00  0.00    +0.000 C 
ATOM     32  C   UNL     1     142.177 126.931  95.673  0.00  0.00    +0.000 C 
ATOM     33  C   UNL     1     143.908 127.736  94.082  0.00  0.00    +0.000 C 
ATOM     34  C   UNL     1     142.729 127.987  93.183  0.00  0.00    +0.000 A 
ATOM     35  C   UNL     1     141.460 127.499  93.506  0.00  0.00    +0.000 A 
ATOM     36  C   UNL     1     142.879 128.725  92.002  0.00  0.00    +0.000 A 
ATOM     37  C   UNL     1     140.375 127.702  92.649  0.00  0.00    +0.000 A 
ATOM     38  C   UNL     1     141.802 128.948  91.147  0.00  0.00    +0.000 A 
ATOM     39  C   UNL     1     140.558 128.427  91.477  0.00  0.00    +0.000 A 
BRANCH  32  40
ATOM     40  C   UNL     1     141.820 125.960  96.790  0.00  0.00    +0.000 A 
ATOM     41  C   UNL     1     141.946 126.332  98.138  0.00  0.00    +0.000 A 
ATOM     42  C   UNL     1     141.276 124.701  96.478  0.00  0.00    +0.000 A 
ATOM     43  C   UNL     1     141.492 125.477  99.140  0.00  0.00    +0.000 A 
ATOM     44  C   UNL     1     140.840 123.840  97.489  0.00  0.00    +0.000 A 
ATOM     45  C   UNL     1     140.936 124.241  98.818  0.00  0.00    +0.000 A 
BRANCH  43  46
ATOM     46  O   UNL     1     141.524 125.873 100.447  0.00  0.00    +0.000 OA
ATOM     47  H   UNL     1     140.645 125.742 100.841  0.00  0.00    +0.000 HD
ENDBRANCH  43  46
BRANCH  45  48
ATOM     48  O   UNL     1     140.459 123.443  99.818  0.00  0.00    +0.000 OA
ATOM     49  H   UNL     1     140.318 123.982 100.614  0.00  0.00    +0.000 HD
ENDBRANCH  45  48
ENDBRANCH  32  40
BRANCH  36  50
ATOM     50  O   UNL     1     144.114 129.225  91.696  0.00  0.00    +0.000 OA
ATOM     51  H   UNL     1     144.791 128.683  92.136  0.00  0.00    +0.000 HD
ENDBRANCH  36  50
BRANCH  39  52
ATOM     52  O   UNL     1     139.525 128.656  90.616  0.00  0.00    +0.000 OA
ATOM     53  H   UNL     1     139.276 127.814  90.197  0.00  0.00    +0.000 HD
ENDBRANCH  39  52
ENDBRANCH  29  31
ENDBRANCH   2  29
TORSDOF 14
ENDMDL
MODEL 5
REMARK VINA RESULT:      -7.7      3.045      7.311
REMARK  Name = 
REMARK  14 active torsions:
REMARK  status: ('A' for Active; 'I' for Inactive)
REMARK    1  A    between atoms: O_1  and  C_14
REMARK    2  A    between atoms: O_1  and  C_15
REMARK    3  A    between atoms: O_4  and  C_16
REMARK    4  A    between atoms: O_5  and  C_18
REMARK    5  A    between atoms: O_6  and  C_26
REMARK    6  A    between atoms: O_7  and  C_29
REMARK    7  A    between atoms: O_8  and  C_35
REMARK    8  A    between atoms: O_9  and  C_36
REMARK    9  A    between atoms: O_10  and  C_39
REMARK   10  A    between atoms: O_11  and  C_40
REMARK   11  A    between atoms: O_12  and  C_41
REMARK   12  A    between atoms: O_13  and  C_43
REMARK   13  A    between atoms: C_14  and  C_20
REMARK   14  A    between atoms: C_17  and  C_24
REMARK                            x       y       z     vdW  Elec       q    Type
REMARK                         _______ _______ _______ _____ _____    ______ ____
ROOT
ATOM      1  O   UNL     1     145.760 124.909  94.836  0.00  0.00    +0.000 OA
ATOM      2  C   UNL     1     146.194 125.459  96.087  0.00  0.00    +0.000 C 
ATOM      3  C   UNL     1     147.737 125.681  96.098  0.00  0.00    +0.000 C 
ATOM      4  C   UNL     1     148.466 124.382  95.769  0.00  0.00    +0.000 C 
ATOM      5  C   UNL     1     147.874 123.716  94.564  0.00  0.00    +0.000 A 
ATOM      6  C   UNL     1     146.562 124.014  94.186  0.00  0.00    +0.000 A 
ATOM      7  C   UNL     1     148.579 122.761  93.815  0.00  0.00    +0.000 A 
ATOM      8  C   UNL     1     145.982 123.388  93.080  0.00  0.00    +0.000 A 
ATOM      9  C   UNL     1     148.003 122.117  92.724  0.00  0.00    +0.000 A 
ATOM     10  C   UNL     1     146.704 122.442  92.362  0.00  0.00    +0.000 A 
ENDROOT
BRANCH   2  11
ATOM     11  C   UNL     1     145.749 124.618  97.299  0.00  0.00    +0.000 A 
ATOM     12  C   UNL     1     146.446 124.697  98.525  0.00  0.00    +0.000 A 
ATOM     13  C   UNL     1     144.630 123.760  97.227  0.00  0.00    +0.000 A 
ATOM     14  C   UNL     1     146.038 123.936  99.616  0.00  0.00    +0.000 A 
ATOM     15  C   UNL     1     144.236 122.989  98.325  0.00  0.00    +0.000 A 
ATOM     16  C   UNL     1     144.948 123.080  99.507  0.00  0.00    +0.000 A 
BRANCH  14  17
ATOM     17  O   UNL     1     146.667 123.995 100.828  0.00  0.00    +0.000 OA
ATOM     18  H   UNL     1     146.058 124.371 101.495  0.00  0.00    +0.000 HD
ENDBRANCH  14  17
BRANCH  16  19
ATOM     19  O   UNL     1     144.561 122.330 100.580  0.00  0.00    +0.000 OA
ATOM     20  H   UNL     1     143.730 121.902 100.291  0.00  0.00    +0.000 HD
ENDBRANCH  16  19
ENDBRANCH   2  11
BRANCH   3  21
ATOM     21  O   UNL     1     148.149 126.695  95.137  0.00  0.00    +0.000 OA
ATOM     22  H   UNL     1     149.127 126.654  95.135  0.00  0.00    +0.000 HD
ENDBRANCH   3  21
BRANCH   4  23
ATOM     23  O   UNL     1     149.856 124.661  95.527  0.00  0.00    +0.000 OA
ATOM     24  H   UNL     1     150.284 124.524  96.401  0.00  0.00    +0.000 HD
ENDBRANCH   4  23
BRANCH   7  25
ATOM     25  O   UNL     1     149.875 122.431  94.110  0.00  0.00    +0.000 OA
ATOM     26  H   UNL     1     150.087 121.615  93.605  0.00  0.00    +0.000 HD
ENDBRANCH   7  25
BRANCH  10  27
ATOM     27  O   UNL     1     146.093 121.848  91.296  0.00  0.00    +0.000 OA
ATOM     28  H   UNL     1     145.615 121.063  91.614  0.00  0.00    +0.000 HD
ENDBRANCH  10  27
BRANCH   2  29
ATOM     29  O   UNL     1     145.666 126.811  96.197  0.00  0.00    +0.000 OA
BRANCH  29  31
ATOM     30  O   UNL     1     142.401 128.179  97.292  0.00  0.00    +0.000 OA
ATOM     31  C   UNL     1     144.233 126.961  96.160  0.00  0.00    +0.000 C 
ATOM     32  C   UNL     1     143.825 128.025  97.210  0.00  0.00    +0.000 C 
ATOM     33  C   UNL     1     143.749 127.454  94.793  0.00  0.00    +0.000 C 
ATOM     34  C   UNL     1     142.380 128.074  94.858  0.00  0.00    +0.000 A 
ATOM     35  C   UNL     1     141.792 128.394  96.085  0.00  0.00    +0.000 A 
ATOM     36  C   UNL     1     141.668 128.351  93.685  0.00  0.00    +0.000 A 
ATOM     37  C   UNL     1     140.505 128.934  96.143  0.00  0.00    +0.000 A 
ATOM     38  C   UNL     1     140.391 128.905  93.729  0.00  0.00    +0.000 A 
ATOM     39  C   UNL     1     139.817 129.187  94.962  0.00  0.00    +0.000 A 
BRANCH  32  40
ATOM     40  C   UNL     1     144.324 127.647  98.598  0.00  0.00    +0.000 A 
ATOM     41  C   UNL     1     145.535 128.157  99.093  0.00  0.00    +0.000 A 
ATOM     42  C   UNL     1     143.529 126.844  99.436  0.00  0.00    +0.000 A 
ATOM     43  C   UNL     1     145.909 127.903 100.411  0.00  0.00    +0.000 A 
ATOM     44  C   UNL     1     143.919 126.577 100.750  0.00  0.00    +0.000 A 
ATOM     45  C   UNL     1     145.102 127.123 101.238  0.00  0.00    +0.000 A 
BRANCH  43  46
ATOM     46  O   UNL     1     147.037 128.475 100.928  0.00  0.00    +0.000 OA
ATOM     47  H   UNL     1     146.814 128.919 101.763  0.00  0.00    +0.000 HD
ENDBRANCH  43  46
BRANCH  45  48
ATOM     48  O   UNL     1     145.471 126.928 102.538  0.00  0.00    +0.000 OA
ATOM     49  H   UNL     1     146.120 127.606 102.789  0.00  0.00    +0.000 HD
ENDBRANCH  45  48
ENDBRANCH  32  40
BRANCH  36  50
ATOM     50  O   UNL     1     142.251 128.063  92.483  0.00  0.00    +0.000 OA
ATOM     51  H   UNL     1     141.576 127.700  91.885  0.00  0.00    +0.000 HD
ENDBRANCH  36  50
BRANCH  39  52
ATOM     52  O   UNL     1     138.562 129.722  94.971  0.00  0.00    +0.000 OA
ATOM     53  H   UNL     1     137.945 129.062  95.330  0.00  0.00    +0.000 HD
ENDBRANCH  39  52
ENDBRANCH  29  31
ENDBRANCH   2  29
TORSDOF 14
ENDMDL
MODEL 6
REMARK VINA RESULT:      -7.4      3.213      7.575
REMARK  Name = 
REMARK  14 active torsions:
REMARK  status: ('A' for Active; 'I' for Inactive)
REMARK    1  A    between atoms: O_1  and  C_14
REMARK    2  A    between atoms: O_1  and  C_15
REMARK    3  A    between atoms: O_4  and  C_16
REMARK    4  A    between atoms: O_5  and  C_18
REMARK    5  A    between atoms: O_6  and  C_26
REMARK    6  A    between atoms: O_7  and  C_29
REMARK    7  A    between atoms: O_8  and  C_35
REMARK    8  A    between atoms: O_9  and  C_36
REMARK    9  A    between atoms: O_10  and  C_39
REMARK   10  A    between atoms: O_11  and  C_40
REMARK   11  A    between atoms: O_12  and  C_41
REMARK   12  A    between atoms: O_13  and  C_43
REMARK   13  A    between atoms: C_14  and  C_20
REMARK   14  A    between atoms: C_17  and  C_24
REMARK                            x       y       z     vdW  Elec       q    Type
REMARK                         _______ _______ _______ _____ _____    ______ ____
ROOT
ATOM      1  O   UNL     1     144.826 124.938  95.306  0.00  0.00    +0.000 OA
ATOM      2  C   UNL     1     145.648 125.891  95.994  0.00  0.00    +0.000 C 
ATOM      3  C   UNL     1     146.983 126.137  95.227  0.00  0.00    +0.000 C 
ATOM      4  C   UNL     1     147.718 124.820  94.997  0.00  0.00    +0.000 C 
ATOM      5  C   UNL     1     146.796 123.769  94.455  0.00  0.00    +0.000 A 
ATOM      6  C   UNL     1     145.418 123.893  94.655  0.00  0.00    +0.000 A 
ATOM      7  C   UNL     1     147.269 122.633  93.783  0.00  0.00    +0.000 A 
ATOM      8  C   UNL     1     144.541 122.915  94.180  0.00  0.00    +0.000 A 
ATOM      9  C   UNL     1     146.405 121.643  93.323  0.00  0.00    +0.000 A 
ATOM     10  C   UNL     1     145.041 121.796  93.523  0.00  0.00    +0.000 A 
ENDROOT
BRANCH   2  11
ATOM     11  C   UNL     1     145.917 125.504  97.461  0.00  0.00    +0.000 A 
ATOM     12  C   UNL     1     146.613 126.383  98.322  0.00  0.00    +0.000 A 
ATOM     13  C   UNL     1     145.468 124.276  97.991  0.00  0.00    +0.000 A 
ATOM     14  C   UNL     1     146.850 126.028  99.646  0.00  0.00    +0.000 A 
ATOM     15  C   UNL     1     145.724 123.922  99.319  0.00  0.00    +0.000 A 
ATOM     16  C   UNL     1     146.419 124.799 100.131  0.00  0.00    +0.000 A 
BRANCH  14  17
ATOM     17  O   UNL     1     147.499 126.852 100.521  0.00  0.00    +0.000 OA
ATOM     18  H   UNL     1     147.295 127.785 100.304  0.00  0.00    +0.000 HD
ENDBRANCH  14  17
BRANCH  16  19
ATOM     19  O   UNL     1     146.666 124.456 101.430  0.00  0.00    +0.000 OA
ATOM     20  H   UNL     1     147.298 123.711 101.368  0.00  0.00    +0.000 HD
ENDBRANCH  16  19
ENDBRANCH   2  11
BRANCH   3  21
ATOM     21  O   UNL     1     146.762 126.771  93.935  0.00  0.00    +0.000 OA
ATOM     22  H   UNL     1     145.847 126.528  93.690  0.00  0.00    +0.000 HD
ENDBRANCH   3  21
BRANCH   4  23
ATOM     23  O   UNL     1     148.799 125.030  94.072  0.00  0.00    +0.000 OA
ATOM     24  H   UNL     1     148.350 125.204  93.215  0.00  0.00    +0.000 HD
ENDBRANCH   4  23
BRANCH   7  25
ATOM     25  O   UNL     1     148.602 122.451  93.531  0.00  0.00    +0.000 OA
ATOM     26  H   UNL     1     148.762 122.735  92.603  0.00  0.00    +0.000 HD
ENDBRANCH   7  25
BRANCH  10  27
ATOM     27  O   UNL     1     144.148 120.862  93.086  0.00  0.00    +0.000 OA
ATOM     28  H   UNL     1     144.560 120.360  92.362  0.00  0.00    +0.000 HD
ENDBRANCH  10  27
BRANCH   2  29
ATOM     29  O   UNL     1     144.990 127.188  95.933  0.00  0.00    +0.000 OA
BRANCH  29  31
ATOM     30  O   UNL     1     141.396 128.091  95.929  0.00  0.00    +0.000 OA
ATOM     31  C   UNL     1     143.650 127.219  95.401  0.00  0.00    +0.000 C 
ATOM     32  C   UNL     1     142.768 128.072  96.346  0.00  0.00    +0.000 C 
ATOM     33  C   UNL     1     143.605 127.871  94.016  0.00  0.00    +0.000 C 
ATOM     34  C   UNL     1     142.228 128.355  93.655  0.00  0.00    +0.000 A 
ATOM     35  C   UNL     1     141.216 128.434  94.617  0.00  0.00    +0.000 A 
ATOM     36  C   UNL     1     141.932 128.746  92.343  0.00  0.00    +0.000 A 
ATOM     37  C   UNL     1     139.928 128.848  94.269  0.00  0.00    +0.000 A 
ATOM     38  C   UNL     1     140.656 129.176  91.987  0.00  0.00    +0.000 A 
ATOM     39  C   UNL     1     139.662 129.217  92.956  0.00  0.00    +0.000 A 
BRANCH  32  40
ATOM     40  C   UNL     1     142.806 127.533  97.770  0.00  0.00    +0.000 A 
ATOM     41  C   UNL     1     142.293 126.262  98.074  0.00  0.00    +0.000 A 
ATOM     42  C   UNL     1     143.434 128.275  98.786  0.00  0.00    +0.000 A 
ATOM     43  C   UNL     1     142.454 125.735  99.354  0.00  0.00    +0.000 A 
ATOM     44  C   UNL     1     143.575 127.749 100.072  0.00  0.00    +0.000 A 
ATOM     45  C   UNL     1     143.097 126.472 100.346  0.00  0.00    +0.000 A 
BRANCH  43  46
ATOM     46  O   UNL     1     142.043 124.462  99.630  0.00  0.00    +0.000 OA
ATOM     47  H   UNL     1     141.154 124.328  99.262  0.00  0.00    +0.000 HD
ENDBRANCH  43  46
BRANCH  45  48
ATOM     48  O   UNL     1     143.280 125.913 101.579  0.00  0.00    +0.000 OA
ATOM     49  H   UNL     1     142.846 125.045 101.602  0.00  0.00    +0.000 HD
ENDBRANCH  45  48
ENDBRANCH  32  40
BRANCH  36  50
ATOM     50  O   UNL     1     142.926 128.694  91.405  0.00  0.00    +0.000 OA
ATOM     51  H   UNL     1     143.050 129.582  91.028  0.00  0.00    +0.000 HD
ENDBRANCH  36  50
BRANCH  39  52
ATOM     52  O   UNL     1     138.420 129.636  92.573  0.00  0.00    +0.000 OA
ATOM     53  H   UNL     1     137.856 128.855  92.440  0.00  0.00    +0.000 HD
ENDBRANCH  39  52
ENDBRANCH  29  31
ENDBRANCH   2  29
TORSDOF 14
ENDMDL
MODEL 7
REMARK VINA RESULT:      -7.2     13.248     17.918
REMARK  Name = 
REMARK  14 active torsions:
REMARK  status: ('A' for Active; 'I' for Inactive)
REMARK    1  A    between atoms: O_1  and  C_14
REMARK    2  A    between atoms: O_1  and  C_15
REMARK    3  A    between atoms: O_4  and  C_16
REMARK    4  A    between atoms: O_5  and  C_18
REMARK    5  A    between atoms: O_6  and  C_26
REMARK    6  A    between atoms: O_7  and  C_29
REMARK    7  A    between atoms: O_8  and  C_35
REMARK    8  A    between atoms: O_9  and  C_36
REMARK    9  A    between atoms: O_10  and  C_39
REMARK   10  A    between atoms: O_11  and  C_40
REMARK   11  A    between atoms: O_12  and  C_41
REMARK   12  A    between atoms: O_13  and  C_43
REMARK   13  A    between atoms: C_14  and  C_20
REMARK   14  A    between atoms: C_17  and  C_24
REMARK                            x       y       z     vdW  Elec       q    Type
REMARK                         _______ _______ _______ _____ _____    ______ ____
ROOT
ATOM      1  O   UNL     1     144.136 115.242 110.004  0.00  0.00    +0.000 OA
ATOM      2  C   UNL     1     144.402 113.926 110.509  0.00  0.00    +0.000 C 
ATOM      3  C   UNL     1     143.099 113.251 111.033  0.00  0.00    +0.000 C 
ATOM      4  C   UNL     1     142.426 114.132 112.082  0.00  0.00    +0.000 C 
ATOM      5  C   UNL     1     142.327 115.554 111.617  0.00  0.00    +0.000 A 
ATOM      6  C   UNL     1     143.193 116.015 110.621  0.00  0.00    +0.000 A 
ATOM      7  C   UNL     1     141.417 116.463 112.176  0.00  0.00    +0.000 A 
ATOM      8  C   UNL     1     143.135 117.341 110.188  0.00  0.00    +0.000 A 
ATOM      9  C   UNL     1     141.365 117.792 111.766  0.00  0.00    +0.000 A 
ATOM     10  C   UNL     1     142.226 118.220 110.767  0.00  0.00    +0.000 A 
ENDROOT
BRANCH   2  11
ATOM     11  C   UNL     1     145.505 113.907 111.585  0.00  0.00    +0.000 A 
ATOM     12  C   UNL     1     145.863 112.701 112.228  0.00  0.00    +0.000 A 
ATOM     13  C   UNL     1     146.197 115.082 111.948  0.00  0.00    +0.000 A 
ATOM     14  C   UNL     1     146.861 112.691 113.197  0.00  0.00    +0.000 A 
ATOM     15  C   UNL     1     147.189 115.064 112.933  0.00  0.00    +0.000 A 
ATOM     16  C   UNL     1     147.507 113.869 113.553  0.00  0.00    +0.000 A 
BRANCH  14  17
ATOM     17  O   UNL     1     147.256 111.546 113.831  0.00  0.00    +0.000 OA
ATOM     18  H   UNL     1     146.967 110.769 113.311  0.00  0.00    +0.000 HD
ENDBRANCH  14  17
BRANCH  16  19
ATOM     19  O   UNL     1     148.478 113.850 114.512  0.00  0.00    +0.000 OA
ATOM     20  H   UNL     1     149.163 113.251 114.152  0.00  0.00    +0.000 HD
ENDBRANCH  16  19
ENDBRANCH   2  11
BRANCH   3  21
ATOM     21  O   UNL     1     142.144 113.002 109.963  0.00  0.00    +0.000 OA
ATOM     22  H   UNL     1     142.584 113.329 109.153  0.00  0.00    +0.000 HD
ENDBRANCH   3  21
BRANCH   4  23
ATOM     23  O   UNL     1     141.108 113.627 112.358  0.00  0.00    +0.000 OA
ATOM     24  H   UNL     1     141.226 113.077 113.165  0.00  0.00    +0.000 HD
ENDBRANCH   4  23
BRANCH   7  25
ATOM     25  O   UNL     1     140.522 116.081 113.141  0.00  0.00    +0.000 OA
ATOM     26  H   UNL     1     139.665 116.510 112.926  0.00  0.00    +0.000 HD
ENDBRANCH   7  25
BRANCH  10  27
ATOM     27  O   UNL     1     142.212 119.509 110.320  0.00  0.00    +0.000 OA
ATOM     28  H   UNL     1     141.621 119.561 109.550  0.00  0.00    +0.000 HD
ENDBRANCH  10  27
BRANCH   2  29
ATOM     29  O   UNL     1     144.784 113.078 109.388  0.00  0.00    +0.000 OA
BRANCH  29  31
ATOM     30  O   UNL     1     146.633 113.811 106.262  0.00  0.00    +0.000 OA
ATOM     31  C   UNL     1     145.001 113.726 108.120  0.00  0.00    +0.000 C 
ATOM     32  C   UNL     1     146.301 113.160 107.497  0.00  0.00    +0.000 C 
ATOM     33  C   UNL     1     143.860 113.446 107.137  0.00  0.00    +0.000 C 
ATOM     34  C   UNL     1     144.265 113.676 105.707  0.00  0.00    +0.000 A 
ATOM     35  C   UNL     1     145.608 113.845 105.357  0.00  0.00    +0.000 A 
ATOM     36  C   UNL     1     143.301 113.718 104.692  0.00  0.00    +0.000 A 
ATOM     37  C   UNL     1     145.976 114.098 104.033  0.00  0.00    +0.000 A 
ATOM     38  C   UNL     1     143.657 113.952 103.366  0.00  0.00    +0.000 A 
ATOM     39  C   UNL     1     144.996 114.146 103.049  0.00  0.00    +0.000 A 
BRANCH  32  40
ATOM     40  C   UNL     1     147.485 113.338 108.439  0.00  0.00    +0.000 A 
ATOM     41  C   UNL     1     148.042 114.606 108.669  0.00  0.00    +0.000 A 
ATOM     42  C   UNL     1     147.981 112.235 109.158  0.00  0.00    +0.000 A 
ATOM     43  C   UNL     1     149.037 114.764 109.631  0.00  0.00    +0.000 A 
ATOM     44  C   UNL     1     148.993 112.397 110.107  0.00  0.00    +0.000 A 
ATOM     45  C   UNL     1     149.506 113.667 110.351  0.00  0.00    +0.000 A 
BRANCH  43  46
ATOM     46  O   UNL     1     149.515 116.009 109.926  0.00  0.00    +0.000 OA
ATOM     47  H   UNL     1     148.822 116.516 110.381  0.00  0.00    +0.000 HD
ENDBRANCH  43  46
BRANCH  45  48
ATOM     48  O   UNL     1     150.450 113.859 111.319  0.00  0.00    +0.000 OA
ATOM     49  H   UNL     1     150.778 114.772 111.266  0.00  0.00    +0.000 HD
ENDBRANCH  45  48
ENDBRANCH  32  40
BRANCH  36  50
ATOM     50  O   UNL     1     141.990 113.528 105.027  0.00  0.00    +0.000 OA
ATOM     51  H   UNL     1     141.931 112.794 105.663  0.00  0.00    +0.000 HD
ENDBRANCH  36  50
BRANCH  39  52
ATOM     52  O   UNL     1     145.311 114.381 101.743  0.00  0.00    +0.000 OA
ATOM     53  H   UNL     1     145.492 113.530 101.308  0.00  0.00    +0.000 HD
ENDBRANCH  39  52
ENDBRANCH  29  31
ENDBRANCH   2  29
TORSDOF 14
ENDMDL
MODEL 8
REMARK VINA RESULT:      -7.2      2.308      3.982
REMARK  Name = 
REMARK  14 active torsions:
REMARK  status: ('A' for Active; 'I' for Inactive)
REMARK    1  A    between atoms: O_1  and  C_14
REMARK    2  A    between atoms: O_1  and  C_15
REMARK    3  A    between atoms: O_4  and  C_16
REMARK    4  A    between atoms: O_5  and  C_18
REMARK    5  A    between atoms: O_6  and  C_26
REMARK    6  A    between atoms: O_7  and  C_29
REMARK    7  A    between atoms: O_8  and  C_35
REMARK    8  A    between atoms: O_9  and  C_36
REMARK    9  A    between atoms: O_10  and  C_39
REMARK   10  A    between atoms: O_11  and  C_40
REMARK   11  A    between atoms: O_12  and  C_41
REMARK   12  A    between atoms: O_13  and  C_43
REMARK   13  A    between atoms: C_14  and  C_20
REMARK   14  A    between atoms: C_17  and  C_24
REMARK                            x       y       z     vdW  Elec       q    Type
REMARK                         _______ _______ _______ _____ _____    ______ ____
ROOT
ATOM      1  O   UNL     1     147.404 124.161  96.743  0.00  0.00    +0.000 OA
ATOM      2  C   UNL     1     146.279 124.914  97.216  0.00  0.00    +0.000 C 
ATOM      3  C   UNL     1     145.032 124.691  96.308  0.00  0.00    +0.000 C 
ATOM      4  C   UNL     1     145.362 125.023  94.856  0.00  0.00    +0.000 C 
ATOM      5  C   UNL     1     146.648 124.381  94.429  0.00  0.00    +0.000 A 
ATOM      6  C   UNL     1     147.584 124.005  95.397  0.00  0.00    +0.000 A 
ATOM      7  C   UNL     1     146.972 124.179  93.080  0.00  0.00    +0.000 A 
ATOM      8  C   UNL     1     148.799 123.427  95.022  0.00  0.00    +0.000 A 
ATOM      9  C   UNL     1     148.189 123.622  92.695  0.00  0.00    +0.000 A 
ATOM     10  C   UNL     1     149.094 123.244  93.676  0.00  0.00    +0.000 A 
ENDROOT
BRANCH   2  11
ATOM     11  C   UNL     1     146.586 126.416  97.374  0.00  0.00    +0.000 A 
ATOM     12  C   UNL     1     147.859 126.849  97.808  0.00  0.00    +0.000 A 
ATOM     13  C   UNL     1     145.617 127.398  97.078  0.00  0.00    +0.000 A 
ATOM     14  C   UNL     1     148.130 128.206  97.946  0.00  0.00    +0.000 A 
ATOM     15  C   UNL     1     145.894 128.760  97.234  0.00  0.00    +0.000 A 
ATOM     16  C   UNL     1     147.146 129.150  97.673  0.00  0.00    +0.000 A 
BRANCH  14  17
ATOM     17  O   UNL     1     149.351 128.674  98.342  0.00  0.00    +0.000 OA
ATOM     18  H   UNL     1     149.281 129.052  99.242  0.00  0.00    +0.000 HD
ENDBRANCH  14  17
BRANCH  16  19
ATOM     19  O   UNL     1     147.419 130.480  97.821  0.00  0.00    +0.000 OA
ATOM     20  H   UNL     1     148.346 130.504  98.133  0.00  0.00    +0.000 HD
ENDBRANCH  16  19
ENDBRANCH   2  11
BRANCH   3  21
ATOM     21  O   UNL     1     144.551 123.318  96.366  0.00  0.00    +0.000 OA
ATOM     22  H   UNL     1     145.312 122.774  96.079  0.00  0.00    +0.000 HD
ENDBRANCH   3  21
BRANCH   4  23
ATOM     23  O   UNL     1     144.296 124.567  94.005  0.00  0.00    +0.000 OA
ATOM     24  H   UNL     1     144.524 124.928  93.120  0.00  0.00    +0.000 HD
ENDBRANCH   4  23
BRANCH   7  25
ATOM     25  O   UNL     1     146.099 124.502  92.075  0.00  0.00    +0.000 OA
ATOM     26  H   UNL     1     145.289 124.860  92.501  0.00  0.00    +0.000 HD
ENDBRANCH   7  25
BRANCH  10  27
ATOM     27  O   UNL     1     150.297 122.686  93.357  0.00  0.00    +0.000 OA
ATOM     28  H   UNL     1     150.874 123.383  93.001  0.00  0.00    +0.000 HD
ENDBRANCH  10  27
BRANCH   2  29
ATOM     29  O   UNL     1     145.861 124.353  98.492  0.00  0.00    +0.000 OA
BRANCH  29  31
ATOM     30  O   UNL     1     143.984 125.891 101.293  0.00  0.00    +0.000 OA
ATOM     31  C   UNL     1     145.661 125.276  99.581  0.00  0.00    +0.000 C 
ATOM     32  C   UNL     1     144.296 124.964 100.243  0.00  0.00    +0.000 C 
ATOM     33  C   UNL     1     146.740 125.125 100.658  0.00  0.00    +0.000 C 
ATOM     34  C   UNL     1     146.311 125.691 101.983  0.00  0.00    +0.000 A 
ATOM     35  C   UNL     1     144.979 126.039 102.221  0.00  0.00    +0.000 A 
ATOM     36  C   UNL     1     147.242 125.874 103.014  0.00  0.00    +0.000 A 
ATOM     37  C   UNL     1     144.592 126.601 103.440  0.00  0.00    +0.000 A 
ATOM     38  C   UNL     1     146.865 126.418 104.240  0.00  0.00    +0.000 A 
ATOM     39  C   UNL     1     145.540 126.783 104.439  0.00  0.00    +0.000 A 
BRANCH  32  40
ATOM     40  C   UNL     1     143.164 125.028  99.226  0.00  0.00    +0.000 A 
ATOM     41  C   UNL     1     142.876 126.217  98.539  0.00  0.00    +0.000 A 
ATOM     42  C   UNL     1     142.445 123.863  98.903  0.00  0.00    +0.000 A 
ATOM     43  C   UNL     1     141.925 126.220  97.521  0.00  0.00    +0.000 A 
ATOM     44  C   UNL     1     141.479 123.876  97.895  0.00  0.00    +0.000 A 
ATOM     45  C   UNL     1     141.234 125.054  97.196  0.00  0.00    +0.000 A 
BRANCH  43  46
ATOM     46  O   UNL     1     141.709 127.350  96.785  0.00  0.00    +0.000 OA
ATOM     47  H   UNL     1     142.524 127.878  96.766  0.00  0.00    +0.000 HD
ENDBRANCH  43  46
BRANCH  45  48
ATOM     48  O   UNL     1     140.339 125.075  96.165  0.00  0.00    +0.000 OA
ATOM     49  H   UNL     1     140.738 125.535  95.408  0.00  0.00    +0.000 HD
ENDBRANCH  45  48
ENDBRANCH  32  40
BRANCH  36  50
ATOM     50  O   UNL     1     148.541 125.511 102.793  0.00  0.00    +0.000 OA
ATOM     51  H   UNL     1     148.646 124.570 103.012  0.00  0.00    +0.000 HD
ENDBRANCH  36  50
BRANCH  39  52
ATOM     52  O   UNL     1     145.205 127.320 105.648  0.00  0.00    +0.000 OA
ATOM     53  H   UNL     1     145.199 128.289 105.568  0.00  0.00    +0.000 HD
ENDBRANCH  39  52
ENDBRANCH  29  31
ENDBRANCH   2  29
TORSDOF 14
ENDMDL
MODEL 9
REMARK VINA RESULT:      -7.0     13.748     18.212
REMARK  Name = 
REMARK  14 active torsions:
REMARK  status: ('A' for Active; 'I' for Inactive)
REMARK    1  A    between atoms: O_1  and  C_14
REMARK    2  A    between atoms: O_1  and  C_15
REMARK    3  A    between atoms: O_4  and  C_16
REMARK    4  A    between atoms: O_5  and  C_18
REMARK    5  A    between atoms: O_6  and  C_26
REMARK    6  A    between atoms: O_7  and  C_29
REMARK    7  A    between atoms: O_8  and  C_35
REMARK    8  A    between atoms: O_9  and  C_36
REMARK    9  A    between atoms: O_10  and  C_39
REMARK   10  A    between atoms: O_11  and  C_40
REMARK   11  A    between atoms: O_12  and  C_41
REMARK   12  A    between atoms: O_13  and  C_43
REMARK   13  A    between atoms: C_14  and  C_20
REMARK   14  A    between atoms: C_17  and  C_24
REMARK                            x       y       z     vdW  Elec       q    Type
REMARK                         _______ _______ _______ _____ _____    ______ ____
ROOT
ATOM      1  O   UNL     1     146.598 113.223 111.020  0.00  0.00    +0.000 OA
ATOM      2  C   UNL     1     145.971 114.384 111.583  0.00  0.00    +0.000 C 
ATOM      3  C   UNL     1     146.966 115.179 112.481  0.00  0.00    +0.000 C 
ATOM      4  C   UNL     1     147.551 114.275 113.562  0.00  0.00    +0.000 C 
ATOM      5  C   UNL     1     148.031 112.977 112.984  0.00  0.00    +0.000 A 
ATOM      6  C   UNL     1     147.516 112.534 111.763  0.00  0.00    +0.000 A 
ATOM      7  C   UNL     1     148.957 112.159 113.648  0.00  0.00    +0.000 A 
ATOM      8  C   UNL     1     147.930 111.317 111.216  0.00  0.00    +0.000 A 
ATOM      9  C   UNL     1     149.361 110.935 113.122  0.00  0.00    +0.000 A 
ATOM     10  C   UNL     1     148.844 110.526 111.901  0.00  0.00    +0.000 A 
ENDROOT
BRANCH   2  11
ATOM     11  C   UNL     1     144.676 114.054 112.351  0.00  0.00    +0.000 A 
ATOM     12  C   UNL     1     144.065 115.021 113.181  0.00  0.00    +0.000 A 
ATOM     13  C   UNL     1     144.058 112.791 112.240  0.00  0.00    +0.000 A 
ATOM     14  C   UNL     1     142.895 114.717 113.869  0.00  0.00    +0.000 A 
ATOM     15  C   UNL     1     142.890 112.490 112.947  0.00  0.00    +0.000 A 
ATOM     16  C   UNL     1     142.324 113.455 113.760  0.00  0.00    +0.000 A 
BRANCH  14  17
ATOM     17  O   UNL     1     142.257 115.625 114.666  0.00  0.00    +0.000 OA
ATOM     18  H   UNL     1     142.432 116.530 114.336  0.00  0.00    +0.000 HD
ENDBRANCH  14  17
BRANCH  16  19
ATOM     19  O   UNL     1     141.181 113.163 114.448  0.00  0.00    +0.000 OA
ATOM     20  H   UNL     1     140.601 112.734 113.786  0.00  0.00    +0.000 HD
ENDBRANCH  16  19
ENDBRANCH   2  11
BRANCH   3  21
ATOM     21  O   UNL     1     148.065 115.745 111.712  0.00  0.00    +0.000 OA
ATOM     22  H   UNL     1     147.837 116.690 111.606  0.00  0.00    +0.000 HD
ENDBRANCH   3  21
BRANCH   4  23
ATOM     23  O   UNL     1     148.649 114.945 114.205  0.00  0.00    +0.000 OA
ATOM     24  H   UNL     1     148.236 115.393 114.977  0.00  0.00    +0.000 HD
ENDBRANCH   4  23
BRANCH   7  25
ATOM     25  O   UNL     1     149.522 112.534 114.838  0.00  0.00    +0.000 OA
ATOM     26  H   UNL     1     150.051 111.770 115.160  0.00  0.00    +0.000 HD
ENDBRANCH   7  25
BRANCH  10  27
ATOM     27  O   UNL     1     149.212 109.340 111.335  0.00  0.00    +0.000 OA
ATOM     28  H   UNL     1     149.295 109.471 110.375  0.00  0.00    +0.000 HD
ENDBRANCH  10  27
BRANCH   2  29
ATOM     29  O   UNL     1     145.686 115.316 110.502  0.00  0.00    +0.000 OA
BRANCH  29  31
ATOM     30  O   UNL     1     143.403 115.224 107.585  0.00  0.00    +0.000 OA
ATOM     31  C   UNL     1     145.138 114.765 109.289  0.00  0.00    +0.000 C 
ATOM     32  C   UNL     1     144.056 115.737 108.755  0.00  0.00    +0.000 C 
ATOM     33  C   UNL     1     146.204 114.620 108.198  0.00  0.00    +0.000 C 
ATOM     34  C   UNL     1     145.608 114.525 106.821  0.00  0.00    +0.000 A 
ATOM     35  C   UNL     1     144.261 114.824 106.597  0.00  0.00    +0.000 A 
ATOM     36  C   UNL     1     146.396 114.138 105.730  0.00  0.00    +0.000 A 
ATOM     37  C   UNL     1     143.702 114.697 105.323  0.00  0.00    +0.000 A 
ATOM     38  C   UNL     1     145.854 114.023 104.452  0.00  0.00    +0.000 A 
ATOM     39  C   UNL     1     144.506 114.299 104.261  0.00  0.00    +0.000 A 
BRANCH  32  40
ATOM     40  C   UNL     1     142.981 115.992 109.803  0.00  0.00    +0.000 A 
ATOM     41  C   UNL     1     142.902 117.223 110.472  0.00  0.00    +0.000 A 
ATOM     42  C   UNL     1     141.999 115.016 110.053  0.00  0.00    +0.000 A 
ATOM     43  C   UNL     1     141.835 117.481 111.330  0.00  0.00    +0.000 A 
ATOM     44  C   UNL     1     140.942 115.274 110.929  0.00  0.00    +0.000 A 
ATOM     45  C   UNL     1     140.857 116.514 111.553  0.00  0.00    +0.000 A 
BRANCH  43  46
ATOM     46  O   UNL     1     141.701 118.711 111.909  0.00  0.00    +0.000 OA
ATOM     47  H   UNL     1     142.537 118.952 112.341  0.00  0.00    +0.000 HD
ENDBRANCH  43  46
BRANCH  45  48
ATOM     48  O   UNL     1     139.799 116.811 112.365  0.00  0.00    +0.000 OA
ATOM     49  H   UNL     1     139.412 115.984 112.696  0.00  0.00    +0.000 HD
ENDBRANCH  45  48
ENDBRANCH  32  40
BRANCH  36  50
ATOM     50  O   UNL     1     147.719 113.869 105.942  0.00  0.00    +0.000 OA
ATOM     51  H   UNL     1     148.215 114.705 105.941  0.00  0.00    +0.000 HD
ENDBRANCH  36  50
BRANCH  39  52
ATOM     52  O   UNL     1     144.004 114.169 102.999  0.00  0.00    +0.000 OA
ATOM     53  H   UNL     1     144.541 114.708 102.393  0.00  0.00    +0.000 HD
ENDBRANCH  39  52
ENDBRANCH  29  31
ENDBRANCH   2  29
TORSDOF 14
ENDMDL
