MODEL 1
REMARK VINA RESULT:      -7.0      0.000      0.000
REMARK  Name = Progesterone.pdbqt.pdb
REMARK  1 active torsions:
REMARK  status: ('A' for Active; 'I' for Inactive)
REMARK    1  A    between atoms: C_7  and  C_21
REMARK                            x       y       z     vdW  Elec       q    Type
REMARK                         _______ _______ _______ _____ _____    ______ ____
ROOT
ATOM      1  O   UNL     1     150.828 113.989 119.195  0.00  0.00    +0.000 OA
ATOM      2  C   UNL     1     146.089 112.994 113.265  0.00  0.00    +0.000 C 
ATOM      3  C   UNL     1     145.761 114.189 112.215  0.00  0.00    +0.000 C 
ATOM      4  C   UNL     1     147.353 112.932 114.024  0.00  0.00    +0.000 C 
ATOM      5  C   UNL     1     148.363 114.038 114.155  0.00  0.00    +0.000 C 
ATOM      6  C   UNL     1     149.727 113.883 114.863  0.00  0.00    +0.000 C 
ATOM      7  C   UNL     1     144.325 114.508 112.508  0.00  0.00    +0.000 C 
ATOM      8  C   UNL     1     146.716 115.241 112.565  0.00  0.00    +0.000 C 
ATOM      9  C   UNL     1     147.945 115.194 113.439  0.00  0.00    +0.000 C 
ATOM     10  C   UNL     1     144.854 112.630 113.890  0.00  0.00    +0.000 C 
ATOM     11  C   UNL     1     147.662 111.818 114.839  0.00  0.00    +0.000 C 
ATOM     12  C   UNL     1     143.778 113.583 113.442  0.00  0.00    +0.000 C 
ATOM     13  C   UNL     1     149.819 112.628 115.940  0.00  0.00    +0.000 C 
ATOM     14  C   UNL     1     145.940 113.595 110.799  0.00  0.00    +0.000 C 
ATOM     15  C   UNL     1     148.825 111.633 115.767  0.00  0.00    +0.000 C 
ATOM     16  C   UNL     1     150.007 115.079 115.724  0.00  0.00    +0.000 C 
ATOM     17  C   UNL     1     150.843 113.658 113.808  0.00  0.00    +0.000 C 
ATOM     18  C   UNL     1     150.417 115.232 117.206  0.00  0.00    +0.000 C 
ATOM     19  C   UNL     1     150.211 112.900 117.167  0.00  0.00    +0.000 C 
ATOM     20  C   UNL     1     150.546 114.035 118.014  0.00  0.00    +0.000 C 
ENDROOT
BRANCH   7  21
ATOM     21  C   UNL     1     143.594 115.583 111.883  0.00  0.00    +0.000 C 
ATOM     22  O   UNL     1     142.962 115.494 110.844  0.00  0.00    +0.000 OA
ATOM     23  C   UNL     1     143.434 116.941 112.483  0.00  0.00    +0.000 C 
ENDBRANCH   7  21
TORSDOF 1
ENDMDL
MODEL 2
REMARK VINA RESULT:      -6.7     30.273     32.048
REMARK  Name = Progesterone.pdbqt.pdb
REMARK  1 active torsions:
REMARK  status: ('A' for Active; 'I' for Inactive)
REMARK    1  A    between atoms: C_7  and  C_21
REMARK                            x       y       z     vdW  Elec       q    Type
REMARK                         _______ _______ _______ _____ _____    ______ ____
ROOT
ATOM      1  O   UNL     1     136.136 135.987 142.100  0.00  0.00    +0.000 OA
ATOM      2  C   UNL     1     138.593 133.428 135.315  0.00  0.00    +0.000 C 
ATOM      3  C   UNL     1     138.405 134.289 133.951  0.00  0.00    +0.000 C 
ATOM      4  C   UNL     1     138.680 134.061 136.646  0.00  0.00    +0.000 C 
ATOM      5  C   UNL     1     138.351 135.493 136.968  0.00  0.00    +0.000 C 
ATOM      6  C   UNL     1     138.573 136.139 138.354  0.00  0.00    +0.000 C 
ATOM      7  C   UNL     1     137.393 133.488 133.187  0.00  0.00    +0.000 C 
ATOM      8  C   UNL     1     137.941 135.596 134.417  0.00  0.00    +0.000 C 
ATOM      9  C   UNL     1     137.928 136.191 135.804  0.00  0.00    +0.000 C 
ATOM     10  C   UNL     1     137.871 132.204 135.146  0.00  0.00    +0.000 C 
ATOM     11  C   UNL     1     138.965 133.298 137.802  0.00  0.00    +0.000 C 
ATOM     12  C   UNL     1     137.112 132.259 133.847  0.00  0.00    +0.000 C 
ATOM     13  C   UNL     1     138.678 135.071 139.617  0.00  0.00    +0.000 C 
ATOM     14  C   UNL     1     139.780 134.303 133.244  0.00  0.00    +0.000 C 
ATOM     15  C   UNL     1     138.974 133.739 139.234  0.00  0.00    +0.000 C 
ATOM     16  C   UNL     1     137.390 136.982 138.732  0.00  0.00    +0.000 C 
ATOM     17  C   UNL     1     139.888 136.961 138.345  0.00  0.00    +0.000 C 
ATOM     18  C   UNL     1     136.500 137.035 139.994  0.00  0.00    +0.000 C 
ATOM     19  C   UNL     1     137.873 135.253 140.643  0.00  0.00    +0.000 C 
ATOM     20  C   UNL     1     136.762 136.094 141.064  0.00  0.00    +0.000 C 
ENDROOT
BRANCH   7  21
ATOM     21  C   UNL     1     136.824 133.900 131.927  0.00  0.00    +0.000 C 
ATOM     22  O   UNL     1     137.406 133.889 130.855  0.00  0.00    +0.000 OA
ATOM     23  C   UNL     1     135.399 134.309 131.749  0.00  0.00    +0.000 C 
ENDBRANCH   7  21
TORSDOF 1
ENDMDL
MODEL 3
REMARK VINA RESULT:      -6.6     20.203     22.855
REMARK  Name = Progesterone.pdbqt.pdb
REMARK  1 active torsions:
REMARK  status: ('A' for Active; 'I' for Inactive)
REMARK    1  A    between atoms: C_7  and  C_21
REMARK                            x       y       z     vdW  Elec       q    Type
REMARK                         _______ _______ _______ _____ _____    ______ ____
ROOT
ATOM      1  O   UNL     1     157.155 130.340 120.495  0.00  0.00    +0.000 OA
ATOM      2  C   UNL     1     152.392 135.483 123.573  0.00  0.00    +0.000 C 
ATOM      3  C   UNL     1     151.145 135.045 124.516  0.00  0.00    +0.000 C 
ATOM      4  C   UNL     1     153.613 134.663 123.442  0.00  0.00    +0.000 C 
ATOM      5  C   UNL     1     153.780 133.244 123.909  0.00  0.00    +0.000 C 
ATOM      6  C   UNL     1     155.115 132.469 123.856  0.00  0.00    +0.000 C 
ATOM      7  C   UNL     1     149.952 135.372 123.668  0.00  0.00    +0.000 C 
ATOM      8  C   UNL     1     151.366 133.619 124.757  0.00  0.00    +0.000 C 
ATOM      9  C   UNL     1     152.584 132.764 124.510  0.00  0.00    +0.000 C 
ATOM     10  C   UNL     1     151.845 136.148 122.429  0.00  0.00    +0.000 C 
ATOM     11  C   UNL     1     154.730 135.127 122.710  0.00  0.00    +0.000 C 
ATOM     12  C   UNL     1     150.344 136.052 122.480  0.00  0.00    +0.000 C 
ATOM     13  C   UNL     1     156.226 133.059 122.777  0.00  0.00    +0.000 C 
ATOM     14  C   UNL     1     151.213 135.935 125.779  0.00  0.00    +0.000 C 
ATOM     15  C   UNL     1     155.994 134.396 122.370  0.00  0.00    +0.000 C 
ATOM     16  C   UNL     1     154.887 131.070 123.364  0.00  0.00    +0.000 C 
ATOM     17  C   UNL     1     155.788 132.486 125.254  0.00  0.00    +0.000 C 
ATOM     18  C   UNL     1     155.543 130.231 122.244  0.00  0.00    +0.000 C 
ATOM     19  C   UNL     1     156.725 132.222 121.891  0.00  0.00    +0.000 C 
ATOM     20  C   UNL     1     156.570 130.851 121.429  0.00  0.00    +0.000 C 
ENDROOT
BRANCH   7  21
ATOM     21  C   UNL     1     148.592 135.075 124.042  0.00  0.00    +0.000 C 
ATOM     22  O   UNL     1     148.058 135.411 125.085  0.00  0.00    +0.000 OA
ATOM     23  C   UNL     1     147.613 134.387 123.147  0.00  0.00    +0.000 C 
ENDBRANCH   7  21
TORSDOF 1
ENDMDL
MODEL 4
REMARK VINA RESULT:      -6.6     17.234     21.505
REMARK  Name = Progesterone.pdbqt.pdb
REMARK  1 active torsions:
REMARK  status: ('A' for Active; 'I' for Inactive)
REMARK    1  A    between atoms: C_7  and  C_21
REMARK                            x       y       z     vdW  Elec       q    Type
REMARK                         _______ _______ _______ _____ _____    ______ ____
ROOT
ATOM      1  O   UNL     1     143.409 125.442  92.399  0.00  0.00    +0.000 OA
ATOM      2  C   UNL     1     142.500 125.420 100.001  0.00  0.00    +0.000 C 
ATOM      3  C   UNL     1     143.260 126.487 100.962  0.00  0.00    +0.000 C 
ATOM      4  C   UNL     1     142.178 125.714  98.591  0.00  0.00    +0.000 C 
ATOM      5  C   UNL     1     142.711 126.864  97.782  0.00  0.00    +0.000 C 
ATOM      6  C   UNL     1     142.250 127.196  96.345  0.00  0.00    +0.000 C 
ATOM      7  C   UNL     1     144.243 125.630 101.702  0.00  0.00    +0.000 C 
ATOM      8  C   UNL     1     143.849 127.448 100.029  0.00  0.00    +0.000 C 
ATOM      9  C   UNL     1     143.595 127.663  98.558  0.00  0.00    +0.000 C 
ATOM     10  C   UNL     1     142.949 124.115 100.380  0.00  0.00    +0.000 C 
ATOM     11  C   UNL     1     141.410 124.816  97.814  0.00  0.00    +0.000 C 
ATOM     12  C   UNL     1     144.041 124.252 101.407  0.00  0.00    +0.000 C 
ATOM     13  C   UNL     1     141.551 125.938  95.524  0.00  0.00    +0.000 C 
ATOM     14  C   UNL     1     142.185 127.074 101.906  0.00  0.00    +0.000 C 
ATOM     15  C   UNL     1     141.089 124.885  96.351  0.00  0.00    +0.000 C 
ATOM     16  C   UNL     1     143.431 127.537  95.485  0.00  0.00    +0.000 C 
ATOM     17  C   UNL     1     141.210 128.348  96.381  0.00  0.00    +0.000 C 
ATOM     18  C   UNL     1     143.910 127.023  94.108  0.00  0.00    +0.000 C 
ATOM     19  C   UNL     1     142.046 125.624  94.345  0.00  0.00    +0.000 C 
ATOM     20  C   UNL     1     143.147 125.973  93.460  0.00  0.00    +0.000 C 
ENDROOT
BRANCH   7  21
ATOM     21  C   UNL     1     145.227 126.144 102.623  0.00  0.00    +0.000 C 
ATOM     22  O   UNL     1     145.035 126.363 103.808  0.00  0.00    +0.000 OA
ATOM     23  C   UNL     1     146.656 126.390 102.266  0.00  0.00    +0.000 C 
ENDBRANCH   7  21
TORSDOF 1
ENDMDL
MODEL 5
REMARK VINA RESULT:      -6.6      1.945      3.394
REMARK  Name = Progesterone.pdbqt.pdb
REMARK  1 active torsions:
REMARK  status: ('A' for Active; 'I' for Inactive)
REMARK    1  A    between atoms: C_7  and  C_21
REMARK                            x       y       z     vdW  Elec       q    Type
REMARK                         _______ _______ _______ _____ _____    ______ ____
ROOT
ATOM      1  O   UNL     1     149.903 113.576 122.428  0.00  0.00    +0.000 OA
ATOM      2  C   UNL     1     148.744 112.580 114.925  0.00  0.00    +0.000 C 
ATOM      3  C   UNL     1     148.829 113.812 113.870  0.00  0.00    +0.000 C 
ATOM      4  C   UNL     1     149.486 112.579 116.202  0.00  0.00    +0.000 C 
ATOM      5  C   UNL     1     150.176 113.760 116.826  0.00  0.00    +0.000 C 
ATOM      6  C   UNL     1     151.040 113.678 118.104  0.00  0.00    +0.000 C 
ATOM      7  C   UNL     1     147.403 113.978 113.435  0.00  0.00    +0.000 C 
ATOM      8  C   UNL     1     149.372 114.918 114.659  0.00  0.00    +0.000 C 
ATOM      9  C   UNL     1     150.025 114.920 116.018  0.00  0.00    +0.000 C 
ATOM     10  C   UNL     1     147.412 112.062 114.866  0.00  0.00    +0.000 C 
ATOM     11  C   UNL     1     149.489 111.443 117.044  0.00  0.00    +0.000 C 
ATOM     12  C   UNL     1     146.584 112.943 113.969  0.00  0.00    +0.000 C 
ATOM     13  C   UNL     1     150.744 112.363 119.068  0.00  0.00    +0.000 C 
ATOM     14  C   UNL     1     149.733 113.338 112.709  0.00  0.00    +0.000 C 
ATOM     15  C   UNL     1     150.076 111.298 118.416  0.00  0.00    +0.000 C 
ATOM     16  C   UNL     1     150.733 114.831 119.015  0.00  0.00    +0.000 C 
ATOM     17  C   UNL     1     152.542 113.631 117.720  0.00  0.00    +0.000 C 
ATOM     18  C   UNL     1     150.360 114.915 120.512  0.00  0.00    +0.000 C 
ATOM     19  C   UNL     1     150.464 112.582 120.336  0.00  0.00    +0.000 C 
ATOM     20  C   UNL     1     150.220 113.680 121.259  0.00  0.00    +0.000 C 
ENDROOT
BRANCH   7  21
ATOM     21  C   UNL     1     146.946 115.024 112.553  0.00  0.00    +0.000 C 
ATOM     22  O   UNL     1     147.662 115.704 111.838  0.00  0.00    +0.000 OA
ATOM     23  C   UNL     1     145.507 115.354 112.327  0.00  0.00    +0.000 C 
ENDBRANCH   7  21
TORSDOF 1
ENDMDL
MODEL 6
REMARK VINA RESULT:      -6.4     31.447     33.528
REMARK  Name = Progesterone.pdbqt.pdb
REMARK  1 active torsions:
REMARK  status: ('A' for Active; 'I' for Inactive)
REMARK    1  A    between atoms: C_7  and  C_21
REMARK                            x       y       z     vdW  Elec       q    Type
REMARK                         _______ _______ _______ _____ _____    ______ ____
ROOT
ATOM      1  O   UNL     1     143.094 142.638 135.541  0.00  0.00    +0.000 OA
ATOM      2  C   UNL     1     138.201 136.776 136.095  0.00  0.00    +0.000 C 
ATOM      3  C   UNL     1     138.685 135.288 136.529  0.00  0.00    +0.000 C 
ATOM      4  C   UNL     1     138.918 137.996 136.513  0.00  0.00    +0.000 C 
ATOM      5  C   UNL     1     140.286 138.049 137.135  0.00  0.00    +0.000 C 
ATOM      6  C   UNL     1     140.944 139.342 137.665  0.00  0.00    +0.000 C 
ATOM      7  C   UNL     1     138.516 134.499 135.264  0.00  0.00    +0.000 C 
ATOM      8  C   UNL     1     140.069 135.478 136.964  0.00  0.00    +0.000 C 
ATOM      9  C   UNL     1     140.830 136.743 137.277  0.00  0.00    +0.000 C 
ATOM     10  C   UNL     1     137.659 136.676 134.774  0.00  0.00    +0.000 C 
ATOM     11  C   UNL     1     138.406 139.282 136.223  0.00  0.00    +0.000 C 
ATOM     12  C   UNL     1     137.881 135.280 134.258  0.00  0.00    +0.000 C 
ATOM     13  C   UNL     1     140.329 140.749 137.041  0.00  0.00    +0.000 C 
ATOM     14  C   UNL     1     137.716 134.813 137.636  0.00  0.00    +0.000 C 
ATOM     15  C   UNL     1     139.045 140.617 136.457  0.00  0.00    +0.000 C 
ATOM     16  C   UNL     1     142.386 139.401 137.252  0.00  0.00    +0.000 C 
ATOM     17  C   UNL     1     140.782 139.421 139.206  0.00  0.00    +0.000 C 
ATOM     18  C   UNL     1     143.233 140.484 136.547  0.00  0.00    +0.000 C 
ATOM     19  C   UNL     1     141.173 141.597 136.491  0.00  0.00    +0.000 C 
ATOM     20  C   UNL     1     142.578 141.709 136.131  0.00  0.00    +0.000 C 
ENDROOT
BRANCH   7  21
ATOM     21  C   UNL     1     138.907 133.118 135.117  0.00  0.00    +0.000 C 
ATOM     22  O   UNL     1     138.762 132.252 135.963  0.00  0.00    +0.000 OA
ATOM     23  C   UNL     1     139.461 132.538 133.858  0.00  0.00    +0.000 C 
ENDBRANCH   7  21
TORSDOF 1
ENDMDL
MODEL 7
REMARK VINA RESULT:      -6.2     17.042     20.916
REMARK  Name = Progesterone.pdbqt.pdb
REMARK  1 active torsions:
REMARK  status: ('A' for Active; 'I' for Inactive)
REMARK    1  A    between atoms: C_7  and  C_21
REMARK                            x       y       z     vdW  Elec       q    Type
REMARK                         _______ _______ _______ _____ _____    ______ ____
ROOT
ATOM      1  O   UNL     1     142.674 125.586  92.441  0.00  0.00    +0.000 OA
ATOM      2  C   UNL     1     144.969 124.951  99.718  0.00  0.00    +0.000 C 
ATOM      3  C   UNL     1     144.095 125.546 100.951  0.00  0.00    +0.000 C 
ATOM      4  C   UNL     1     144.356 124.535  98.441  0.00  0.00    +0.000 C 
ATOM      5  C   UNL     1     142.951 124.833  97.994  0.00  0.00    +0.000 C 
ATOM      6  C   UNL     1     142.319 124.274  96.701  0.00  0.00    +0.000 C 
ATOM      7  C   UNL     1     144.937 126.687 101.438  0.00  0.00    +0.000 C 
ATOM      8  C   UNL     1     142.825 125.928 100.334  0.00  0.00    +0.000 C 
ATOM      9  C   UNL     1     142.257 125.591  98.977  0.00  0.00    +0.000 C 
ATOM     10  C   UNL     1     146.228 125.631  99.724  0.00  0.00    +0.000 C 
ATOM     11  C   UNL     1     145.123 123.909  97.431  0.00  0.00    +0.000 C 
ATOM     12  C   UNL     1     146.192 126.717 100.766  0.00  0.00    +0.000 C 
ATOM     13  C   UNL     1     143.402 123.777  95.549  0.00  0.00    +0.000 C 
ATOM     14  C   UNL     1     143.992 124.418 102.003  0.00  0.00    +0.000 C 
ATOM     15  C   UNL     1     144.708 123.531  96.041  0.00  0.00    +0.000 C 
ATOM     16  C   UNL     1     141.550 125.348  95.989  0.00  0.00    +0.000 C 
ATOM     17  C   UNL     1     141.424 123.052  97.040  0.00  0.00    +0.000 C 
ATOM     18  C   UNL     1     141.569 125.862  94.532  0.00  0.00    +0.000 C 
ATOM     19  C   UNL     1     143.283 124.278  94.338  0.00  0.00    +0.000 C 
ATOM     20  C   UNL     1     142.514 125.272  93.604  0.00  0.00    +0.000 C 
ENDROOT
BRANCH   7  21
ATOM     21  C   UNL     1     144.535 127.597 102.482  0.00  0.00    +0.000 C 
ATOM     22  O   UNL     1     143.463 128.175 102.538  0.00  0.00    +0.000 OA
ATOM     23  C   UNL     1     145.352 127.883 103.699  0.00  0.00    +0.000 C 
ENDBRANCH   7  21
TORSDOF 1
ENDMDL
MODEL 8
REMARK VINA RESULT:      -6.2     18.753     22.041
REMARK  Name = Progesterone.pdbqt.pdb
REMARK  1 active torsions:
REMARK  status: ('A' for Active; 'I' for Inactive)
REMARK    1  A    between atoms: C_7  and  C_21
REMARK                            x       y       z     vdW  Elec       q    Type
REMARK                         _______ _______ _______ _____ _____    ______ ____
ROOT
ATOM      1  O   UNL     1     140.973 123.133  99.425  0.00  0.00    +0.000 OA
ATOM      2  C   UNL     1     147.276 126.840  97.155  0.00  0.00    +0.000 C 
ATOM      3  C   UNL     1     147.293 127.776  95.828  0.00  0.00    +0.000 C 
ATOM      4  C   UNL     1     146.046 126.593  97.934  0.00  0.00    +0.000 C 
ATOM      5  C   UNL     1     144.643 126.915  97.499  0.00  0.00    +0.000 C 
ATOM      6  C   UNL     1     143.400 126.746  98.400  0.00  0.00    +0.000 C 
ATOM      7  C   UNL     1     148.163 127.000  94.884  0.00  0.00    +0.000 C 
ATOM      8  C   UNL     1     145.885 127.870  95.442  0.00  0.00    +0.000 C 
ATOM      9  C   UNL     1     144.636 127.504  96.205  0.00  0.00    +0.000 C 
ATOM     10  C   UNL     1     148.217 125.784  96.942  0.00  0.00    +0.000 C 
ATOM     11  C   UNL     1     146.083 125.875  99.151  0.00  0.00    +0.000 C 
ATOM     12  C   UNL     1     148.739 125.871  95.532  0.00  0.00    +0.000 C 
ATOM     13  C   UNL     1     143.589 125.695  99.667  0.00  0.00    +0.000 C 
ATOM     14  C   UNL     1     147.945 129.116  96.240  0.00  0.00    +0.000 C 
ATOM     15  C   UNL     1     144.938 125.427 100.008  0.00  0.00    +0.000 C 
ATOM     16  C   UNL     1     142.274 126.128  97.623  0.00  0.00    +0.000 C 
ATOM     17  C   UNL     1     142.999 128.118  99.004  0.00  0.00    +0.000 C 
ATOM     18  C   UNL     1     141.358 124.913  97.891  0.00  0.00    +0.000 C 
ATOM     19  C   UNL     1     142.716 124.718  99.789  0.00  0.00    +0.000 C 
ATOM     20  C   UNL     1     141.582 124.130  99.090  0.00  0.00    +0.000 C 
ENDROOT
BRANCH   7  21
ATOM     21  C   UNL     1     148.412 127.385  93.516  0.00  0.00    +0.000 C 
ATOM     22  O   UNL     1     147.659 127.179  92.579  0.00  0.00    +0.000 OA
ATOM     23  C   UNL     1     149.596 128.182  93.077  0.00  0.00    +0.000 C 
ENDBRANCH   7  21
TORSDOF 1
ENDMDL
MODEL 9
REMARK VINA RESULT:      -6.0     10.502     13.311
REMARK  Name = Progesterone.pdbqt.pdb
REMARK  1 active torsions:
REMARK  status: ('A' for Active; 'I' for Inactive)
REMARK    1  A    between atoms: C_7  and  C_21
REMARK                            x       y       z     vdW  Elec       q    Type
REMARK                         _______ _______ _______ _____ _____    ______ ____
ROOT
ATOM      1  O   UNL     1     157.114 117.928 114.218  0.00  0.00    +0.000 OA
ATOM      2  C   UNL     1     154.819 124.811 116.661  0.00  0.00    +0.000 C 
ATOM      3  C   UNL     1     154.512 126.031 115.634  0.00  0.00    +0.000 C 
ATOM      4  C   UNL     1     154.695 123.394 116.268  0.00  0.00    +0.000 C 
ATOM      5  C   UNL     1     154.546 122.875 114.865  0.00  0.00    +0.000 C 
ATOM      6  C   UNL     1     154.300 121.390 114.515  0.00  0.00    +0.000 C 
ATOM      7  C   UNL     1     155.627 126.994 115.914  0.00  0.00    +0.000 C 
ATOM      8  C   UNL     1     154.549 125.401 114.314  0.00  0.00    +0.000 C 
ATOM      9  C   UNL     1     154.540 123.943 113.926  0.00  0.00    +0.000 C 
ATOM     10  C   UNL     1     155.893 125.232 117.509  0.00  0.00    +0.000 C 
ATOM     11  C   UNL     1     154.851 122.356 117.215  0.00  0.00    +0.000 C 
ATOM     12  C   UNL     1     156.404 126.563 117.027  0.00  0.00    +0.000 C 
ATOM     13  C   UNL     1     154.743 120.310 115.691  0.00  0.00    +0.000 C 
ATOM     14  C   UNL     1     153.137 126.612 116.037  0.00  0.00    +0.000 C 
ATOM     15  C   UNL     1     154.881 120.875 116.983  0.00  0.00    +0.000 C 
ATOM     16  C   UNL     1     155.154 120.980 113.351  0.00  0.00    +0.000 C 
ATOM     17  C   UNL     1     152.792 121.160 114.233  0.00  0.00    +0.000 C 
ATOM     18  C   UNL     1     156.130 119.803 113.129  0.00  0.00    +0.000 C 
ATOM     19  C   UNL     1     155.563 119.337 115.353  0.00  0.00    +0.000 C 
ATOM     20  C   UNL     1     156.357 118.879 114.223  0.00  0.00    +0.000 C 
ENDROOT
BRANCH   7  21
ATOM     21  C   UNL     1     155.843 128.214 115.176  0.00  0.00    +0.000 C 
ATOM     22  O   UNL     1     155.217 128.559 114.188  0.00  0.00    +0.000 OA
ATOM     23  C   UNL     1     156.811 129.275 115.584  0.00  0.00    +0.000 C 
ENDBRANCH   7  21
TORSDOF 1
ENDMDL
