MODEL 1
REMARK VINA RESULT:      -7.2      0.000      0.000
REMARK  Name = Quercetin.pdbqt.pdb
REMARK  6 active torsions:
REMARK  status: ('A' for Active; 'I' for Inactive)
REMARK    1  A    between atoms: C_5  and  C_12
REMARK    2  A    between atoms: C_6  and  O_22
REMARK    3  A    between atoms: C_8  and  O_24
REMARK    4  A    between atoms: C_10  and  O_26
REMARK    5  A    between atoms: C_15  and  O_18
REMARK    6  A    between atoms: C_17  and  O_20
REMARK                            x       y       z     vdW  Elec       q    Type
REMARK                         _______ _______ _______ _____ _____    ______ ____
ROOT
ATOM      1  O   UNL     1     144.642 127.936  99.673  0.00  0.00    +0.000 OA
ATOM      2  O   UNL     1     146.279 125.566 102.542  0.00  0.00    +0.000 OA
ATOM      3  C   UNL     1     144.382 126.624 101.696  0.00  0.00    +0.000 A 
ATOM      4  C   UNL     1     143.874 127.441 100.692  0.00  0.00    +0.000 A 
ATOM      5  C   UNL     1     145.986 127.597  99.621  0.00  0.00    +0.000 A 
ATOM      6  C   UNL     1     146.616 126.825 100.533  0.00  0.00    +0.000 A 
ATOM      7  C   UNL     1     145.806 126.279 101.660  0.00  0.00    +0.000 A 
ATOM      8  C   UNL     1     143.537 126.155 102.710  0.00  0.00    +0.000 A 
ATOM      9  C   UNL     1     142.526 127.795 100.693  0.00  0.00    +0.000 A 
ATOM     10  C   UNL     1     141.696 127.323 101.704  0.00  0.00    +0.000 A 
ATOM     11  C   UNL     1     142.190 126.505 102.715  0.00  0.00    +0.000 A 
ENDROOT
BRANCH   5  12
ATOM     12  C   UNL     1     146.659 128.189  98.456  0.00  0.00    +0.000 A 
ATOM     13  C   UNL     1     147.759 129.038  98.614  0.00  0.00    +0.000 A 
ATOM     14  C   UNL     1     146.234 127.850  97.165  0.00  0.00    +0.000 A 
ATOM     15  C   UNL     1     148.399 129.553  97.494  0.00  0.00    +0.000 A 
ATOM     16  C   UNL     1     146.889 128.355  96.043  0.00  0.00    +0.000 A 
ATOM     17  C   UNL     1     147.982 129.193  96.217  0.00  0.00    +0.000 A 
BRANCH  15  18
ATOM     18  O   UNL     1     149.417 130.443  97.672  0.00  0.00    +0.000 OA
ATOM     19  H   UNL     1     150.012 130.066  98.347  0.00  0.00    +0.000 HD
ENDBRANCH  15  18
BRANCH  17  20
ATOM     20  O   UNL     1     148.656 129.641  95.119  0.00  0.00    +0.000 OA
ATOM     21  H   UNL     1     148.123 130.365  94.742  0.00  0.00    +0.000 HD
ENDBRANCH  17  20
ENDBRANCH   5  12
BRANCH   6  22
ATOM     22  O   UNL     1     147.961 126.509 100.521  0.00  0.00    +0.000 OA
ATOM     23  H   UNL     1     148.372 126.821  99.699  0.00  0.00    +0.000 HD
ENDBRANCH   6  22
BRANCH   8  24
ATOM     24  O   UNL     1     143.969 125.350 103.730  0.00  0.00    +0.000 OA
ATOM     25  H   UNL     1     143.907 125.858 104.572  0.00  0.00    +0.000 HD
ENDBRANCH   8  24
BRANCH  10  26
ATOM     26  O   UNL     1     140.380 127.683 101.683  0.00  0.00    +0.000 OA
ATOM     27  H   UNL     1     140.292 128.480 101.131  0.00  0.00    +0.000 HD
ENDBRANCH  10  26
TORSDOF 6
ENDMDL
MODEL 2
REMARK VINA RESULT:      -7.2      1.384      3.048
REMARK  Name = Quercetin.pdbqt.pdb
REMARK  6 active torsions:
REMARK  status: ('A' for Active; 'I' for Inactive)
REMARK    1  A    between atoms: C_5  and  C_12
REMARK    2  A    between atoms: C_6  and  O_22
REMARK    3  A    between atoms: C_8  and  O_24
REMARK    4  A    between atoms: C_10  and  O_26
REMARK    5  A    between atoms: C_15  and  O_18
REMARK    6  A    between atoms: C_17  and  O_20
REMARK                            x       y       z     vdW  Elec       q    Type
REMARK                         _______ _______ _______ _____ _____    ______ ____
ROOT
ATOM      1  O   UNL     1     146.527 127.614 100.671  0.00  0.00    +0.000 OA
ATOM      2  O   UNL     1     142.505 127.762 101.246  0.00  0.00    +0.000 OA
ATOM      3  C   UNL     1     144.613 127.294 102.125  0.00  0.00    +0.000 A 
ATOM      4  C   UNL     1     145.980 127.259 101.873  0.00  0.00    +0.000 A 
ATOM      5  C   UNL     1     145.687 128.047  99.654  0.00  0.00    +0.000 A 
ATOM      6  C   UNL     1     144.342 128.120  99.753  0.00  0.00    +0.000 A 
ATOM      7  C   UNL     1     143.718 127.732 101.050  0.00  0.00    +0.000 A 
ATOM      8  C   UNL     1     144.123 126.915 103.381  0.00  0.00    +0.000 A 
ATOM      9  C   UNL     1     146.864 126.846 102.869  0.00  0.00    +0.000 A 
ATOM     10  C   UNL     1     146.367 126.472 104.113  0.00  0.00    +0.000 A 
ATOM     11  C   UNL     1     145.002 126.503 104.378  0.00  0.00    +0.000 A 
ENDROOT
BRANCH   5  12
ATOM     12  C   UNL     1     146.433 128.411  98.441  0.00  0.00    +0.000 A 
ATOM     13  C   UNL     1     147.562 129.233  98.510  0.00  0.00    +0.000 A 
ATOM     14  C   UNL     1     146.046 127.880  97.204  0.00  0.00    +0.000 A 
ATOM     15  C   UNL     1     148.270 129.531  97.353  0.00  0.00    +0.000 A 
ATOM     16  C   UNL     1     146.768 128.167  96.047  0.00  0.00    +0.000 A 
ATOM     17  C   UNL     1     147.889 128.981  96.133  0.00  0.00    +0.000 A 
BRANCH  15  18
ATOM     18  O   UNL     1     149.319 130.399  97.430  0.00  0.00    +0.000 OA
ATOM     19  H   UNL     1     149.952 130.146  96.733  0.00  0.00    +0.000 HD
ENDBRANCH  15  18
BRANCH  17  20
ATOM     20  O   UNL     1     148.627 129.215  95.010  0.00  0.00    +0.000 OA
ATOM     21  H   UNL     1     148.049 129.703  94.395  0.00  0.00    +0.000 HD
ENDBRANCH  17  20
ENDBRANCH   5  12
BRANCH   6  22
ATOM     22  O   UNL     1     143.487 128.511  98.740  0.00  0.00    +0.000 OA
ATOM     23  H   UNL     1     143.948 129.094  98.117  0.00  0.00    +0.000 HD
ENDBRANCH   6  22
BRANCH   8  24
ATOM     24  O   UNL     1     142.791 126.924 103.698  0.00  0.00    +0.000 OA
ATOM     25  H   UNL     1     142.657 126.344 104.484  0.00  0.00    +0.000 HD
ENDBRANCH   8  24
BRANCH  10  26
ATOM     26  O   UNL     1     147.252 126.072 105.071  0.00  0.00    +0.000 OA
ATOM     27  H   UNL     1     148.149 126.304 104.771  0.00  0.00    +0.000 HD
ENDBRANCH  10  26
TORSDOF 6
ENDMDL
MODEL 3
REMARK VINA RESULT:      -7.0      3.736      5.813
REMARK  Name = Quercetin.pdbqt.pdb
REMARK  6 active torsions:
REMARK  status: ('A' for Active; 'I' for Inactive)
REMARK    1  A    between atoms: C_5  and  C_12
REMARK    2  A    between atoms: C_6  and  O_22
REMARK    3  A    between atoms: C_8  and  O_24
REMARK    4  A    between atoms: C_10  and  O_26
REMARK    5  A    between atoms: C_15  and  O_18
REMARK    6  A    between atoms: C_17  and  O_20
REMARK                            x       y       z     vdW  Elec       q    Type
REMARK                         _______ _______ _______ _____ _____    ______ ____
ROOT
ATOM      1  O   UNL     1     143.890 125.054 101.158  0.00  0.00    +0.000 OA
ATOM      2  O   UNL     1     146.442 127.985  99.967  0.00  0.00    +0.000 OA
ATOM      3  C   UNL     1     145.362 126.896 101.723  0.00  0.00    +0.000 A 
ATOM      4  C   UNL     1     144.480 125.881 102.075  0.00  0.00    +0.000 A 
ATOM      5  C   UNL     1     144.194 125.217  99.815  0.00  0.00    +0.000 A 
ATOM      6  C   UNL     1     145.022 126.167  99.328  0.00  0.00    +0.000 A 
ATOM      7  C   UNL     1     145.673 127.088 100.303  0.00  0.00    +0.000 A 
ATOM      8  C   UNL     1     145.928 127.707 102.715  0.00  0.00    +0.000 A 
ATOM      9  C   UNL     1     144.157 125.669 103.414  0.00  0.00    +0.000 A 
ATOM     10  C   UNL     1     144.725 126.479 104.392  0.00  0.00    +0.000 A 
ATOM     11  C   UNL     1     145.609 127.498 104.053  0.00  0.00    +0.000 A 
ENDROOT
BRANCH   5  12
ATOM     12  C   UNL     1     143.498 124.237  98.969  0.00  0.00    +0.000 A 
ATOM     13  C   UNL     1     142.103 124.238  98.864  0.00  0.00    +0.000 A 
ATOM     14  C   UNL     1     144.242 123.326  98.207  0.00  0.00    +0.000 A 
ATOM     15  C   UNL     1     141.474 123.324  98.029  0.00  0.00    +0.000 A 
ATOM     16  C   UNL     1     143.608 122.422  97.357  0.00  0.00    +0.000 A 
ATOM     17  C   UNL     1     142.224 122.440  97.261  0.00  0.00    +0.000 A 
BRANCH  15  18
ATOM     18  O   UNL     1     140.111 123.289  98.004  0.00  0.00    +0.000 OA
ATOM     19  H   UNL     1     139.842 122.410  98.332  0.00  0.00    +0.000 HD
ENDBRANCH  15  18
BRANCH  17  20
ATOM     20  O   UNL     1     141.609 121.593  96.386  0.00  0.00    +0.000 OA
ATOM     21  H   UNL     1     141.129 120.936  96.925  0.00  0.00    +0.000 HD
ENDBRANCH  17  20
ENDBRANCH   5  12
BRANCH   6  22
ATOM     22  O   UNL     1     145.306 126.371  97.991  0.00  0.00    +0.000 OA
ATOM     23  H   UNL     1     145.371 125.520  97.528  0.00  0.00    +0.000 HD
ENDBRANCH   6  22
BRANCH   8  24
ATOM     24  O   UNL     1     146.802 128.724 102.441  0.00  0.00    +0.000 OA
ATOM     25  H   UNL     1     146.481 129.200 101.639  0.00  0.00    +0.000 HD
ENDBRANCH   8  24
BRANCH  10  26
ATOM     26  O   UNL     1     144.393 126.251 105.695  0.00  0.00    +0.000 OA
ATOM     27  H   UNL     1     144.709 125.361 105.937  0.00  0.00    +0.000 HD
ENDBRANCH  10  26
TORSDOF 6
ENDMDL
MODEL 4
REMARK VINA RESULT:      -6.9     33.452     36.384
REMARK  Name = Quercetin.pdbqt.pdb
REMARK  6 active torsions:
REMARK  status: ('A' for Active; 'I' for Inactive)
REMARK    1  A    between atoms: C_5  and  C_12
REMARK    2  A    between atoms: C_6  and  O_22
REMARK    3  A    between atoms: C_8  and  O_24
REMARK    4  A    between atoms: C_10  and  O_26
REMARK    5  A    between atoms: C_15  and  O_18
REMARK    6  A    between atoms: C_17  and  O_20
REMARK                            x       y       z     vdW  Elec       q    Type
REMARK                         _______ _______ _______ _____ _____    ______ ____
ROOT
ATOM      1  O   UNL     1     137.144 121.682 134.566  0.00  0.00    +0.000 OA
ATOM      2  O   UNL     1     133.378 122.743 135.667  0.00  0.00    +0.000 OA
ATOM      3  C   UNL     1     134.935 121.040 135.332  0.00  0.00    +0.000 A 
ATOM      4  C   UNL     1     136.234 120.733 134.943  0.00  0.00    +0.000 A 
ATOM      5  C   UNL     1     136.769 123.017 134.586  0.00  0.00    +0.000 A 
ATOM      6  C   UNL     1     135.540 123.460 134.929  0.00  0.00    +0.000 A 
ATOM      7  C   UNL     1     134.524 122.447 135.336  0.00  0.00    +0.000 A 
ATOM      8  C   UNL     1     134.055 120.016 135.705  0.00  0.00    +0.000 A 
ATOM      9  C   UNL     1     136.662 119.407 134.923  0.00  0.00    +0.000 A 
ATOM     10  C   UNL     1     135.781 118.397 135.296  0.00  0.00    +0.000 A 
ATOM     11  C   UNL     1     134.479 118.691 135.686  0.00  0.00    +0.000 A 
ENDROOT
BRANCH   5  12
ATOM     12  C   UNL     1     137.866 123.905 134.178  0.00  0.00    +0.000 A 
ATOM     13  C   UNL     1     137.743 124.733 133.058  0.00  0.00    +0.000 A 
ATOM     14  C   UNL     1     139.030 123.971 134.955  0.00  0.00    +0.000 A 
ATOM     15  C   UNL     1     138.782 125.590 132.716  0.00  0.00    +0.000 A 
ATOM     16  C   UNL     1     140.064 124.844 134.619  0.00  0.00    +0.000 A 
ATOM     17  C   UNL     1     139.923 125.662 133.507  0.00  0.00    +0.000 A 
BRANCH  15  18
ATOM     18  O   UNL     1     138.675 126.328 131.575  0.00  0.00    +0.000 OA
ATOM     19  H   UNL     1     137.732 126.336 131.326  0.00  0.00    +0.000 HD
ENDBRANCH  15  18
BRANCH  17  20
ATOM     20  O   UNL     1     140.911 126.556 133.213  0.00  0.00    +0.000 OA
ATOM     21  H   UNL     1     140.538 127.178 132.560  0.00  0.00    +0.000 HD
ENDBRANCH  17  20
ENDBRANCH   5  12
BRANCH   6  22
ATOM     22  O   UNL     1     135.134 124.781 134.917  0.00  0.00    +0.000 OA
ATOM     23  H   UNL     1     134.814 125.041 135.795  0.00  0.00    +0.000 HD
ENDBRANCH   6  22
BRANCH   8  24
ATOM     24  O   UNL     1     132.764 120.245 136.096  0.00  0.00    +0.000 OA
ATOM     25  H   UNL     1     132.237 119.432 135.914  0.00  0.00    +0.000 HD
ENDBRANCH   8  24
BRANCH  10  26
ATOM     26  O   UNL     1     136.224 117.107 135.268  0.00  0.00    +0.000 OA
ATOM     27  H   UNL     1     135.545 116.563 134.830  0.00  0.00    +0.000 HD
ENDBRANCH  10  26
TORSDOF 6
ENDMDL
MODEL 5
REMARK VINA RESULT:      -6.9      2.343      2.832
REMARK  Name = Quercetin.pdbqt.pdb
REMARK  6 active torsions:
REMARK  status: ('A' for Active; 'I' for Inactive)
REMARK    1  A    between atoms: C_5  and  C_12
REMARK    2  A    between atoms: C_6  and  O_22
REMARK    3  A    between atoms: C_8  and  O_24
REMARK    4  A    between atoms: C_10  and  O_26
REMARK    5  A    between atoms: C_15  and  O_18
REMARK    6  A    between atoms: C_17  and  O_20
REMARK                            x       y       z     vdW  Elec       q    Type
REMARK                         _______ _______ _______ _____ _____    ______ ____
ROOT
ATOM      1  O   UNL     1     144.172 127.251  99.415  0.00  0.00    +0.000 OA
ATOM      2  O   UNL     1     143.772 123.315  98.480  0.00  0.00    +0.000 OA
ATOM      3  C   UNL     1     142.873 125.206  99.505  0.00  0.00    +0.000 A 
ATOM      4  C   UNL     1     143.062 126.551  99.802  0.00  0.00    +0.000 A 
ATOM      5  C   UNL     1     145.152 126.601  98.679  0.00  0.00    +0.000 A 
ATOM      6  C   UNL     1     145.107 125.297  98.331  0.00  0.00    +0.000 A 
ATOM      7  C   UNL     1     143.913 124.507  98.745  0.00  0.00    +0.000 A 
ATOM      8  C   UNL     1     141.711 124.551  99.935  0.00  0.00    +0.000 A 
ATOM      9  C   UNL     1     142.097 127.250 100.525  0.00  0.00    +0.000 A 
ATOM     10  C   UNL     1     140.946 126.591 100.946  0.00  0.00    +0.000 A 
ATOM     11  C   UNL     1     140.745 125.246 100.657  0.00  0.00    +0.000 A 
ENDROOT
BRANCH   5  12
ATOM     12  C   UNL     1     146.261 127.498  98.325  0.00  0.00    +0.000 A 
ATOM     13  C   UNL     1     146.492 127.867  96.996  0.00  0.00    +0.000 A 
ATOM     14  C   UNL     1     147.063 128.041  99.337  0.00  0.00    +0.000 A 
ATOM     15  C   UNL     1     147.525 128.746  96.694  0.00  0.00    +0.000 A 
ATOM     16  C   UNL     1     148.088 128.935  99.033  0.00  0.00    +0.000 A 
ATOM     17  C   UNL     1     148.301 129.295  97.709  0.00  0.00    +0.000 A 
BRANCH  15  18
ATOM     18  O   UNL     1     147.784 129.029  95.385  0.00  0.00    +0.000 OA
ATOM     19  H   UNL     1     146.987 128.789  94.877  0.00  0.00    +0.000 HD
ENDBRANCH  15  18
BRANCH  17  20
ATOM     20  O   UNL     1     149.267 130.214  97.419  0.00  0.00    +0.000 OA
ATOM     21  H   UNL     1     148.822 130.948  96.955  0.00  0.00    +0.000 HD
ENDBRANCH  17  20
ENDBRANCH   5  12
BRANCH   6  22
ATOM     22  O   UNL     1     146.091 124.622  97.632  0.00  0.00    +0.000 OA
ATOM     23  H   UNL     1     146.888 125.169  97.562  0.00  0.00    +0.000 HD
ENDBRANCH   6  22
BRANCH   8  24
ATOM     24  O   UNL     1     141.460 123.230  99.681  0.00  0.00    +0.000 OA
ATOM     25  H   UNL     1     140.993 122.849 100.462  0.00  0.00    +0.000 HD
ENDBRANCH   8  24
BRANCH  10  26
ATOM     26  O   UNL     1     140.017 127.297 101.652  0.00  0.00    +0.000 OA
ATOM     27  H   UNL     1     139.227 127.403 101.093  0.00  0.00    +0.000 HD
ENDBRANCH  10  26
TORSDOF 6
ENDMDL
MODEL 6
REMARK VINA RESULT:      -6.7      4.512      5.564
REMARK  Name = Quercetin.pdbqt.pdb
REMARK  6 active torsions:
REMARK  status: ('A' for Active; 'I' for Inactive)
REMARK    1  A    between atoms: C_5  and  C_12
REMARK    2  A    between atoms: C_6  and  O_22
REMARK    3  A    between atoms: C_8  and  O_24
REMARK    4  A    between atoms: C_10  and  O_26
REMARK    5  A    between atoms: C_15  and  O_18
REMARK    6  A    between atoms: C_17  and  O_20
REMARK                            x       y       z     vdW  Elec       q    Type
REMARK                         _______ _______ _______ _____ _____    ______ ____
ROOT
ATOM      1  O   UNL     1     142.983 125.307  98.592  0.00  0.00    +0.000 OA
ATOM      2  O   UNL     1     144.202 124.069 102.267  0.00  0.00    +0.000 OA
ATOM      3  C   UNL     1     143.194 125.725 100.971  0.00  0.00    +0.000 A 
ATOM      4  C   UNL     1     142.801 126.100  99.692  0.00  0.00    +0.000 A 
ATOM      5  C   UNL     1     143.572 124.062  98.754  0.00  0.00    +0.000 A 
ATOM      6  C   UNL     1     144.014 123.573  99.932  0.00  0.00    +0.000 A 
ATOM      7  C   UNL     1     143.836 124.419 101.147  0.00  0.00    +0.000 A 
ATOM      8  C   UNL     1     142.977 126.589 102.052  0.00  0.00    +0.000 A 
ATOM      9  C   UNL     1     142.190 127.335  99.483  0.00  0.00    +0.000 A 
ATOM     10  C   UNL     1     141.977 128.186 100.563  0.00  0.00    +0.000 A 
ATOM     11  C   UNL     1     142.367 127.823 101.848  0.00  0.00    +0.000 A 
ENDROOT
BRANCH   5  12
ATOM     12  C   UNL     1     143.672 123.330  97.483  0.00  0.00    +0.000 A 
ATOM     13  C   UNL     1     142.676 122.431  97.090  0.00  0.00    +0.000 A 
ATOM     14  C   UNL     1     144.749 123.580  96.622  0.00  0.00    +0.000 A 
ATOM     15  C   UNL     1     142.777 121.781  95.866  0.00  0.00    +0.000 A 
ATOM     16  C   UNL     1     144.840 122.939  95.388  0.00  0.00    +0.000 A 
ATOM     17  C   UNL     1     143.840 122.053  95.011  0.00  0.00    +0.000 A 
BRANCH  15  18
ATOM     18  O   UNL     1     141.838 120.848  95.539  0.00  0.00    +0.000 OA
ATOM     19  H   UNL     1     141.603 120.995  94.604  0.00  0.00    +0.000 HD
ENDBRANCH  15  18
BRANCH  17  20
ATOM     20  O   UNL     1     143.900 121.470  93.779  0.00  0.00    +0.000 OA
ATOM     21  H   UNL     1     142.979 121.354  93.481  0.00  0.00    +0.000 HD
ENDBRANCH  17  20
ENDBRANCH   5  12
BRANCH   6  22
ATOM     22  O   UNL     1     144.639 122.352 100.108  0.00  0.00    +0.000 OA
ATOM     23  H   UNL     1     145.268 122.401 100.845  0.00  0.00    +0.000 HD
ENDBRANCH   6  22
BRANCH   8  24
ATOM     24  O   UNL     1     143.340 126.286 103.336  0.00  0.00    +0.000 OA
ATOM     25  H   UNL     1     142.753 126.786 103.950  0.00  0.00    +0.000 HD
ENDBRANCH   8  24
BRANCH  10  26
ATOM     26  O   UNL     1     141.378 129.389 100.333  0.00  0.00    +0.000 OA
ATOM     27  H   UNL     1     142.015 129.962  99.870  0.00  0.00    +0.000 HD
ENDBRANCH  10  26
TORSDOF 6
ENDMDL
MODEL 7
REMARK VINA RESULT:      -6.5     34.040     36.796
REMARK  Name = Quercetin.pdbqt.pdb
REMARK  6 active torsions:
REMARK  status: ('A' for Active; 'I' for Inactive)
REMARK    1  A    between atoms: C_5  and  C_12
REMARK    2  A    between atoms: C_6  and  O_22
REMARK    3  A    between atoms: C_8  and  O_24
REMARK    4  A    between atoms: C_10  and  O_26
REMARK    5  A    between atoms: C_15  and  O_18
REMARK    6  A    between atoms: C_17  and  O_20
REMARK                            x       y       z     vdW  Elec       q    Type
REMARK                         _______ _______ _______ _____ _____    ______ ____
ROOT
ATOM      1  O   UNL     1     135.119 122.726 135.190  0.00  0.00    +0.000 OA
ATOM      2  O   UNL     1     135.003 118.711 134.567  0.00  0.00    +0.000 OA
ATOM      3  C   UNL     1     133.889 120.637 135.262  0.00  0.00    +0.000 A 
ATOM      4  C   UNL     1     133.985 122.010 135.460  0.00  0.00    +0.000 A 
ATOM      5  C   UNL     1     136.225 122.063 134.679  0.00  0.00    +0.000 A 
ATOM      6  C   UNL     1     136.279 120.733 134.449  0.00  0.00    +0.000 A 
ATOM      7  C   UNL     1     135.061 119.926 134.741  0.00  0.00    +0.000 A 
ATOM      8  C   UNL     1     132.696 119.968 135.562  0.00  0.00    +0.000 A 
ATOM      9  C   UNL     1     132.894 122.722 135.957  0.00  0.00    +0.000 A 
ATOM     10  C   UNL     1     131.713 122.049 136.251  0.00  0.00    +0.000 A 
ATOM     11  C   UNL     1     131.605 120.675 136.058  0.00  0.00    +0.000 A 
ENDROOT
BRANCH   5  12
ATOM     12  C   UNL     1     137.347 122.977 134.423  0.00  0.00    +0.000 A 
ATOM     13  C   UNL     1     137.304 123.890 133.364  0.00  0.00    +0.000 A 
ATOM     14  C   UNL     1     138.449 122.980 135.287  0.00  0.00    +0.000 A 
ATOM     15  C   UNL     1     138.362 124.768 133.168  0.00  0.00    +0.000 A 
ATOM     16  C   UNL     1     139.502 123.874 135.097  0.00  0.00    +0.000 A 
ATOM     17  C   UNL     1     139.442 124.776 134.044  0.00  0.00    +0.000 A 
BRANCH  15  18
ATOM     18  O   UNL     1     138.338 125.593 132.082  0.00  0.00    +0.000 OA
ATOM     19  H   UNL     1     138.169 125.033 131.301  0.00  0.00    +0.000 HD
ENDBRANCH  15  18
BRANCH  17  20
ATOM     20  O   UNL     1     140.446 125.688 133.894  0.00  0.00    +0.000 OA
ATOM     21  H   UNL     1     141.283 125.201 134.014  0.00  0.00    +0.000 HD
ENDBRANCH  17  20
ENDBRANCH   5  12
BRANCH   6  22
ATOM     22  O   UNL     1     137.383 120.048 133.977  0.00  0.00    +0.000 OA
ATOM     23  H   UNL     1     137.104 119.276 133.460  0.00  0.00    +0.000 HD
ENDBRANCH   6  22
BRANCH   8  24
ATOM     24  O   UNL     1     132.532 118.620 135.394  0.00  0.00    +0.000 OA
ATOM     25  H   UNL     1     132.650 118.411 134.438  0.00  0.00    +0.000 HD
ENDBRANCH   8  24
BRANCH  10  26
ATOM     26  O   UNL     1     130.660 122.768 136.735  0.00  0.00    +0.000 OA
ATOM     27  H   UNL     1     129.841 122.396 136.361  0.00  0.00    +0.000 HD
ENDBRANCH  10  26
TORSDOF 6
ENDMDL
MODEL 8
REMARK VINA RESULT:      -6.4      4.239      6.200
REMARK  Name = Quercetin.pdbqt.pdb
REMARK  6 active torsions:
REMARK  status: ('A' for Active; 'I' for Inactive)
REMARK    1  A    between atoms: C_5  and  C_12
REMARK    2  A    between atoms: C_6  and  O_22
REMARK    3  A    between atoms: C_8  and  O_24
REMARK    4  A    between atoms: C_10  and  O_26
REMARK    5  A    between atoms: C_15  and  O_18
REMARK    6  A    between atoms: C_17  and  O_20
REMARK                            x       y       z     vdW  Elec       q    Type
REMARK                         _______ _______ _______ _____ _____    ______ ____
ROOT
ATOM      1  O   UNL     1     144.867 125.698  98.278  0.00  0.00    +0.000 OA
ATOM      2  O   UNL     1     145.756 125.080 102.196  0.00  0.00    +0.000 OA
ATOM      3  C   UNL     1     145.947 126.445 100.316  0.00  0.00    +0.000 A 
ATOM      4  C   UNL     1     145.617 126.605  98.975  0.00  0.00    +0.000 A 
ATOM      5  C   UNL     1     144.395 124.572  98.936  0.00  0.00    +0.000 A 
ATOM      6  C   UNL     1     144.647 124.281 100.230  0.00  0.00    +0.000 A 
ATOM      7  C   UNL     1     145.469 125.247 101.013  0.00  0.00    +0.000 A 
ATOM      8  C   UNL     1     146.721 127.415 100.967  0.00  0.00    +0.000 A 
ATOM      9  C   UNL     1     146.055 127.729  98.277  0.00  0.00    +0.000 A 
ATOM     10  C   UNL     1     146.822 128.686  98.932  0.00  0.00    +0.000 A 
ATOM     11  C   UNL     1     147.160 128.538 100.273  0.00  0.00    +0.000 A 
ENDROOT
BRANCH   5  12
ATOM     12  C   UNL     1     143.589 123.715  98.054  0.00  0.00    +0.000 A 
ATOM     13  C   UNL     1     144.198 122.856  97.133  0.00  0.00    +0.000 A 
ATOM     14  C   UNL     1     142.194 123.711  98.178  0.00  0.00    +0.000 A 
ATOM     15  C   UNL     1     143.413 122.030  96.338  0.00  0.00    +0.000 A 
ATOM     16  C   UNL     1     141.410 122.868  97.390  0.00  0.00    +0.000 A 
ATOM     17  C   UNL     1     142.030 122.019  96.484  0.00  0.00    +0.000 A 
BRANCH  15  18
ATOM     18  O   UNL     1     144.022 121.261  95.390  0.00  0.00    +0.000 OA
ATOM     19  H   UNL     1     143.592 120.386  95.413  0.00  0.00    +0.000 HD
ENDBRANCH  15  18
BRANCH  17  20
ATOM     20  O   UNL     1     141.266 121.155  95.755  0.00  0.00    +0.000 OA
ATOM     21  H   UNL     1     140.428 121.617  95.566  0.00  0.00    +0.000 HD
ENDBRANCH  17  20
ENDBRANCH   5  12
BRANCH   6  22
ATOM     22  O   UNL     1     144.219 123.145 100.893  0.00  0.00    +0.000 OA
ATOM     23  H   UNL     1     144.595 122.353 100.478  0.00  0.00    +0.000 HD
ENDBRANCH   6  22
BRANCH   8  24
ATOM     24  O   UNL     1     147.084 127.321 102.283  0.00  0.00    +0.000 OA
ATOM     25  H   UNL     1     147.853 126.708 102.349  0.00  0.00    +0.000 HD
ENDBRANCH   8  24
BRANCH  10  26
ATOM     26  O   UNL     1     147.239 129.777  98.227  0.00  0.00    +0.000 OA
ATOM     27  H   UNL     1     146.467 130.155  97.769  0.00  0.00    +0.000 HD
ENDBRANCH  10  26
TORSDOF 6
ENDMDL
MODEL 9
REMARK VINA RESULT:      -6.4      1.819      2.062
REMARK  Name = Quercetin.pdbqt.pdb
REMARK  6 active torsions:
REMARK  status: ('A' for Active; 'I' for Inactive)
REMARK    1  A    between atoms: C_5  and  C_12
REMARK    2  A    between atoms: C_6  and  O_22
REMARK    3  A    between atoms: C_8  and  O_24
REMARK    4  A    between atoms: C_10  and  O_26
REMARK    5  A    between atoms: C_15  and  O_18
REMARK    6  A    between atoms: C_17  and  O_20
REMARK                            x       y       z     vdW  Elec       q    Type
REMARK                         _______ _______ _______ _____ _____    ______ ____
ROOT
ATOM      1  O   UNL     1     144.593 126.585  99.604  0.00  0.00    +0.000 OA
ATOM      2  O   UNL     1     146.211 126.304 103.322  0.00  0.00    +0.000 OA
ATOM      3  C   UNL     1     144.322 126.687 102.011  0.00  0.00    +0.000 A 
ATOM      4  C   UNL     1     143.821 126.775 100.717  0.00  0.00    +0.000 A 
ATOM      5  C   UNL     1     145.935 126.273  99.764  0.00  0.00    +0.000 A 
ATOM      6  C   UNL     1     146.559 126.167 100.957  0.00  0.00    +0.000 A 
ATOM      7  C   UNL     1     145.744 126.378 102.188  0.00  0.00    +0.000 A 
ATOM      8  C   UNL     1     143.473 126.895 103.106  0.00  0.00    +0.000 A 
ATOM      9  C   UNL     1     142.475 127.069 100.507  0.00  0.00    +0.000 A 
ATOM     10  C   UNL     1     141.640 127.274 101.601  0.00  0.00    +0.000 A 
ATOM     11  C   UNL     1     142.128 127.189 102.900  0.00  0.00    +0.000 A 
ENDROOT
BRANCH   5  12
ATOM     12  C   UNL     1     146.614 126.078  98.475  0.00  0.00    +0.000 A 
ATOM     13  C   UNL     1     147.277 127.134  97.844  0.00  0.00    +0.000 A 
ATOM     14  C   UNL     1     146.650 124.802  97.897  0.00  0.00    +0.000 A 
ATOM     15  C   UNL     1     147.942 126.913  96.644  0.00  0.00    +0.000 A 
ATOM     16  C   UNL     1     147.332 124.579  96.702  0.00  0.00    +0.000 A 
ATOM     17  C   UNL     1     147.990 125.638  96.091  0.00  0.00    +0.000 A 
BRANCH  15  18
ATOM     18  O   UNL     1     148.513 127.974  96.005  0.00  0.00    +0.000 OA
ATOM     19  H   UNL     1     149.431 127.720  95.792  0.00  0.00    +0.000 HD
ENDBRANCH  15  18
BRANCH  17  20
ATOM     20  O   UNL     1     148.704 125.406  94.952  0.00  0.00    +0.000 OA
ATOM     21  H   UNL     1     149.259 124.623  95.126  0.00  0.00    +0.000 HD
ENDBRANCH  17  20
ENDBRANCH   5  12
BRANCH   6  22
ATOM     22  O   UNL     1     147.902 125.897 101.137  0.00  0.00    +0.000 OA
ATOM     23  H   UNL     1     148.427 126.701 101.001  0.00  0.00    +0.000 HD
ENDBRANCH   6  22
BRANCH   8  24
ATOM     24  O   UNL     1     143.898 126.826 104.405  0.00  0.00    +0.000 OA
ATOM     25  H   UNL     1     143.870 125.883 104.690  0.00  0.00    +0.000 HD
ENDBRANCH   8  24
BRANCH  10  26
ATOM     26  O   UNL     1     140.327 127.561 101.369  0.00  0.00    +0.000 OA
ATOM     27  H   UNL     1     140.215 127.717 100.414  0.00  0.00    +0.000 HD
ENDBRANCH  10  26
TORSDOF 6
ENDMDL
