MODEL 1
REMARK VINA RESULT:      -7.2      0.000      0.000
REMARK  Name = 
REMARK  14 active torsions:
REMARK  status: ('A' for Active; 'I' for Inactive)
REMARK    1  A    between atoms: O_1  and  C_24
REMARK    2  A    between atoms: O_1  and  C_36
REMARK    3  A    between atoms: O_4  and  C_30
REMARK    4  A    between atoms: O_4  and  C_37
REMARK    5  A    between atoms: O_7  and  C_33
REMARK    6  A    between atoms: O_7  and  C_38
REMARK    7  A    between atoms: N_10  and  C_23
REMARK    8  A    between atoms: C_15  and  C_26
REMARK    9  A    between atoms: C_16  and  C_24
REMARK   10  A    between atoms: C_31  and  C_34
REMARK   11  A    between atoms: C_32  and  C_35
REMARK   12  A    between atoms: C_36  and  C_39
REMARK   13  A    between atoms: C_39  and  C_40
REMARK   14  A    between atoms: C_41  and  C_42
REMARK                            x       y       z     vdW  Elec       q    Type
REMARK                         _______ _______ _______ _____ _____    ______ ____
ROOT
ATOM      1  O   UNL     1     147.127 127.082  94.237  0.00  0.00    +0.000 OA
ATOM      2  O   UNL     1     143.966 123.202  92.441  0.00  0.00    +0.000 OA
ATOM      3  O   UNL     1     146.992 127.950  98.816  0.00  0.00    +0.000 OA
ATOM      4  O   UNL     1     142.052 126.622 100.267  0.00  0.00    +0.000 OA
ATOM      5  N   UNL     1     142.911 126.646  96.093  0.00  0.00    +0.000 NA
ATOM      6  N   UNL     1     143.153 128.032  93.515  0.00  0.00    +0.000 NA
ATOM      7  C   UNL     1     143.978 127.644  95.821  0.00  0.00    +0.000 C 
ATOM      8  C   UNL     1     144.378 127.671  94.284  0.00  0.00    +0.000 C 
ATOM      9  C   UNL     1     142.150 126.949  93.679  0.00  0.00    +0.000 C 
ATOM     10  C   UNL     1     141.730 126.838  95.192  0.00  0.00    +0.000 C 
ATOM     11  C   UNL     1     142.544 126.449  97.523  0.00  0.00    +0.000 C 
ATOM     12  C   UNL     1     145.209 127.391  96.717  0.00  0.00    +0.000 C 
ATOM     13  C   UNL     1     142.670 125.584  93.148  0.00  0.00    +0.000 C 
ATOM     14  C   UNL     1     144.943 126.332  93.832  0.00  0.00    +0.000 C 
ATOM     15  C   UNL     1     144.152 125.371  93.332  0.00  0.00    +0.000 C 
ATOM     16  C   UNL     1     143.609 126.871  98.523  0.00  0.00    +0.000 C 
ATOM     17  C   UNL     1     144.832 127.278  98.163  0.00  0.00    +0.000 C 
ATOM     18  C   UNL     1     143.419 128.394  92.126  0.00  0.00    +0.000 C 
ATOM     19  C   UNL     1     146.410 126.144  93.904  0.00  0.00    +0.000 C 
ATOM     20  C   UNL     1     144.701 124.068  92.905  0.00  0.00    +0.000 C 
ATOM     21  C   UNL     1     145.861 127.632  99.165  0.00  0.00    +0.000 C 
ATOM     22  C   UNL     1     143.214 126.866  99.956  0.00  0.00    +0.000 C 
ATOM     23  C   UNL     1     146.964 124.793  93.560  0.00  0.00    +0.000 C 
ATOM     24  C   UNL     1     146.159 123.836  93.072  0.00  0.00    +0.000 C 
ATOM     25  C   UNL     1     145.494 127.554 100.601  0.00  0.00    +0.000 C 
ATOM     26  C   UNL     1     144.263 127.177 100.982  0.00  0.00    +0.000 C 
ATOM     27  C   UNL     1     146.634 122.475  92.651  0.00  0.00    +0.000 C 
ATOM     28  C   UNL     1     146.593 127.922 101.555  0.00  0.00    +0.000 C 
ENDROOT
BRANCH  23  29
ATOM     29  O   UNL     1     148.324 124.529  93.681  0.00  0.00    +0.000 OA
ATOM     30  C   UNL     1     148.772 124.209  94.996  0.00  0.00    +0.000 C 
ENDBRANCH  23  29
BRANCH  26  31
ATOM     31  O   UNL     1     143.959 127.143 102.339  0.00  0.00    +0.000 OA
ATOM     32  C   UNL     1     143.257 128.284 102.829  0.00  0.00    +0.000 C 
ENDBRANCH  26  31
BRANCH  10  34
ATOM     33  N   UNL     1     140.226 128.927  95.836  0.00  0.00    +0.000 NA
ATOM     34  C   UNL     1     140.875 128.013  95.535  0.00  0.00    +0.000 C 
ENDBRANCH  10  34
BRANCH  11  35
ATOM     35  C   UNL     1     142.203 124.941  97.714  0.00  0.00    +0.000 C 
BRANCH  35  36
ATOM     36  O   UNL     1     143.373 124.150  97.418  0.00  0.00    +0.000 OA
BRANCH  36  38
ATOM     37  O   UNL     1     143.147 121.990  98.146  0.00  0.00    +0.000 OA
ATOM     38  C   UNL     1     143.593 123.119  98.267  0.00  0.00    +0.000 C 
BRANCH  38  39
ATOM     39  C   UNL     1     144.577 123.506  99.318  0.00  0.00    +0.000 C 
ATOM     40  C   UNL     1     144.000 123.491 100.706  0.00  0.00    +0.000 C 
ATOM     41  C   UNL     1     145.858 123.854  99.085  0.00  0.00    +0.000 C 
ATOM     42  C   UNL     1     146.552 124.016  97.770  0.00  0.00    +0.000 C 
ENDBRANCH  38  39
ENDBRANCH  36  38
ENDBRANCH  35  36
ENDBRANCH  11  35
TORSDOF 7
ENDMDL
MODEL 2
REMARK VINA RESULT:      -7.1      2.458      6.830
REMARK  Name = 
REMARK  14 active torsions:
REMARK  status: ('A' for Active; 'I' for Inactive)
REMARK    1  A    between atoms: O_1  and  C_24
REMARK    2  A    between atoms: O_1  and  C_36
REMARK    3  A    between atoms: O_4  and  C_30
REMARK    4  A    between atoms: O_4  and  C_37
REMARK    5  A    between atoms: O_7  and  C_33
REMARK    6  A    between atoms: O_7  and  C_38
REMARK    7  A    between atoms: N_10  and  C_23
REMARK    8  A    between atoms: C_15  and  C_26
REMARK    9  A    between atoms: C_16  and  C_24
REMARK   10  A    between atoms: C_31  and  C_34
REMARK   11  A    between atoms: C_32  and  C_35
REMARK   12  A    between atoms: C_36  and  C_39
REMARK   13  A    between atoms: C_39  and  C_40
REMARK   14  A    between atoms: C_41  and  C_42
REMARK                            x       y       z     vdW  Elec       q    Type
REMARK                         _______ _______ _______ _____ _____    ______ ____
ROOT
ATOM      1  O   UNL     1     143.434 128.424  99.941  0.00  0.00    +0.000 OA
ATOM      2  O   UNL     1     146.218 123.911 100.327  0.00  0.00    +0.000 OA
ATOM      3  O   UNL     1     141.023 129.074  96.003  0.00  0.00    +0.000 OA
ATOM      4  O   UNL     1     143.798 126.445  92.307  0.00  0.00    +0.000 OA
ATOM      5  N   UNL     1     145.576 126.833  96.160  0.00  0.00    +0.000 NA
ATOM      6  N   UNL     1     147.167 128.319  98.132  0.00  0.00    +0.000 NA
ATOM      7  C   UNL     1     145.090 128.085  96.797  0.00  0.00    +0.000 C 
ATOM      8  C   UNL     1     145.682 128.268  98.260  0.00  0.00    +0.000 C 
ATOM      9  C   UNL     1     147.649 127.005  97.634  0.00  0.00    +0.000 C 
ATOM     10  C   UNL     1     147.070 126.737  96.194  0.00  0.00    +0.000 C 
ATOM     11  C   UNL     1     144.987 126.499  94.833  0.00  0.00    +0.000 C 
ATOM     12  C   UNL     1     143.548 128.135  96.806  0.00  0.00    +0.000 C 
ATOM     13  C   UNL     1     147.286 125.843  98.601  0.00  0.00    +0.000 C 
ATOM     14  C   UNL     1     145.243 127.140  99.183  0.00  0.00    +0.000 C 
ATOM     15  C   UNL     1     145.972 126.022  99.318  0.00  0.00    +0.000 C 
ATOM     16  C   UNL     1     143.646 127.153  94.543  0.00  0.00    +0.000 C 
ATOM     17  C   UNL     1     142.974 127.879  95.445  0.00  0.00    +0.000 C 
ATOM     18  C   UNL     1     147.842 128.783  99.339  0.00  0.00    +0.000 C 
ATOM     19  C   UNL     1     144.011 127.342  99.979  0.00  0.00    +0.000 C 
ATOM     20  C   UNL     1     145.537 124.924 100.207  0.00  0.00    +0.000 C 
ATOM     21  C   UNL     1     141.646 128.457  95.146  0.00  0.00    +0.000 C 
ATOM     22  C   UNL     1     143.115 126.997  93.164  0.00  0.00    +0.000 C 
ATOM     23  C   UNL     1     143.514 126.197 100.810  0.00  0.00    +0.000 C 
ATOM     24  C   UNL     1     144.247 125.078 100.929  0.00  0.00    +0.000 C 
ATOM     25  C   UNL     1     141.077 128.239  93.793  0.00  0.00    +0.000 C 
ATOM     26  C   UNL     1     141.749 127.538  92.864  0.00  0.00    +0.000 C 
ATOM     27  C   UNL     1     143.857 123.905 101.780  0.00  0.00    +0.000 C 
ATOM     28  C   UNL     1     139.725 128.851  93.568  0.00  0.00    +0.000 C 
ENDROOT
BRANCH  23  29
ATOM     29  O   UNL     1     142.323 126.296 101.520  0.00  0.00    +0.000 OA
ATOM     30  C   UNL     1     141.137 126.067 100.764  0.00  0.00    +0.000 C 
ENDBRANCH  23  29
BRANCH  26  31
ATOM     31  O   UNL     1     141.185 127.380  91.602  0.00  0.00    +0.000 OA
ATOM     32  C   UNL     1     140.559 126.119  91.376  0.00  0.00    +0.000 C 
ENDBRANCH  26  31
BRANCH  10  34
ATOM     33  N   UNL     1     148.342 128.335  94.501  0.00  0.00    +0.000 NA
ATOM     34  C   UNL     1     147.770 127.633  95.228  0.00  0.00    +0.000 C 
ENDBRANCH  10  34
BRANCH  11  35
ATOM     35  C   UNL     1     144.850 124.949  94.760  0.00  0.00    +0.000 C 
BRANCH  35  36
ATOM     36  O   UNL     1     144.175 124.477  95.946  0.00  0.00    +0.000 OA
BRANCH  36  38
ATOM     37  O   UNL     1     142.123 124.155  94.980  0.00  0.00    +0.000 OA
ATOM     38  C   UNL     1     143.029 123.795  95.714  0.00  0.00    +0.000 C 
BRANCH  38  39
ATOM     39  C   UNL     1     143.069 122.460  96.376  0.00  0.00    +0.000 C 
ATOM     40  C   UNL     1     143.594 121.371  95.483  0.00  0.00    +0.000 C 
ATOM     41  C   UNL     1     142.670 122.212  97.639  0.00  0.00    +0.000 C 
ATOM     42  C   UNL     1     142.036 123.154  98.614  0.00  0.00    +0.000 C 
ENDBRANCH  38  39
ENDBRANCH  36  38
ENDBRANCH  35  36
ENDBRANCH  11  35
TORSDOF 7
ENDMDL
MODEL 3
REMARK VINA RESULT:      -5.8      2.346      7.180
REMARK  Name = 
REMARK  14 active torsions:
REMARK  status: ('A' for Active; 'I' for Inactive)
REMARK    1  A    between atoms: O_1  and  C_24
REMARK    2  A    between atoms: O_1  and  C_36
REMARK    3  A    between atoms: O_4  and  C_30
REMARK    4  A    between atoms: O_4  and  C_37
REMARK    5  A    between atoms: O_7  and  C_33
REMARK    6  A    between atoms: O_7  and  C_38
REMARK    7  A    between atoms: N_10  and  C_23
REMARK    8  A    between atoms: C_15  and  C_26
REMARK    9  A    between atoms: C_16  and  C_24
REMARK   10  A    between atoms: C_31  and  C_34
REMARK   11  A    between atoms: C_32  and  C_35
REMARK   12  A    between atoms: C_36  and  C_39
REMARK   13  A    between atoms: C_39  and  C_40
REMARK   14  A    between atoms: C_41  and  C_42
REMARK                            x       y       z     vdW  Elec       q    Type
REMARK                         _______ _______ _______ _____ _____    ______ ____
ROOT
ATOM      1  O   UNL     1     143.554 128.600  99.790  0.00  0.00    +0.000 OA
ATOM      2  O   UNL     1     146.165 124.010 100.406  0.00  0.00    +0.000 OA
ATOM      3  O   UNL     1     141.051 129.085  95.885  0.00  0.00    +0.000 OA
ATOM      4  O   UNL     1     143.604 126.098  92.302  0.00  0.00    +0.000 OA
ATOM      5  N   UNL     1     145.513 126.669  96.068  0.00  0.00    +0.000 NA
ATOM      6  N   UNL     1     147.222 128.216  97.888  0.00  0.00    +0.000 NA
ATOM      7  C   UNL     1     145.098 127.981  96.631  0.00  0.00    +0.000 C 
ATOM      8  C   UNL     1     145.741 128.236  98.061  0.00  0.00    +0.000 C 
ATOM      9  C   UNL     1     147.635 126.852  97.469  0.00  0.00    +0.000 C 
ATOM     10  C   UNL     1     147.003 126.513  96.067  0.00  0.00    +0.000 C 
ATOM     11  C   UNL     1     144.871 126.272  94.784  0.00  0.00    +0.000 C 
ATOM     12  C   UNL     1     143.560 128.096  96.680  0.00  0.00    +0.000 C 
ATOM     13  C   UNL     1     147.256 125.775  98.523  0.00  0.00    +0.000 C 
ATOM     14  C   UNL     1     145.286 127.192  99.071  0.00  0.00    +0.000 C 
ATOM     15  C   UNL     1     145.973 126.056  99.263  0.00  0.00    +0.000 C 
ATOM     16  C   UNL     1     143.548 126.961  94.488  0.00  0.00    +0.000 C 
ATOM     17  C   UNL     1     142.935 127.774  95.357  0.00  0.00    +0.000 C 
ATOM     18  C   UNL     1     147.953 128.731  99.042  0.00  0.00    +0.000 C 
ATOM     19  C   UNL     1     144.088 127.500  99.886  0.00  0.00    +0.000 C 
ATOM     20  C   UNL     1     145.521 125.040 100.236  0.00  0.00    +0.000 C 
ATOM     21  C   UNL     1     141.622 128.387  95.055  0.00  0.00    +0.000 C 
ATOM     22  C   UNL     1     142.970 126.735  93.138  0.00  0.00    +0.000 C 
ATOM     23  C   UNL     1     143.571 126.435 100.807  0.00  0.00    +0.000 C 
ATOM     24  C   UNL     1     144.262 125.297 100.981  0.00  0.00    +0.000 C 
ATOM     25  C   UNL     1     141.004 128.102  93.737  0.00  0.00    +0.000 C 
ATOM     26  C   UNL     1     141.618 127.313  92.840  0.00  0.00    +0.000 C 
ATOM     27  C   UNL     1     143.851 124.201 101.921  0.00  0.00    +0.000 C 
ATOM     28  C   UNL     1     139.671 128.754  93.509  0.00  0.00    +0.000 C 
ENDROOT
BRANCH  23  29
ATOM     29  O   UNL     1     142.407 126.632 101.541  0.00  0.00    +0.000 OA
ATOM     30  C   UNL     1     142.554 127.411 102.726  0.00  0.00    +0.000 C 
ENDBRANCH  23  29
BRANCH  26  31
ATOM     31  O   UNL     1     141.010 127.094  91.608  0.00  0.00    +0.000 OA
ATOM     32  C   UNL     1     140.334 125.844  91.483  0.00  0.00    +0.000 C 
ENDBRANCH  26  31
BRANCH  10  34
ATOM     33  N   UNL     1     148.262 127.960  94.235  0.00  0.00    +0.000 NA
ATOM     34  C   UNL     1     147.708 127.311  95.022  0.00  0.00    +0.000 C 
ENDBRANCH  10  34
BRANCH  11  35
ATOM     35  C   UNL     1     144.669 124.727  94.822  0.00  0.00    +0.000 C 
BRANCH  35  36
ATOM     36  O   UNL     1     145.912 124.079  94.479  0.00  0.00    +0.000 OA
BRANCH  36  38
ATOM     37  O   UNL     1     145.292 123.226  92.446  0.00  0.00    +0.000 OA
ATOM     38  C   UNL     1     146.077 123.827  93.160  0.00  0.00    +0.000 C 
BRANCH  38  39
ATOM     39  C   UNL     1     147.302 124.506  92.646  0.00  0.00    +0.000 C 
ATOM     40  C   UNL     1     147.002 125.630  91.694  0.00  0.00    +0.000 C 
ATOM     41  C   UNL     1     148.565 124.165  92.967  0.00  0.00    +0.000 C 
ATOM     42  C   UNL     1     149.032 123.021  93.810  0.00  0.00    +0.000 C 
ENDBRANCH  38  39
ENDBRANCH  36  38
ENDBRANCH  35  36
ENDBRANCH  11  35
TORSDOF 7
ENDMDL
MODEL 4
REMARK VINA RESULT:      -5.6      3.327      7.707
REMARK  Name = 
REMARK  14 active torsions:
REMARK  status: ('A' for Active; 'I' for Inactive)
REMARK    1  A    between atoms: O_1  and  C_24
REMARK    2  A    between atoms: O_1  and  C_36
REMARK    3  A    between atoms: O_4  and  C_30
REMARK    4  A    between atoms: O_4  and  C_37
REMARK    5  A    between atoms: O_7  and  C_33
REMARK    6  A    between atoms: O_7  and  C_38
REMARK    7  A    between atoms: N_10  and  C_23
REMARK    8  A    between atoms: C_15  and  C_26
REMARK    9  A    between atoms: C_16  and  C_24
REMARK   10  A    between atoms: C_31  and  C_34
REMARK   11  A    between atoms: C_32  and  C_35
REMARK   12  A    between atoms: C_36  and  C_39
REMARK   13  A    between atoms: C_39  and  C_40
REMARK   14  A    between atoms: C_41  and  C_42
REMARK                            x       y       z     vdW  Elec       q    Type
REMARK                         _______ _______ _______ _____ _____    ______ ____
ROOT
ATOM      1  O   UNL     1     142.579 126.342  96.838  0.00  0.00    +0.000 OA
ATOM      2  O   UNL     1     144.551 121.721  95.099  0.00  0.00    +0.000 OA
ATOM      3  O   UNL     1     141.458 129.499  93.595  0.00  0.00    +0.000 OA
ATOM      4  O   UNL     1     144.793 128.504  89.575  0.00  0.00    +0.000 OA
ATOM      5  N   UNL     1     145.466 126.406  93.222  0.00  0.00    +0.000 NA
ATOM      6  N   UNL     1     146.623 126.213  95.914  0.00  0.00    +0.000 NA
ATOM      7  C   UNL     1     144.986 127.235  94.357  0.00  0.00    +0.000 C 
ATOM      8  C   UNL     1     145.167 126.489  95.748  0.00  0.00    +0.000 C 
ATOM      9  C   UNL     1     147.053 125.263  94.858  0.00  0.00    +0.000 C 
ATOM     10  C   UNL     1     146.867 125.924  93.440  0.00  0.00    +0.000 C 
ATOM     11  C   UNL     1     145.231 126.957  91.858  0.00  0.00    +0.000 C 
ATOM     12  C   UNL     1     143.521 127.669  94.140  0.00  0.00    +0.000 C 
ATOM     13  C   UNL     1     146.292 123.910  94.941  0.00  0.00    +0.000 C 
ATOM     14  C   UNL     1     144.349 125.206  95.802  0.00  0.00    +0.000 C 
ATOM     15  C   UNL     1     144.864 124.031  95.410  0.00  0.00    +0.000 C 
ATOM     16  C   UNL     1     144.117 127.988  91.766  0.00  0.00    +0.000 C 
ATOM     17  C   UNL     1     143.319 128.298  92.795  0.00  0.00    +0.000 C 
ATOM     18  C   UNL     1     146.990 125.807  97.268  0.00  0.00    +0.000 C 
ATOM     19  C   UNL     1     142.981 125.285  96.362  0.00  0.00    +0.000 C 
ATOM     20  C   UNL     1     144.064 122.789  95.452  0.00  0.00    +0.000 C 
ATOM     21  C   UNL     1     142.211 129.268  92.656  0.00  0.00    +0.000 C 
ATOM     22  C   UNL     1     143.974 128.698  90.468  0.00  0.00    +0.000 C 
ATOM     23  C   UNL     1     142.132 124.049  96.321  0.00  0.00    +0.000 C 
ATOM     24  C   UNL     1     142.655 122.881  95.916  0.00  0.00    +0.000 C 
ATOM     25  C   UNL     1     142.017 129.924  91.339  0.00  0.00    +0.000 C 
ATOM     26  C   UNL     1     142.825 129.647  90.302  0.00  0.00    +0.000 C 
ATOM     27  C   UNL     1     141.898 121.585  95.894  0.00  0.00    +0.000 C 
ATOM     28  C   UNL     1     140.869 130.889  91.275  0.00  0.00    +0.000 C 
ENDROOT
BRANCH  23  29
ATOM     29  O   UNL     1     140.813 124.077  96.761  0.00  0.00    +0.000 OA
ATOM     30  C   UNL     1     140.630 123.908  98.164  0.00  0.00    +0.000 C 
ENDBRANCH  23  29
BRANCH  26  31
ATOM     31  O   UNL     1     142.618 130.304  89.094  0.00  0.00    +0.000 OA
ATOM     32  C   UNL     1     143.424 131.464  88.893  0.00  0.00    +0.000 C 
ENDBRANCH  26  31
BRANCH  10  34
ATOM     33  N   UNL     1     148.733 127.790  93.166  0.00  0.00    +0.000 NA
ATOM     34  C   UNL     1     147.916 126.972  93.265  0.00  0.00    +0.000 C 
ENDBRANCH  10  34
BRANCH  11  35
ATOM     35  C   UNL     1     144.924 125.756  90.915  0.00  0.00    +0.000 C 
BRANCH  35  36
ATOM     36  O   UNL     1     143.709 125.110  91.352  0.00  0.00    +0.000 OA
BRANCH  36  38
ATOM     37  O   UNL     1     142.922 123.514  89.910  0.00  0.00    +0.000 OA
ATOM     38  C   UNL     1     142.919 124.650  90.354  0.00  0.00    +0.000 C 
BRANCH  38  39
ATOM     39  C   UNL     1     141.930 125.689  89.946  0.00  0.00    +0.000 C 
ATOM     40  C   UNL     1     142.132 126.182  88.540  0.00  0.00    +0.000 C 
ATOM     41  C   UNL     1     140.950 126.173  90.734  0.00  0.00    +0.000 C 
ATOM     42  C   UNL     1     140.680 125.867  92.173  0.00  0.00    +0.000 C 
ENDBRANCH  38  39
ENDBRANCH  36  38
ENDBRANCH  35  36
ENDBRANCH  11  35
TORSDOF 7
ENDMDL
MODEL 5
REMARK VINA RESULT:      -5.5      2.365      4.428
REMARK  Name = 
REMARK  14 active torsions:
REMARK  status: ('A' for Active; 'I' for Inactive)
REMARK    1  A    between atoms: O_1  and  C_24
REMARK    2  A    between atoms: O_1  and  C_36
REMARK    3  A    between atoms: O_4  and  C_30
REMARK    4  A    between atoms: O_4  and  C_37
REMARK    5  A    between atoms: O_7  and  C_33
REMARK    6  A    between atoms: O_7  and  C_38
REMARK    7  A    between atoms: N_10  and  C_23
REMARK    8  A    between atoms: C_15  and  C_26
REMARK    9  A    between atoms: C_16  and  C_24
REMARK   10  A    between atoms: C_31  and  C_34
REMARK   11  A    between atoms: C_32  and  C_35
REMARK   12  A    between atoms: C_36  and  C_39
REMARK   13  A    between atoms: C_39  and  C_40
REMARK   14  A    between atoms: C_41  and  C_42
REMARK                            x       y       z     vdW  Elec       q    Type
REMARK                         _______ _______ _______ _____ _____    ______ ____
ROOT
ATOM      1  O   UNL     1     146.386 123.118  95.353  0.00  0.00    +0.000 OA
ATOM      2  O   UNL     1     144.564 126.958  92.160  0.00  0.00    +0.000 OA
ATOM      3  O   UNL     1     145.032 123.277  99.813  0.00  0.00    +0.000 OA
ATOM      4  O   UNL     1     144.274 128.451 100.778  0.00  0.00    +0.000 OA
ATOM      5  N   UNL     1     146.051 127.411  97.048  0.00  0.00    +0.000 NA
ATOM      6  N   UNL     1     148.388 126.752  95.396  0.00  0.00    +0.000 NA
ATOM      7  C   UNL     1     146.806 126.141  97.205  0.00  0.00    +0.000 C 
ATOM      8  C   UNL     1     147.458 125.672  95.834  0.00  0.00    +0.000 C 
ATOM      9  C   UNL     1     147.596 127.973  95.099  0.00  0.00    +0.000 C 
ATOM     10  C   UNL     1     146.887 128.479  96.411  0.00  0.00    +0.000 C 
ATOM     11  C   UNL     1     145.295 127.880  98.243  0.00  0.00    +0.000 C 
ATOM     12  C   UNL     1     145.909 125.039  97.805  0.00  0.00    +0.000 C 
ATOM     13  C   UNL     1     146.559 127.737  93.966  0.00  0.00    +0.000 C 
ATOM     14  C   UNL     1     146.397 125.391  94.780  0.00  0.00    +0.000 C 
ATOM     15  C   UNL     1     145.973 126.348  93.941  0.00  0.00    +0.000 C 
ATOM     16  C   UNL     1     144.966 126.797  99.258  0.00  0.00    +0.000 C 
ATOM     17  C   UNL     1     145.220 125.499  99.054  0.00  0.00    +0.000 C 
ATOM     18  C   UNL     1     149.288 126.348  94.319  0.00  0.00    +0.000 C 
ATOM     19  C   UNL     1     145.888 124.005  94.668  0.00  0.00    +0.000 C 
ATOM     20  C   UNL     1     144.934 126.075  92.926  0.00  0.00    +0.000 C 
ATOM     21  C   UNL     1     144.838 124.466 100.042  0.00  0.00    +0.000 C 
ATOM     22  C   UNL     1     144.380 127.251 100.546  0.00  0.00    +0.000 C 
ATOM     23  C   UNL     1     144.768 123.743  93.705  0.00  0.00    +0.000 C 
ATOM     24  C   UNL     1     144.345 124.712  92.878  0.00  0.00    +0.000 C 
ATOM     25  C   UNL     1     144.183 124.909 101.298  0.00  0.00    +0.000 C 
ATOM     26  C   UNL     1     143.946 126.209 101.534  0.00  0.00    +0.000 C 
ATOM     27  C   UNL     1     143.271 124.525  91.847  0.00  0.00    +0.000 C 
ATOM     28  C   UNL     1     143.820 123.802 102.246  0.00  0.00    +0.000 C 
ENDROOT
BRANCH  23  29
ATOM     29  O   UNL     1     144.195 122.480  93.607  0.00  0.00    +0.000 OA
ATOM     30  C   UNL     1     143.446 122.057  94.744  0.00  0.00    +0.000 C 
ENDBRANCH  23  29
BRANCH  26  31
ATOM     31  O   UNL     1     143.350 126.577 102.736  0.00  0.00    +0.000 OA
ATOM     32  C   UNL     1     141.956 126.864 102.655  0.00  0.00    +0.000 C 
ENDBRANCH  26  31
BRANCH  10  34
ATOM     33  N   UNL     1     148.697 129.539  98.035  0.00  0.00    +0.000 NA
ATOM     34  C   UNL     1     147.920 129.073  97.309  0.00  0.00    +0.000 C 
ENDBRANCH  10  34
BRANCH  11  35
ATOM     35  C   UNL     1     143.984 128.548  97.733  0.00  0.00    +0.000 C 
BRANCH  35  36
ATOM     36  O   UNL     1     143.573 127.911  96.506  0.00  0.00    +0.000 OA
BRANCH  36  38
ATOM     37  O   UNL     1     141.382 128.487  96.846  0.00  0.00    +0.000 OA
ATOM     38  C   UNL     1     142.235 127.760  96.363  0.00  0.00    +0.000 C 
BRANCH  38  39
ATOM     39  C   UNL     1     141.930 126.652  95.413  0.00  0.00    +0.000 C 
ATOM     40  C   UNL     1     141.563 127.133  94.038  0.00  0.00    +0.000 C 
ATOM     41  C   UNL     1     141.954 125.341  95.724  0.00  0.00    +0.000 C 
ATOM     42  C   UNL     1     142.197 124.707  97.057  0.00  0.00    +0.000 C 
ENDBRANCH  38  39
ENDBRANCH  36  38
ENDBRANCH  35  36
ENDBRANCH  11  35
TORSDOF 7
ENDMDL
MODEL 6
REMARK VINA RESULT:      -5.5     15.786     19.721
REMARK  Name = 
REMARK  14 active torsions:
REMARK  status: ('A' for Active; 'I' for Inactive)
REMARK    1  A    between atoms: O_1  and  C_24
REMARK    2  A    between atoms: O_1  and  C_36
REMARK    3  A    between atoms: O_4  and  C_30
REMARK    4  A    between atoms: O_4  and  C_37
REMARK    5  A    between atoms: O_7  and  C_33
REMARK    6  A    between atoms: O_7  and  C_38
REMARK    7  A    between atoms: N_10  and  C_23
REMARK    8  A    between atoms: C_15  and  C_26
REMARK    9  A    between atoms: C_16  and  C_24
REMARK   10  A    between atoms: C_31  and  C_34
REMARK   11  A    between atoms: C_32  and  C_35
REMARK   12  A    between atoms: C_36  and  C_39
REMARK   13  A    between atoms: C_39  and  C_40
REMARK   14  A    between atoms: C_41  and  C_42
REMARK                            x       y       z     vdW  Elec       q    Type
REMARK                         _______ _______ _______ _____ _____    ______ ____
ROOT
ATOM      1  O   UNL     1     143.696 117.036 109.958  0.00  0.00    +0.000 OA
ATOM      2  O   UNL     1     140.716 113.223 107.755  0.00  0.00    +0.000 OA
ATOM      3  O   UNL     1     147.185 115.641 112.719  0.00  0.00    +0.000 OA
ATOM      4  O   UNL     1     145.500 111.023 114.745  0.00  0.00    +0.000 OA
ATOM      5  N   UNL     1     142.689 113.295 112.490  0.00  0.00    +0.000 NA
ATOM      6  N   UNL     1     140.659 115.406 112.269  0.00  0.00    +0.000 NA
ATOM      7  C   UNL     1     143.023 114.739 112.606  0.00  0.00    +0.000 C 
ATOM      8  C   UNL     1     142.036 115.641 111.749  0.00  0.00    +0.000 C 
ATOM      9  C   UNL     1     140.284 113.993 112.008  0.00  0.00    +0.000 C 
ATOM     10  C   UNL     1     141.247 113.033 112.802  0.00  0.00    +0.000 C 
ATOM     11  C   UNL     1     143.625 112.347 113.155  0.00  0.00    +0.000 C 
ATOM     12  C   UNL     1     144.495 114.995 112.221  0.00  0.00    +0.000 C 
ATOM     13  C   UNL     1     140.293 113.655 110.491  0.00  0.00    +0.000 C 
ATOM     14  C   UNL     1     142.132 115.316 110.265  0.00  0.00    +0.000 C 
ATOM     15  C   UNL     1     141.345 114.389 109.699  0.00  0.00    +0.000 C 
ATOM     16  C   UNL     1     145.021 112.894 113.406  0.00  0.00    +0.000 C 
ATOM     17  C   UNL     1     145.431 114.089 112.962  0.00  0.00    +0.000 C 
ATOM     18  C   UNL     1     139.680 116.380 111.794  0.00  0.00    +0.000 C 
ATOM     19  C   UNL     1     143.084 116.103 109.448  0.00  0.00    +0.000 C 
ATOM     20  C   UNL     1     141.448 114.067 108.260  0.00  0.00    +0.000 C 
ATOM     21  C   UNL     1     146.814 114.568 113.180  0.00  0.00    +0.000 C 
ATOM     22  C   UNL     1     145.926 112.052 114.231  0.00  0.00    +0.000 C 
ATOM     23  C   UNL     1     143.261 115.718 108.009  0.00  0.00    +0.000 C 
ATOM     24  C   UNL     1     142.474 114.780 107.457  0.00  0.00    +0.000 C 
ATOM     25  C   UNL     1     147.744 113.695 113.938  0.00  0.00    +0.000 C 
ATOM     26  C   UNL     1     147.344 112.506 114.417  0.00  0.00    +0.000 C 
ATOM     27  C   UNL     1     142.543 114.371 106.014  0.00  0.00    +0.000 C 
ATOM     28  C   UNL     1     149.130 114.247 114.111  0.00  0.00    +0.000 C 
ENDROOT
BRANCH  23  29
ATOM     29  O   UNL     1     144.194 116.367 107.208  0.00  0.00    +0.000 OA
ATOM     30  C   UNL     1     145.550 115.976 107.406  0.00  0.00    +0.000 C 
ENDBRANCH  23  29
BRANCH  26  31
ATOM     31  O   UNL     1     148.245 111.735 115.143  0.00  0.00    +0.000 OA
ATOM     32  C   UNL     1     148.906 110.716 114.394  0.00  0.00    +0.000 C 
ENDBRANCH  26  31
BRANCH  10  34
ATOM     33  N   UNL     1     140.606 113.152 115.374  0.00  0.00    +0.000 NA
ATOM     34  C   UNL     1     140.905 113.110 114.253  0.00  0.00    +0.000 C 
ENDBRANCH  10  34
BRANCH  11  35
ATOM     35  C   UNL     1     143.706 111.070 112.267  0.00  0.00    +0.000 C 
BRANCH  35  36
ATOM     36  O   UNL     1     143.606 111.451 110.879  0.00  0.00    +0.000 OA
BRANCH  36  38
ATOM     37  O   UNL     1     144.399 109.898 109.394  0.00  0.00    +0.000 OA
ATOM     38  C   UNL     1     144.543 110.904 110.070  0.00  0.00    +0.000 C 
BRANCH  38  39
ATOM     39  C   UNL     1     145.751 111.774 110.002  0.00  0.00    +0.000 C 
ATOM     40  C   UNL     1     145.521 113.052 109.245  0.00  0.00    +0.000 C 
ATOM     41  C   UNL     1     146.950 111.473 110.539  0.00  0.00    +0.000 C 
ATOM     42  C   UNL     1     147.369 110.212 111.227  0.00  0.00    +0.000 C 
ENDBRANCH  38  39
ENDBRANCH  36  38
ENDBRANCH  35  36
ENDBRANCH  11  35
TORSDOF 7
ENDMDL
MODEL 7
REMARK VINA RESULT:      -5.4     14.843     17.819
REMARK  Name = 
REMARK  14 active torsions:
REMARK  status: ('A' for Active; 'I' for Inactive)
REMARK    1  A    between atoms: O_1  and  C_24
REMARK    2  A    between atoms: O_1  and  C_36
REMARK    3  A    between atoms: O_4  and  C_30
REMARK    4  A    between atoms: O_4  and  C_37
REMARK    5  A    between atoms: O_7  and  C_33
REMARK    6  A    between atoms: O_7  and  C_38
REMARK    7  A    between atoms: N_10  and  C_23
REMARK    8  A    between atoms: C_15  and  C_26
REMARK    9  A    between atoms: C_16  and  C_24
REMARK   10  A    between atoms: C_31  and  C_34
REMARK   11  A    between atoms: C_32  and  C_35
REMARK   12  A    between atoms: C_36  and  C_39
REMARK   13  A    between atoms: C_39  and  C_40
REMARK   14  A    between atoms: C_41  and  C_42
REMARK                            x       y       z     vdW  Elec       q    Type
REMARK                         _______ _______ _______ _____ _____    ______ ____
ROOT
ATOM      1  O   UNL     1     143.113 116.734 108.957  0.00  0.00    +0.000 OA
ATOM      2  O   UNL     1     146.744 113.390 110.930  0.00  0.00    +0.000 OA
ATOM      3  O   UNL     1     139.753 114.866 106.317  0.00  0.00    +0.000 OA
ATOM      4  O   UNL     1     142.031 110.601 104.104  0.00  0.00    +0.000 OA
ATOM      5  N   UNL     1     144.563 113.241 106.290  0.00  0.00    +0.000 NA
ATOM      6  N   UNL     1     146.252 115.636 106.474  0.00  0.00    +0.000 NA
ATOM      7  C   UNL     1     144.006 114.617 106.225  0.00  0.00    +0.000 C 
ATOM      8  C   UNL     1     144.881 115.645 107.060  0.00  0.00    +0.000 C 
ATOM      9  C   UNL     1     146.851 114.293 106.683  0.00  0.00    +0.000 C 
ATOM     10  C   UNL     1     146.011 113.210 105.909  0.00  0.00    +0.000 C 
ATOM     11  C   UNL     1     143.753 112.171 105.643  0.00  0.00    +0.000 C 
ATOM     12  C   UNL     1     142.531 114.635 106.680  0.00  0.00    +0.000 C 
ATOM     13  C   UNL     1     146.967 113.931 108.190  0.00  0.00    +0.000 C 
ATOM     14  C   UNL     1     144.906 115.282 108.539  0.00  0.00    +0.000 C 
ATOM     15  C   UNL     1     145.853 114.479 109.046  0.00  0.00    +0.000 C 
ATOM     16  C   UNL     1     142.279 112.500 105.467  0.00  0.00    +0.000 C 
ATOM     17  C   UNL     1     141.712 113.608 105.959  0.00  0.00    +0.000 C 
ATOM     18  C   UNL     1     147.090 116.741 106.930  0.00  0.00    +0.000 C 
ATOM     19  C   UNL     1     143.885 115.898 109.416  0.00  0.00    +0.000 C 
ATOM     20  C   UNL     1     145.868 114.119 110.480  0.00  0.00    +0.000 C 
ATOM     21  C   UNL     1     140.263 113.871 105.814  0.00  0.00    +0.000 C 
ATOM     22  C   UNL     1     141.476 111.543 104.662  0.00  0.00    +0.000 C 
ATOM     23  C   UNL     1     143.837 115.465 110.851  0.00  0.00    +0.000 C 
ATOM     24  C   UNL     1     144.783 114.651 111.345  0.00  0.00    +0.000 C 
ATOM     25  C   UNL     1     139.443 112.879 105.075  0.00  0.00    +0.000 C 
ATOM     26  C   UNL     1     139.999 111.775 104.550  0.00  0.00    +0.000 C 
ATOM     27  C   UNL     1     144.847 114.210 112.778  0.00  0.00    +0.000 C 
ATOM     28  C   UNL     1     137.983 113.213 104.977  0.00  0.00    +0.000 C 
ENDROOT
BRANCH  23  29
ATOM     29  O   UNL     1     142.854 115.947 111.708  0.00  0.00    +0.000 OA
ATOM     30  C   UNL     1     143.070 117.263 112.211  0.00  0.00    +0.000 C 
ENDBRANCH  23  29
BRANCH  26  31
ATOM     31  O   UNL     1     139.193 110.887 103.845  0.00  0.00    +0.000 OA
ATOM     32  C   UNL     1     139.173 111.080 102.432  0.00  0.00    +0.000 C 
ENDBRANCH  26  31
BRANCH  10  34
ATOM     33  N   UNL     1     146.486 113.520 103.317  0.00  0.00    +0.000 NA
ATOM     34  C   UNL     1     146.269 113.365 104.447  0.00  0.00    +0.000 C 
ENDBRANCH  10  34
BRANCH  11  35
ATOM     35  C   UNL     1     143.911 110.881 106.502  0.00  0.00    +0.000 C 
BRANCH  35  36
ATOM     36  O   UNL     1     143.935 111.242 107.899  0.00  0.00    +0.000 OA
BRANCH  36  38
ATOM     37  O   UNL     1     141.968 110.115 108.232  0.00  0.00    +0.000 OA
ATOM     38  C   UNL     1     142.817 110.916 108.589  0.00  0.00    +0.000 C 
BRANCH  38  39
ATOM     39  C   UNL     1     142.818 111.570 109.929  0.00  0.00    +0.000 C 
ATOM     40  C   UNL     1     143.860 111.017 110.859  0.00  0.00    +0.000 C 
ATOM     41  C   UNL     1     141.974 112.551 110.309  0.00  0.00    +0.000 C 
ATOM     42  C   UNL     1     140.828 113.136 109.548  0.00  0.00    +0.000 C 
ENDBRANCH  38  39
ENDBRANCH  36  38
ENDBRANCH  35  36
ENDBRANCH  11  35
TORSDOF 7
ENDMDL
MODEL 8
REMARK VINA RESULT:      -5.3     15.399     19.484
REMARK  Name = 
REMARK  14 active torsions:
REMARK  status: ('A' for Active; 'I' for Inactive)
REMARK    1  A    between atoms: O_1  and  C_24
REMARK    2  A    between atoms: O_1  and  C_36
REMARK    3  A    between atoms: O_4  and  C_30
REMARK    4  A    between atoms: O_4  and  C_37
REMARK    5  A    between atoms: O_7  and  C_33
REMARK    6  A    between atoms: O_7  and  C_38
REMARK    7  A    between atoms: N_10  and  C_23
REMARK    8  A    between atoms: C_15  and  C_26
REMARK    9  A    between atoms: C_16  and  C_24
REMARK   10  A    between atoms: C_31  and  C_34
REMARK   11  A    between atoms: C_32  and  C_35
REMARK   12  A    between atoms: C_36  and  C_39
REMARK   13  A    between atoms: C_39  and  C_40
REMARK   14  A    between atoms: C_41  and  C_42
REMARK                            x       y       z     vdW  Elec       q    Type
REMARK                         _______ _______ _______ _____ _____    ______ ____
ROOT
ATOM      1  O   UNL     1     142.439 112.314 109.478  0.00  0.00    +0.000 OA
ATOM      2  O   UNL     1     143.079 117.580 109.834  0.00  0.00    +0.000 OA
ATOM      3  O   UNL     1     145.829 109.660 111.270  0.00  0.00    +0.000 OA
ATOM      4  O   UNL     1     150.223 112.611 110.761  0.00  0.00    +0.000 OA
ATOM      5  N   UNL     1     146.684 114.057 108.881  0.00  0.00    +0.000 NA
ATOM      6  N   UNL     1     144.817 114.150 106.615  0.00  0.00    +0.000 NA
ATOM      7  C   UNL     1     145.824 112.904 108.508  0.00  0.00    +0.000 C 
ATOM      8  C   UNL     1     144.463 113.378 107.841  0.00  0.00    +0.000 C 
ATOM      9  C   UNL     1     145.548 115.378 107.019  0.00  0.00    +0.000 C 
ATOM     10  C   UNL     1     146.900 114.985 107.724  0.00  0.00    +0.000 C 
ATOM     11  C   UNL     1     147.932 113.734 109.626  0.00  0.00    +0.000 C 
ATOM     12  C   UNL     1     145.564 111.996 109.728  0.00  0.00    +0.000 C 
ATOM     13  C   UNL     1     144.692 116.295 107.937  0.00  0.00    +0.000 C 
ATOM     14  C   UNL     1     143.633 114.216 108.804  0.00  0.00    +0.000 C 
ATOM     15  C   UNL     1     143.758 115.550 108.858  0.00  0.00    +0.000 C 
ATOM     16  C   UNL     1     147.920 112.395 110.347  0.00  0.00    +0.000 C 
ATOM     17  C   UNL     1     146.837 111.611 110.418  0.00  0.00    +0.000 C 
ATOM     18  C   UNL     1     143.683 114.395 105.730  0.00  0.00    +0.000 C 
ATOM     19  C   UNL     1     142.632 113.514 109.639  0.00  0.00    +0.000 C 
ATOM     20  C   UNL     1     142.959 116.360 109.802  0.00  0.00    +0.000 C 
ATOM     21  C   UNL     1     146.846 110.338 111.172  0.00  0.00    +0.000 C 
ATOM     22  C   UNL     1     149.206 111.951 110.945  0.00  0.00    +0.000 C 
ATOM     23  C   UNL     1     141.885 114.315 110.664  0.00  0.00    +0.000 C 
ATOM     24  C   UNL     1     142.028 115.650 110.717  0.00  0.00    +0.000 C 
ATOM     25  C   UNL     1     148.108 109.928 111.836  0.00  0.00    +0.000 C 
ATOM     26  C   UNL     1     149.213 110.686 111.752  0.00  0.00    +0.000 C 
ATOM     27  C   UNL     1     141.282 116.537 111.670  0.00  0.00    +0.000 C 
ATOM     28  C   UNL     1     148.035 108.630 112.587  0.00  0.00    +0.000 C 
ENDROOT
BRANCH  23  29
ATOM     29  O   UNL     1     140.988 113.703 111.532  0.00  0.00    +0.000 OA
ATOM     30  C   UNL     1     139.689 113.457 110.999  0.00  0.00    +0.000 C 
ENDBRANCH  23  29
BRANCH  26  31
ATOM     31  O   UNL     1     150.379 110.248 112.371  0.00  0.00    +0.000 OA
ATOM     32  C   UNL     1     150.683 110.888 113.609  0.00  0.00    +0.000 C 
ENDBRANCH  26  31
BRANCH  10  34
ATOM     33  N   UNL     1     148.606 114.091 105.899  0.00  0.00    +0.000 NA
ATOM     34  C   UNL     1     147.844 114.471 106.688  0.00  0.00    +0.000 C 
ENDBRANCH  10  34
BRANCH  11  35
ATOM     35  C   UNL     1     148.179 114.885 110.646  0.00  0.00    +0.000 C 
BRANCH  35  36
ATOM     36  O   UNL     1     146.963 115.135 111.382  0.00  0.00    +0.000 OA
BRANCH  36  38
ATOM     37  O   UNL     1     147.770 115.616 113.471  0.00  0.00    +0.000 OA
ATOM     38  C   UNL     1     147.063 114.963 112.721  0.00  0.00    +0.000 C 
BRANCH  38  39
ATOM     39  C   UNL     1     146.081 113.946 113.194  0.00  0.00    +0.000 C 
ATOM     40  C   UNL     1     144.675 114.220 112.739  0.00  0.00    +0.000 C 
ATOM     41  C   UNL     1     146.384 112.883 113.966  0.00  0.00    +0.000 C 
ATOM     42  C   UNL     1     147.700 112.527 114.581  0.00  0.00    +0.000 C 
ENDBRANCH  38  39
ENDBRANCH  36  38
ENDBRANCH  35  36
ENDBRANCH  11  35
TORSDOF 7
ENDMDL
MODEL 9
REMARK VINA RESULT:      -5.3      2.127      3.027
REMARK  Name = 
REMARK  14 active torsions:
REMARK  status: ('A' for Active; 'I' for Inactive)
REMARK    1  A    between atoms: O_1  and  C_24
REMARK    2  A    between atoms: O_1  and  C_36
REMARK    3  A    between atoms: O_4  and  C_30
REMARK    4  A    between atoms: O_4  and  C_37
REMARK    5  A    between atoms: O_7  and  C_33
REMARK    6  A    between atoms: O_7  and  C_38
REMARK    7  A    between atoms: N_10  and  C_23
REMARK    8  A    between atoms: C_15  and  C_26
REMARK    9  A    between atoms: C_16  and  C_24
REMARK   10  A    between atoms: C_31  and  C_34
REMARK   11  A    between atoms: C_32  and  C_35
REMARK   12  A    between atoms: C_36  and  C_39
REMARK   13  A    between atoms: C_39  and  C_40
REMARK   14  A    between atoms: C_41  and  C_42
REMARK                            x       y       z     vdW  Elec       q    Type
REMARK                         _______ _______ _______ _____ _____    ______ ____
ROOT
ATOM      1  O   UNL     1     148.188 125.488  92.549  0.00  0.00    +0.000 OA
ATOM      2  O   UNL     1     145.298 121.103  91.718  0.00  0.00    +0.000 OA
ATOM      3  O   UNL     1     147.051 128.080  96.255  0.00  0.00    +0.000 OA
ATOM      4  O   UNL     1     141.838 127.250  96.898  0.00  0.00    +0.000 OA
ATOM      5  N   UNL     1     143.638 125.664  93.376  0.00  0.00    +0.000 NA
ATOM      6  N   UNL     1     144.552 125.934  90.598  0.00  0.00    +0.000 NA
ATOM      7  C   UNL     1     144.797 126.513  92.996  0.00  0.00    +0.000 C 
ATOM      8  C   UNL     1     145.543 125.949  91.712  0.00  0.00    +0.000 C 
ATOM      9  C   UNL     1     143.475 124.966  90.929  0.00  0.00    +0.000 C 
ATOM     10  C   UNL     1     142.710 125.444  92.220  0.00  0.00    +0.000 C 
ATOM     11  C   UNL     1     142.939 126.032  94.639  0.00  0.00    +0.000 C 
ATOM     12  C   UNL     1     145.770 126.677  94.183  0.00  0.00    +0.000 C 
ATOM     13  C   UNL     1     144.020 123.522  91.111  0.00  0.00    +0.000 C 
ATOM     14  C   UNL     1     146.114 124.561  91.965  0.00  0.00    +0.000 C 
ATOM     15  C   UNL     1     145.403 123.453  91.708  0.00  0.00    +0.000 C 
ATOM     16  C   UNL     1     143.768 126.851  95.616  0.00  0.00    +0.000 C 
ATOM     17  C   UNL     1     145.063 127.127  95.425  0.00  0.00    +0.000 C 
ATOM     18  C   UNL     1     145.154 125.730  89.283  0.00  0.00    +0.000 C 
ATOM     19  C   UNL     1     147.511 124.469  92.449  0.00  0.00    +0.000 C 
ATOM     20  C   UNL     1     145.957 122.107  91.966  0.00  0.00    +0.000 C 
ATOM     21  C   UNL     1     145.853 127.884  96.422  0.00  0.00    +0.000 C 
ATOM     22  C   UNL     1     143.053 127.395  96.800  0.00  0.00    +0.000 C 
ATOM     23  C   UNL     1     148.046 123.113  92.801  0.00  0.00    +0.000 C 
ATOM     24  C   UNL     1     147.320 122.012  92.549  0.00  0.00    +0.000 C 
ATOM     25  C   UNL     1     145.160 128.364  97.644  0.00  0.00    +0.000 C 
ATOM     26  C   UNL     1     143.853 128.122  97.839  0.00  0.00    +0.000 C 
ATOM     27  C   UNL     1     147.796 120.614  92.817  0.00  0.00    +0.000 C 
ATOM     28  C   UNL     1     146.029 129.116  98.610  0.00  0.00    +0.000 C 
ENDROOT
BRANCH  23  29
ATOM     29  O   UNL     1     149.323 122.967  93.332  0.00  0.00    +0.000 OA
ATOM     30  C   UNL     1     149.445 123.252  94.723  0.00  0.00    +0.000 C 
ENDBRANCH  23  29
BRANCH  26  31
ATOM     31  O   UNL     1     143.243 128.613  98.989  0.00  0.00    +0.000 OA
ATOM     32  C   UNL     1     142.527 129.834  98.817  0.00  0.00    +0.000 C 
ENDBRANCH  26  31
BRANCH  10  34
ATOM     33  N   UNL     1     141.213 127.530  91.555  0.00  0.00    +0.000 NA
ATOM     34  C   UNL     1     141.872 126.626  91.865  0.00  0.00    +0.000 C 
ENDBRANCH  10  34
BRANCH  11  35
ATOM     35  C   UNL     1     142.473 124.709  95.317  0.00  0.00    +0.000 C 
BRANCH  35  36
ATOM     36  O   UNL     1     143.631 123.914  95.650  0.00  0.00    +0.000 OA
BRANCH  36  38
ATOM     37  O   UNL     1     143.135 122.087  96.939  0.00  0.00    +0.000 OA
ATOM     38  C   UNL     1     143.537 123.232  96.815  0.00  0.00    +0.000 C 
BRANCH  38  39
ATOM     39  C   UNL     1     144.123 124.023  97.935  0.00  0.00    +0.000 C 
ATOM     40  C   UNL     1     145.603 124.241  97.797  0.00  0.00    +0.000 C 
ATOM     41  C   UNL     1     143.430 124.498  98.989  0.00  0.00    +0.000 C 
ATOM     42  C   UNL     1     141.988 124.285  99.324  0.00  0.00    +0.000 C 
ENDBRANCH  38  39
ENDBRANCH  36  38
ENDBRANCH  35  36
ENDBRANCH  11  35
TORSDOF 7
ENDMDL
