MODEL 1
REMARK VINA RESULT:      -6.2      0.000      0.000
REMARK  Name = Resveratrol.pdbqt.pdb
REMARK  5 active torsions:
REMARK  status: ('A' for Active; 'I' for Inactive)
REMARK    1  A    between atoms: C_1  and  C_11
REMARK    2  A    between atoms: C_4  and  O_7
REMARK    3  A    between atoms: C_5  and  O_9
REMARK    4  A    between atoms: C_12  and  C_13
REMARK    5  A    between atoms: C_18  and  O_19
REMARK                            x       y       z     vdW  Elec       q    Type
REMARK                         _______ _______ _______ _____ _____    ______ ____
ROOT
ATOM      1  C   UNL     1     144.623 125.988 101.974  0.00  0.00    +0.000 A 
ATOM      2  C   UNL     1     145.529 127.011 101.700  0.00  0.00    +0.000 A 
ATOM      3  C   UNL     1     144.226 125.736 103.287  0.00  0.00    +0.000 A 
ATOM      4  C   UNL     1     144.741 126.515 104.320  0.00  0.00    +0.000 A 
ATOM      5  C   UNL     1     146.033 127.778 102.746  0.00  0.00    +0.000 A 
ATOM      6  C   UNL     1     145.645 127.539 104.061  0.00  0.00    +0.000 A 
ENDROOT
BRANCH   4   7
ATOM      7  O   UNL     1     144.369 126.291 105.614  0.00  0.00    +0.000 OA
ATOM      8  H   UNL     1     143.421 126.067 105.623  0.00  0.00    +0.000 HD
ENDBRANCH   4   7
BRANCH   5   9
ATOM      9  O   UNL     1     146.919 128.774 102.454  0.00  0.00    +0.000 OA
ATOM     10  H   UNL     1     147.300 128.589 101.577  0.00  0.00    +0.000 HD
ENDBRANCH   5   9
BRANCH   1  11
ATOM     11  C   UNL     1     144.101 125.195 100.911  0.00  0.00    +0.000 C 
ATOM     12  C   UNL     1     143.660 124.526 100.015  0.00  0.00    +0.000 C 
BRANCH  12  13
ATOM     13  C   UNL     1     143.137 123.734  98.951  0.00  0.00    +0.000 A 
ATOM     14  C   UNL     1     141.766 123.734  98.693  0.00  0.00    +0.000 A 
ATOM     15  C   UNL     1     143.997 122.960  98.172  0.00  0.00    +0.000 A 
ATOM     16  C   UNL     1     141.253 122.962  97.655  0.00  0.00    +0.000 A 
ATOM     17  C   UNL     1     143.488 122.186  97.133  0.00  0.00    +0.000 A 
ATOM     18  C   UNL     1     142.119 122.192  96.883  0.00  0.00    +0.000 A 
BRANCH  18  19
ATOM     19  O   UNL     1     141.644 121.426  95.859  0.00  0.00    +0.000 OA
ATOM     20  H   UNL     1     140.950 120.842  96.212  0.00  0.00    +0.000 HD
ENDBRANCH  18  19
ENDBRANCH  12  13
ENDBRANCH   1  11
TORSDOF 5
ENDMDL
MODEL 2
REMARK VINA RESULT:      -5.9     31.520     33.723
REMARK  Name = Resveratrol.pdbqt.pdb
REMARK  5 active torsions:
REMARK  status: ('A' for Active; 'I' for Inactive)
REMARK    1  A    between atoms: C_1  and  C_11
REMARK    2  A    between atoms: C_4  and  O_7
REMARK    3  A    between atoms: C_5  and  O_9
REMARK    4  A    between atoms: C_12  and  C_13
REMARK    5  A    between atoms: C_18  and  O_19
REMARK                            x       y       z     vdW  Elec       q    Type
REMARK                         _______ _______ _______ _____ _____    ______ ____
ROOT
ATOM      1  C   UNL     1     139.574 131.877 133.964  0.00  0.00    +0.000 A 
ATOM      2  C   UNL     1     140.205 132.829 133.164  0.00  0.00    +0.000 A 
ATOM      3  C   UNL     1     138.865 132.272 135.098  0.00  0.00    +0.000 A 
ATOM      4  C   UNL     1     138.794 133.624 135.425  0.00  0.00    +0.000 A 
ATOM      5  C   UNL     1     140.122 134.174 133.509  0.00  0.00    +0.000 A 
ATOM      6  C   UNL     1     139.419 134.584 134.637  0.00  0.00    +0.000 A 
ENDROOT
BRANCH   4   7
ATOM      7  O   UNL     1     138.108 134.039 136.529  0.00  0.00    +0.000 OA
ATOM      8  H   UNL     1     137.234 134.359 136.241  0.00  0.00    +0.000 HD
ENDBRANCH   4   7
BRANCH   5   9
ATOM      9  O   UNL     1     140.749 135.089 132.711  0.00  0.00    +0.000 OA
ATOM     10  H   UNL     1     140.515 135.978 133.032  0.00  0.00    +0.000 HD
ENDBRANCH   5   9
BRANCH   1  11
ATOM     11  C   UNL     1     139.652 130.495 133.622  0.00  0.00    +0.000 C 
ATOM     12  C   UNL     1     139.717 129.330 133.334  0.00  0.00    +0.000 C 
BRANCH  12  13
ATOM     13  C   UNL     1     139.795 127.948 132.992  0.00  0.00    +0.000 A 
ATOM     14  C   UNL     1     140.400 127.048 133.869  0.00  0.00    +0.000 A 
ATOM     15  C   UNL     1     139.267 127.500 131.781  0.00  0.00    +0.000 A 
ATOM     16  C   UNL     1     140.478 125.699 133.537  0.00  0.00    +0.000 A 
ATOM     17  C   UNL     1     139.342 126.151 131.446  0.00  0.00    +0.000 A 
ATOM     18  C   UNL     1     139.948 125.261 132.327  0.00  0.00    +0.000 A 
BRANCH  18  19
ATOM     19  O   UNL     1     140.010 123.944 131.976  0.00  0.00    +0.000 OA
ATOM     20  H   UNL     1     140.891 123.768 131.602  0.00  0.00    +0.000 HD
ENDBRANCH  18  19
ENDBRANCH  12  13
ENDBRANCH   1  11
TORSDOF 5
ENDMDL
MODEL 3
REMARK VINA RESULT:      -5.9     32.943     35.396
REMARK  Name = Resveratrol.pdbqt.pdb
REMARK  5 active torsions:
REMARK  status: ('A' for Active; 'I' for Inactive)
REMARK    1  A    between atoms: C_1  and  C_11
REMARK    2  A    between atoms: C_4  and  O_7
REMARK    3  A    between atoms: C_5  and  O_9
REMARK    4  A    between atoms: C_12  and  C_13
REMARK    5  A    between atoms: C_18  and  O_19
REMARK                            x       y       z     vdW  Elec       q    Type
REMARK                         _______ _______ _______ _____ _____    ______ ____
ROOT
ATOM      1  C   UNL     1     137.357 123.680 134.334  0.00  0.00    +0.000 A 
ATOM      2  C   UNL     1     138.494 123.358 135.074  0.00  0.00    +0.000 A 
ATOM      3  C   UNL     1     137.426 124.638 133.323  0.00  0.00    +0.000 A 
ATOM      4  C   UNL     1     138.640 125.268 133.058  0.00  0.00    +0.000 A 
ATOM      5  C   UNL     1     139.697 124.000 134.794  0.00  0.00    +0.000 A 
ATOM      6  C   UNL     1     139.782 124.956 133.788  0.00  0.00    +0.000 A 
ENDROOT
BRANCH   4   7
ATOM      7  O   UNL     1     138.737 126.208 132.073  0.00  0.00    +0.000 OA
ATOM      8  H   UNL     1     138.855 125.747 131.224  0.00  0.00    +0.000 HD
ENDBRANCH   4   7
BRANCH   5   9
ATOM      9  O   UNL     1     140.797 123.668 135.531  0.00  0.00    +0.000 OA
ATOM     10  H   UNL     1     140.957 122.714 135.419  0.00  0.00    +0.000 HD
ENDBRANCH   5   9
BRANCH   1  11
ATOM     11  C   UNL     1     136.119 123.031 134.612  0.00  0.00    +0.000 C 
ATOM     12  C   UNL     1     135.075 122.483 134.846  0.00  0.00    +0.000 C 
BRANCH  12  13
ATOM     13  C   UNL     1     133.837 121.833 135.125  0.00  0.00    +0.000 A 
ATOM     14  C   UNL     1     133.497 120.664 134.444  0.00  0.00    +0.000 A 
ATOM     15  C   UNL     1     132.969 122.368 136.077  0.00  0.00    +0.000 A 
ATOM     16  C   UNL     1     132.289 120.028 134.715  0.00  0.00    +0.000 A 
ATOM     17  C   UNL     1     131.760 121.734 136.350  0.00  0.00    +0.000 A 
ATOM     18  C   UNL     1     131.429 120.569 135.666  0.00  0.00    +0.000 A 
BRANCH  18  19
ATOM     19  O   UNL     1     130.239 119.966 135.951  0.00  0.00    +0.000 OA
ATOM     20  H   UNL     1     130.181 119.145 135.432  0.00  0.00    +0.000 HD
ENDBRANCH  18  19
ENDBRANCH  12  13
ENDBRANCH   1  11
TORSDOF 5
ENDMDL
MODEL 4
REMARK VINA RESULT:      -5.8      4.239      7.141
REMARK  Name = Resveratrol.pdbqt.pdb
REMARK  5 active torsions:
REMARK  status: ('A' for Active; 'I' for Inactive)
REMARK    1  A    between atoms: C_1  and  C_11
REMARK    2  A    between atoms: C_4  and  O_7
REMARK    3  A    between atoms: C_5  and  O_9
REMARK    4  A    between atoms: C_12  and  C_13
REMARK    5  A    between atoms: C_18  and  O_19
REMARK                            x       y       z     vdW  Elec       q    Type
REMARK                         _______ _______ _______ _____ _____    ______ ____
ROOT
ATOM      1  C   UNL     1     146.730 128.251  98.704  0.00  0.00    +0.000 A 
ATOM      2  C   UNL     1     147.870 129.054  98.685  0.00  0.00    +0.000 A 
ATOM      3  C   UNL     1     146.091 127.912  97.512  0.00  0.00    +0.000 A 
ATOM      4  C   UNL     1     146.601 128.380  96.304  0.00  0.00    +0.000 A 
ATOM      5  C   UNL     1     148.363 129.512  97.468  0.00  0.00    +0.000 A 
ATOM      6  C   UNL     1     147.738 129.181  96.270  0.00  0.00    +0.000 A 
ENDROOT
BRANCH   4   7
ATOM      7  O   UNL     1     145.997 128.063  95.122  0.00  0.00    +0.000 OA
ATOM      8  H   UNL     1     146.048 128.840  94.537  0.00  0.00    +0.000 HD
ENDBRANCH   4   7
BRANCH   5   9
ATOM      9  O   UNL     1     149.481 130.297  97.474  0.00  0.00    +0.000 OA
ATOM     10  H   UNL     1     149.990 130.101  96.668  0.00  0.00    +0.000 HD
ENDBRANCH   5   9
BRANCH   1  11
ATOM     11  C   UNL     1     146.214 127.776  99.945  0.00  0.00    +0.000 C 
ATOM     12  C   UNL     1     145.779 127.375 100.992  0.00  0.00    +0.000 C 
BRANCH  12  13
ATOM     13  C   UNL     1     145.263 126.901 102.233  0.00  0.00    +0.000 A 
ATOM     14  C   UNL     1     145.916 127.218 103.424  0.00  0.00    +0.000 A 
ATOM     15  C   UNL     1     144.107 126.121 102.254  0.00  0.00    +0.000 A 
ATOM     16  C   UNL     1     145.413 126.757 104.637  0.00  0.00    +0.000 A 
ATOM     17  C   UNL     1     143.602 125.657 103.465  0.00  0.00    +0.000 A 
ATOM     18  C   UNL     1     144.259 125.978 104.648  0.00  0.00    +0.000 A 
BRANCH  18  19
ATOM     19  O   UNL     1     143.745 125.512 105.822  0.00  0.00    +0.000 OA
ATOM     20  H   UNL     1     144.116 124.628 105.989  0.00  0.00    +0.000 HD
ENDBRANCH  18  19
ENDBRANCH  12  13
ENDBRANCH   1  11
TORSDOF 5
ENDMDL
MODEL 5
REMARK VINA RESULT:      -5.8     34.838     38.782
REMARK  Name = Resveratrol.pdbqt.pdb
REMARK  5 active torsions:
REMARK  status: ('A' for Active; 'I' for Inactive)
REMARK    1  A    between atoms: C_1  and  C_11
REMARK    2  A    between atoms: C_4  and  O_7
REMARK    3  A    between atoms: C_5  and  O_9
REMARK    4  A    between atoms: C_12  and  C_13
REMARK    5  A    between atoms: C_18  and  O_19
REMARK                            x       y       z     vdW  Elec       q    Type
REMARK                         _______ _______ _______ _____ _____    ______ ____
ROOT
ATOM      1  C   UNL     1     136.091 122.416 136.009  0.00  0.00    +0.000 A 
ATOM      2  C   UNL     1     136.529 121.148 135.629  0.00  0.00    +0.000 A 
ATOM      3  C   UNL     1     136.007 123.441 135.068  0.00  0.00    +0.000 A 
ATOM      4  C   UNL     1     136.362 123.187 133.746  0.00  0.00    +0.000 A 
ATOM      5  C   UNL     1     136.880 120.916 134.303  0.00  0.00    +0.000 A 
ATOM      6  C   UNL     1     136.800 121.927 133.352  0.00  0.00    +0.000 A 
ENDROOT
BRANCH   4   7
ATOM      7  O   UNL     1     136.288 124.171 132.803  0.00  0.00    +0.000 OA
ATOM      8  H   UNL     1     135.743 123.845 132.065  0.00  0.00    +0.000 HD
ENDBRANCH   4   7
BRANCH   5   9
ATOM      9  O   UNL     1     137.305 119.666 133.953  0.00  0.00    +0.000 OA
ATOM     10  H   UNL     1     137.768 119.281 134.718  0.00  0.00    +0.000 HD
ENDBRANCH   5   9
BRANCH   1  11
ATOM     11  C   UNL     1     135.730 122.667 137.366  0.00  0.00    +0.000 C 
ATOM     12  C   UNL     1     135.425 122.880 138.509  0.00  0.00    +0.000 C 
BRANCH  12  13
ATOM     13  C   UNL     1     135.063 123.132 139.865  0.00  0.00    +0.000 A 
ATOM     14  C   UNL     1     133.896 122.575 140.387  0.00  0.00    +0.000 A 
ATOM     15  C   UNL     1     135.876 123.934 140.665  0.00  0.00    +0.000 A 
ATOM     16  C   UNL     1     133.540 122.819 141.710  0.00  0.00    +0.000 A 
ATOM     17  C   UNL     1     135.524 124.180 141.989  0.00  0.00    +0.000 A 
ATOM     18  C   UNL     1     134.358 123.621 142.501  0.00  0.00    +0.000 A 
BRANCH  18  19
ATOM     19  O   UNL     1     134.033 123.877 143.801  0.00  0.00    +0.000 OA
ATOM     20  H   UNL     1     133.986 124.842 143.920  0.00  0.00    +0.000 HD
ENDBRANCH  18  19
ENDBRANCH  12  13
ENDBRANCH   1  11
TORSDOF 5
ENDMDL
MODEL 6
REMARK VINA RESULT:      -5.7     37.399     41.433
REMARK  Name = Resveratrol.pdbqt.pdb
REMARK  5 active torsions:
REMARK  status: ('A' for Active; 'I' for Inactive)
REMARK    1  A    between atoms: C_1  and  C_11
REMARK    2  A    between atoms: C_4  and  O_7
REMARK    3  A    between atoms: C_5  and  O_9
REMARK    4  A    between atoms: C_12  and  C_13
REMARK    5  A    between atoms: C_18  and  O_19
REMARK                            x       y       z     vdW  Elec       q    Type
REMARK                         _______ _______ _______ _____ _____    ______ ____
ROOT
ATOM      1  C   UNL     1     136.035 122.492 139.098  0.00  0.00    +0.000 A 
ATOM      2  C   UNL     1     137.220 122.486 138.363  0.00  0.00    +0.000 A 
ATOM      3  C   UNL     1     134.969 121.679 138.716  0.00  0.00    +0.000 A 
ATOM      4  C   UNL     1     135.098 120.861 137.596  0.00  0.00    +0.000 A 
ATOM      5  C   UNL     1     137.329 121.663 137.247  0.00  0.00    +0.000 A 
ATOM      6  C   UNL     1     136.275 120.845 136.854  0.00  0.00    +0.000 A 
ENDROOT
BRANCH   4   7
ATOM      7  O   UNL     1     134.071 120.055 137.199  0.00  0.00    +0.000 OA
ATOM      8  H   UNL     1     134.444 119.193 136.941  0.00  0.00    +0.000 HD
ENDBRANCH   4   7
BRANCH   5   9
ATOM      9  O   UNL     1     138.499 121.674 136.543  0.00  0.00    +0.000 OA
ATOM     10  H   UNL     1     138.285 121.535 135.604  0.00  0.00    +0.000 HD
ENDBRANCH   5   9
BRANCH   1  11
ATOM     11  C   UNL     1     135.911 123.332 140.243  0.00  0.00    +0.000 C 
ATOM     12  C   UNL     1     135.806 124.039 141.209  0.00  0.00    +0.000 C 
BRANCH  12  13
ATOM     13  C   UNL     1     135.682 124.879 142.355  0.00  0.00    +0.000 A 
ATOM     14  C   UNL     1     134.986 124.427 143.476  0.00  0.00    +0.000 A 
ATOM     15  C   UNL     1     136.258 126.150 142.352  0.00  0.00    +0.000 A 
ATOM     16  C   UNL     1     134.864 125.245 144.595  0.00  0.00    +0.000 A 
ATOM     17  C   UNL     1     136.138 126.971 143.470  0.00  0.00    +0.000 A 
ATOM     18  C   UNL     1     135.441 126.512 144.583  0.00  0.00    +0.000 A 
BRANCH  18  19
ATOM     19  O   UNL     1     135.337 127.334 145.667  0.00  0.00    +0.000 OA
ATOM     20  H   UNL     1     135.436 128.253 145.363  0.00  0.00    +0.000 HD
ENDBRANCH  18  19
ENDBRANCH  12  13
ENDBRANCH   1  11
TORSDOF 5
ENDMDL
MODEL 7
REMARK VINA RESULT:      -5.7     37.452     41.532
REMARK  Name = Resveratrol.pdbqt.pdb
REMARK  5 active torsions:
REMARK  status: ('A' for Active; 'I' for Inactive)
REMARK    1  A    between atoms: C_1  and  C_11
REMARK    2  A    between atoms: C_4  and  O_7
REMARK    3  A    between atoms: C_5  and  O_9
REMARK    4  A    between atoms: C_12  and  C_13
REMARK    5  A    between atoms: C_18  and  O_19
REMARK                            x       y       z     vdW  Elec       q    Type
REMARK                         _______ _______ _______ _____ _____    ______ ____
ROOT
ATOM      1  C   UNL     1     136.028 122.558 139.144  0.00  0.00    +0.000 A 
ATOM      2  C   UNL     1     134.925 121.821 138.715  0.00  0.00    +0.000 A 
ATOM      3  C   UNL     1     137.233 122.490 138.444  0.00  0.00    +0.000 A 
ATOM      4  C   UNL     1     137.323 121.680 137.315  0.00  0.00    +0.000 A 
ATOM      5  C   UNL     1     135.037 121.018 137.585  0.00  0.00    +0.000 A 
ATOM      6  C   UNL     1     136.231 120.939 136.876  0.00  0.00    +0.000 A 
ENDROOT
BRANCH   4   7
ATOM      7  O   UNL     1     138.489 121.594 136.611  0.00  0.00    +0.000 OA
ATOM      8  H   UNL     1     138.763 120.660 136.589  0.00  0.00    +0.000 HD
ENDBRANCH   4   7
BRANCH   5   9
ATOM      9  O   UNL     1     133.943 120.305 137.184  0.00  0.00    +0.000 OA
ATOM     10  H   UNL     1     133.200 120.926 137.084  0.00  0.00    +0.000 HD
ENDBRANCH   5   9
BRANCH   1  11
ATOM     11  C   UNL     1     135.927 123.385 140.301  0.00  0.00    +0.000 C 
ATOM     12  C   UNL     1     135.841 124.081 141.277  0.00  0.00    +0.000 C 
BRANCH  12  13
ATOM     13  C   UNL     1     135.739 124.907 142.435  0.00  0.00    +0.000 A 
ATOM     14  C   UNL     1     136.253 126.203 142.411  0.00  0.00    +0.000 A 
ATOM     15  C   UNL     1     135.126 124.417 143.588  0.00  0.00    +0.000 A 
ATOM     16  C   UNL     1     136.155 127.011 143.540  0.00  0.00    +0.000 A 
ATOM     17  C   UNL     1     135.027 125.221 144.719  0.00  0.00    +0.000 A 
ATOM     18  C   UNL     1     135.543 126.513 144.687  0.00  0.00    +0.000 A 
BRANCH  18  19
ATOM     19  O   UNL     1     135.433 127.283 145.808  0.00  0.00    +0.000 OA
ATOM     20  H   UNL     1     136.280 127.740 145.948  0.00  0.00    +0.000 HD
ENDBRANCH  18  19
ENDBRANCH  12  13
ENDBRANCH   1  11
TORSDOF 5
ENDMDL
MODEL 8
REMARK VINA RESULT:      -5.6      4.467      6.620
REMARK  Name = Resveratrol.pdbqt.pdb
REMARK  5 active torsions:
REMARK  status: ('A' for Active; 'I' for Inactive)
REMARK    1  A    between atoms: C_1  and  C_11
REMARK    2  A    between atoms: C_4  and  O_7
REMARK    3  A    between atoms: C_5  and  O_9
REMARK    4  A    between atoms: C_12  and  C_13
REMARK    5  A    between atoms: C_18  and  O_19
REMARK                            x       y       z     vdW  Elec       q    Type
REMARK                         _______ _______ _______ _____ _____    ______ ____
ROOT
ATOM      1  C   UNL     1     142.632 126.379  99.453  0.00  0.00    +0.000 A 
ATOM      2  C   UNL     1     141.885 127.131 100.359  0.00  0.00    +0.000 A 
ATOM      3  C   UNL     1     142.297 125.049  99.201  0.00  0.00    +0.000 A 
ATOM      4  C   UNL     1     141.211 124.480  99.862  0.00  0.00    +0.000 A 
ATOM      5  C   UNL     1     140.804 126.544 101.008  0.00  0.00    +0.000 A 
ATOM      6  C   UNL     1     140.457 125.218 100.767  0.00  0.00    +0.000 A 
ENDROOT
BRANCH   4   7
ATOM      7  O   UNL     1     140.860 123.181  99.635  0.00  0.00    +0.000 OA
ATOM      8  H   UNL     1     141.532 122.781  99.055  0.00  0.00    +0.000 HD
ENDBRANCH   4   7
BRANCH   5   9
ATOM      9  O   UNL     1     140.087 127.300 101.891  0.00  0.00    +0.000 OA
ATOM     10  H   UNL     1     139.162 127.319 101.588  0.00  0.00    +0.000 HD
ENDBRANCH   5   9
BRANCH   1  11
ATOM     11  C   UNL     1     143.742 126.970  98.781  0.00  0.00    +0.000 C 
ATOM     12  C   UNL     1     144.678 127.468  98.216  0.00  0.00    +0.000 C 
BRANCH  12  13
ATOM     13  C   UNL     1     145.790 128.058  97.545  0.00  0.00    +0.000 A 
ATOM     14  C   UNL     1     146.125 127.641  96.257  0.00  0.00    +0.000 A 
ATOM     15  C   UNL     1     146.539 129.049  98.179  0.00  0.00    +0.000 A 
ATOM     16  C   UNL     1     147.209 128.216  95.601  0.00  0.00    +0.000 A 
ATOM     17  C   UNL     1     147.624 129.626  97.526  0.00  0.00    +0.000 A 
ATOM     18  C   UNL     1     147.951 129.205  96.241  0.00  0.00    +0.000 A 
BRANCH  18  19
ATOM     19  O   UNL     1     149.019 129.785  95.621  0.00  0.00    +0.000 OA
ATOM     20  H   UNL     1     148.704 130.575  95.147  0.00  0.00    +0.000 HD
ENDBRANCH  18  19
ENDBRANCH  12  13
ENDBRANCH   1  11
TORSDOF 5
ENDMDL
MODEL 9
REMARK VINA RESULT:      -5.6     18.097     19.415
REMARK  Name = Resveratrol.pdbqt.pdb
REMARK  5 active torsions:
REMARK  status: ('A' for Active; 'I' for Inactive)
REMARK    1  A    between atoms: C_1  and  C_11
REMARK    2  A    between atoms: C_4  and  O_7
REMARK    3  A    between atoms: C_5  and  O_9
REMARK    4  A    between atoms: C_12  and  C_13
REMARK    5  A    between atoms: C_18  and  O_19
REMARK                            x       y       z     vdW  Elec       q    Type
REMARK                         _______ _______ _______ _____ _____    ______ ____
ROOT
ATOM      1  C   UNL     1     154.395 125.882 116.371  0.00  0.00    +0.000 A 
ATOM      2  C   UNL     1     153.370 126.540 115.694  0.00  0.00    +0.000 A 
ATOM      3  C   UNL     1     155.401 126.612 117.003  0.00  0.00    +0.000 A 
ATOM      4  C   UNL     1     155.371 128.004 116.954  0.00  0.00    +0.000 A 
ATOM      5  C   UNL     1     153.358 127.931 115.655  0.00  0.00    +0.000 A 
ATOM      6  C   UNL     1     154.353 128.674 116.282  0.00  0.00    +0.000 A 
ENDROOT
BRANCH   4   7
ATOM      7  O   UNL     1     156.341 128.744 117.564  0.00  0.00    +0.000 OA
ATOM      8  H   UNL     1     155.944 129.188 118.335  0.00  0.00    +0.000 HD
ENDBRANCH   4   7
BRANCH   5   9
ATOM      9  O   UNL     1     152.344 128.554 114.987  0.00  0.00    +0.000 OA
ATOM     10  H   UNL     1     151.506 128.140 115.260  0.00  0.00    +0.000 HD
ENDBRANCH   5   9
BRANCH   1  11
ATOM     11  C   UNL     1     154.419 124.457 116.416  0.00  0.00    +0.000 C 
ATOM     12  C   UNL     1     154.440 123.256 116.455  0.00  0.00    +0.000 C 
BRANCH  12  13
ATOM     13  C   UNL     1     154.463 121.831 116.502  0.00  0.00    +0.000 A 
ATOM     14  C   UNL     1     154.497 121.097 115.316  0.00  0.00    +0.000 A 
ATOM     15  C   UNL     1     154.452 121.175 117.732  0.00  0.00    +0.000 A 
ATOM     16  C   UNL     1     154.521 119.706 115.359  0.00  0.00    +0.000 A 
ATOM     17  C   UNL     1     154.475 119.784 117.779  0.00  0.00    +0.000 A 
ATOM     18  C   UNL     1     154.509 119.060 116.592  0.00  0.00    +0.000 A 
BRANCH  18  19
ATOM     19  O   UNL     1     154.531 117.698 116.663  0.00  0.00    +0.000 OA
ATOM     20  H   UNL     1     153.648 117.365 116.428  0.00  0.00    +0.000 HD
ENDBRANCH  18  19
ENDBRANCH  12  13
ENDBRANCH   1  11
TORSDOF 5
ENDMDL
