MODEL 1
REMARK VINA RESULT:      -6.4      0.000      0.000
REMARK  Name = RetinoicAcid.pdbqt.pdb
REMARK  6 active torsions:
REMARK  status: ('A' for Active; 'I' for Inactive)
REMARK    1  A    between atoms: C_1  and  C_3
REMARK    2  A    between atoms: C_1  and  C_5
REMARK    3  A    between atoms: C_3  and  C_15
REMARK    4  A    between atoms: C_4  and  C_9
REMARK    5  A    between atoms: C_16  and  C_17
REMARK    6  A    between atoms: C_21  and  O_22
REMARK                            x       y       z     vdW  Elec       q    Type
REMARK                         _______ _______ _______ _____ _____    ______ ____
ROOT
ATOM      1  C   UNL     1     135.281 122.521 140.476  0.00  0.00    +0.000 C 
ATOM      2  C   UNL     1     134.835 121.240 141.110  0.00  0.00    +0.000 C 
ENDROOT
BRANCH   1   4
ATOM      3  C   UNL     1     135.610 122.644 137.880  0.00  0.00    +0.000 C 
ATOM      4  C   UNL     1     135.458 122.593 139.072  0.00  0.00    +0.000 C 
BRANCH   3   8
ATOM      5  C   UNL     1     134.551 122.576 135.505  0.00  0.00    +0.000 C 
ATOM      6  C   UNL     1     135.023 122.670 134.103  0.00  0.00    +0.000 C 
ATOM      7  C   UNL     1     136.287 122.842 133.283  0.00  0.00    +0.000 C 
ATOM      8  C   UNL     1     135.793 122.699 136.449  0.00  0.00    +0.000 C 
ATOM      9  C   UNL     1     137.170 122.915 134.509  0.00  0.00    +0.000 C 
ATOM     10  C   UNL     1     137.034 122.862 135.926  0.00  0.00    +0.000 C 
ATOM     11  C   UNL     1     133.870 121.200 135.741  0.00  0.00    +0.000 C 
ATOM     12  C   UNL     1     133.574 123.745 135.812  0.00  0.00    +0.000 C 
ATOM     13  C   UNL     1     138.289 123.003 136.742  0.00  0.00    +0.000 C 
ENDBRANCH   3   8
ENDBRANCH   1   4
BRANCH   1  14
ATOM     14  C   UNL     1     135.553 123.549 141.216  0.00  0.00    +0.000 C 
BRANCH  14  15
ATOM     15  C   UNL     1     135.875 124.767 142.091  0.00  0.00    +0.000 C 
ATOM     16  C   UNL     1     136.128 125.721 142.774  0.00  0.00    +0.000 C 
BRANCH  16  17
ATOM     17  C   UNL     1     136.427 126.849 143.575  0.00  0.00    +0.000 C 
ATOM     18  C   UNL     1     135.378 127.892 143.814  0.00  0.00    +0.000 C 
ATOM     19  C   UNL     1     137.609 126.995 144.072  0.00  0.00    +0.000 C 
ATOM     20  O   UNL     1     139.269 126.582 145.644  0.00  0.00    +0.000 OA
ATOM     21  C   UNL     1     138.910 127.139 144.623  0.00  0.00    +0.000 C 
BRANCH  21  22
ATOM     22  O   UNL     1     139.725 127.928 143.903  0.00  0.00    +0.000 OA
ATOM     23  H   UNL     1     140.310 128.342 144.572  0.00  0.00    +0.000 HD
ENDBRANCH  21  22
ENDBRANCH  16  17
ENDBRANCH  14  15
ENDBRANCH   1  14
TORSDOF 6
ENDMDL
MODEL 2
REMARK VINA RESULT:      -6.2     37.610     42.041
REMARK  Name = RetinoicAcid.pdbqt.pdb
REMARK  6 active torsions:
REMARK  status: ('A' for Active; 'I' for Inactive)
REMARK    1  A    between atoms: C_1  and  C_3
REMARK    2  A    between atoms: C_1  and  C_5
REMARK    3  A    between atoms: C_3  and  C_15
REMARK    4  A    between atoms: C_4  and  C_9
REMARK    5  A    between atoms: C_16  and  C_17
REMARK    6  A    between atoms: C_21  and  O_22
REMARK                            x       y       z     vdW  Elec       q    Type
REMARK                         _______ _______ _______ _____ _____    ______ ____
ROOT
ATOM      1  C   UNL     1     142.235 123.874  99.557  0.00  0.00    +0.000 C 
ATOM      2  C   UNL     1     140.772 123.892  99.879  0.00  0.00    +0.000 C 
ENDROOT
BRANCH   1   4
ATOM      3  C   UNL     1     143.947 125.047 101.156  0.00  0.00    +0.000 C 
ATOM      4  C   UNL     1     143.159 124.514 100.419  0.00  0.00    +0.000 C 
BRANCH   3   8
ATOM      5  C   UNL     1     144.381 126.454 103.301  0.00  0.00    +0.000 C 
ATOM      6  C   UNL     1     145.555 126.993 104.025  0.00  0.00    +0.000 C 
ATOM      7  C   UNL     1     147.069 127.050 103.960  0.00  0.00    +0.000 C 
ATOM      8  C   UNL     1     144.895 125.681 102.040  0.00  0.00    +0.000 C 
ATOM      9  C   UNL     1     147.127 126.237 102.685  0.00  0.00    +0.000 C 
ATOM     10  C   UNL     1     146.224 125.602 101.785  0.00  0.00    +0.000 C 
ATOM     11  C   UNL     1     143.465 127.620 102.840  0.00  0.00    +0.000 C 
ATOM     12  C   UNL     1     143.607 125.460 104.213  0.00  0.00    +0.000 C 
ATOM     13  C   UNL     1     146.823 124.875 100.613  0.00  0.00    +0.000 C 
ENDBRANCH   3   8
ENDBRANCH   1   4
BRANCH   1  14
ATOM     14  C   UNL     1     142.650 123.314  98.465  0.00  0.00    +0.000 C 
BRANCH  14  15
ATOM     15  C   UNL     1     143.143 122.651  97.172  0.00  0.00    +0.000 C 
ATOM     16  C   UNL     1     143.528 122.135  96.159  0.00  0.00    +0.000 C 
BRANCH  16  17
ATOM     17  C   UNL     1     143.984 121.530  94.963  0.00  0.00    +0.000 C 
ATOM     18  C   UNL     1     143.452 120.189  94.558  0.00  0.00    +0.000 C 
ATOM     19  C   UNL     1     144.878 122.116  94.242  0.00  0.00    +0.000 C 
ATOM     20  O   UNL     1     145.584 123.657  92.652  0.00  0.00    +0.000 OA
ATOM     21  C   UNL     1     145.854 122.778  93.449  0.00  0.00    +0.000 C 
BRANCH  21  22
ATOM     22  O   UNL     1     147.112 122.363  93.672  0.00  0.00    +0.000 OA
ATOM     23  H   UNL     1     147.336 121.839  92.875  0.00  0.00    +0.000 HD
ENDBRANCH  21  22
ENDBRANCH  16  17
ENDBRANCH  14  15
ENDBRANCH   1  14
TORSDOF 6
ENDMDL
MODEL 3
REMARK VINA RESULT:      -6.1      0.645      2.079
REMARK  Name = RetinoicAcid.pdbqt.pdb
REMARK  6 active torsions:
REMARK  status: ('A' for Active; 'I' for Inactive)
REMARK    1  A    between atoms: C_1  and  C_3
REMARK    2  A    between atoms: C_1  and  C_5
REMARK    3  A    between atoms: C_3  and  C_15
REMARK    4  A    between atoms: C_4  and  C_9
REMARK    5  A    between atoms: C_16  and  C_17
REMARK    6  A    between atoms: C_21  and  O_22
REMARK                            x       y       z     vdW  Elec       q    Type
REMARK                         _______ _______ _______ _____ _____    ______ ____
ROOT
ATOM      1  C   UNL     1     135.288 122.653 140.377  0.00  0.00    +0.000 C 
ATOM      2  C   UNL     1     134.759 121.384 140.973  0.00  0.00    +0.000 C 
ENDROOT
BRANCH   1   4
ATOM      3  C   UNL     1     135.746 122.813 137.804  0.00  0.00    +0.000 C 
ATOM      4  C   UNL     1     135.537 122.734 138.986  0.00  0.00    +0.000 C 
BRANCH   3   8
ATOM      5  C   UNL     1     137.377 122.449 135.809  0.00  0.00    +0.000 C 
ATOM      6  C   UNL     1     137.360 122.659 134.342  0.00  0.00    +0.000 C 
ATOM      7  C   UNL     1     136.471 123.166 133.224  0.00  0.00    +0.000 C 
ATOM      8  C   UNL     1     135.998 122.916 136.386  0.00  0.00    +0.000 C 
ATOM      9  C   UNL     1     135.331 123.488 134.165  0.00  0.00    +0.000 C 
ATOM     10  C   UNL     1     135.044 123.407 135.557  0.00  0.00    +0.000 C 
ATOM     11  C   UNL     1     138.507 123.300 136.451  0.00  0.00    +0.000 C 
ATOM     12  C   UNL     1     137.563 120.938 136.125  0.00  0.00    +0.000 C 
ATOM     13  C   UNL     1     133.685 123.870 136.005  0.00  0.00    +0.000 C 
ENDBRANCH   3   8
ENDBRANCH   1   4
BRANCH   1  14
ATOM     14  C   UNL     1     135.563 123.661 141.144  0.00  0.00    +0.000 C 
BRANCH  14  15
ATOM     15  C   UNL     1     135.889 124.853 142.053  0.00  0.00    +0.000 C 
ATOM     16  C   UNL     1     136.142 125.785 142.765  0.00  0.00    +0.000 C 
BRANCH  16  17
ATOM     17  C   UNL     1     136.439 126.882 143.609  0.00  0.00    +0.000 C 
ATOM     18  C   UNL     1     135.379 127.895 143.915  0.00  0.00    +0.000 C 
ATOM     19  C   UNL     1     137.629 127.026 144.088  0.00  0.00    +0.000 C 
ATOM     20  O   UNL     1     139.327 126.572 145.607  0.00  0.00    +0.000 OA
ATOM     21  C   UNL     1     138.939 127.167 144.619  0.00  0.00    +0.000 C 
BRANCH  21  22
ATOM     22  O   UNL     1     139.726 128.001 143.919  0.00  0.00    +0.000 OA
ATOM     23  H   UNL     1     139.742 128.821 144.454  0.00  0.00    +0.000 HD
ENDBRANCH  21  22
ENDBRANCH  16  17
ENDBRANCH  14  15
ENDBRANCH   1  14
TORSDOF 6
ENDMDL
MODEL 4
REMARK VINA RESULT:      -6.0     41.365     44.497
REMARK  Name = RetinoicAcid.pdbqt.pdb
REMARK  6 active torsions:
REMARK  status: ('A' for Active; 'I' for Inactive)
REMARK    1  A    between atoms: C_1  and  C_3
REMARK    2  A    between atoms: C_1  and  C_5
REMARK    3  A    between atoms: C_3  and  C_15
REMARK    4  A    between atoms: C_4  and  C_9
REMARK    5  A    between atoms: C_16  and  C_17
REMARK    6  A    between atoms: C_21  and  O_22
REMARK                            x       y       z     vdW  Elec       q    Type
REMARK                         _______ _______ _______ _____ _____    ______ ____
ROOT
ATOM      1  C   UNL     1     146.824 127.852  98.227  0.00  0.00    +0.000 C 
ATOM      2  C   UNL     1     147.398 128.629  99.373  0.00  0.00    +0.000 C 
ENDROOT
BRANCH   1   4
ATOM      3  C   UNL     1     144.769 126.275  98.615  0.00  0.00    +0.000 C 
ATOM      4  C   UNL     1     145.710 127.003  98.434  0.00  0.00    +0.000 C 
BRANCH   3   8
ATOM      5  C   UNL     1     143.760 123.881  98.476  0.00  0.00    +0.000 C 
ATOM      6  C   UNL     1     142.475 123.224  98.812  0.00  0.00    +0.000 C 
ATOM      7  C   UNL     1     141.101 123.521  99.381  0.00  0.00    +0.000 C 
ATOM      8  C   UNL     1     143.644 125.399  98.840  0.00  0.00    +0.000 C 
ATOM      9  C   UNL     1     141.410 124.989  99.578  0.00  0.00    +0.000 C 
ATOM     10  C   UNL     1     142.494 125.887  99.368  0.00  0.00    +0.000 C 
ATOM     11  C   UNL     1     144.040 123.746  96.954  0.00  0.00    +0.000 C 
ATOM     12  C   UNL     1     144.909 123.254  99.315  0.00  0.00    +0.000 C 
ATOM     13  C   UNL     1     142.282 127.322  99.764  0.00  0.00    +0.000 C 
ENDBRANCH   3   8
ENDBRANCH   1   4
BRANCH   1  14
ATOM     14  C   UNL     1     147.378 127.921  97.058  0.00  0.00    +0.000 C 
BRANCH  14  15
ATOM     15  C   UNL     1     148.035 128.000  95.674  0.00  0.00    +0.000 C 
ATOM     16  C   UNL     1     148.547 128.061  94.590  0.00  0.00    +0.000 C 
BRANCH  16  17
ATOM     17  C   UNL     1     149.147 128.133  93.310  0.00  0.00    +0.000 C 
ATOM     18  C   UNL     1     148.526 127.408  92.155  0.00  0.00    +0.000 C 
ATOM     19  C   UNL     1     150.243 128.794  93.145  0.00  0.00    +0.000 C 
ATOM     20  O   UNL     1     151.465 130.743  92.820  0.00  0.00    +0.000 OA
ATOM     21  C   UNL     1     151.442 129.535  92.973  0.00  0.00    +0.000 C 
BRANCH  21  22
ATOM     22  O   UNL     1     152.558 128.789  93.019  0.00  0.00    +0.000 OA
ATOM     23  H   UNL     1     152.281 127.972  93.484  0.00  0.00    +0.000 HD
ENDBRANCH  21  22
ENDBRANCH  16  17
ENDBRANCH  14  15
ENDBRANCH   1  14
TORSDOF 6
ENDMDL
MODEL 5
REMARK VINA RESULT:      -5.9     40.175     44.370
REMARK  Name = RetinoicAcid.pdbqt.pdb
REMARK  6 active torsions:
REMARK  status: ('A' for Active; 'I' for Inactive)
REMARK    1  A    between atoms: C_1  and  C_3
REMARK    2  A    between atoms: C_1  and  C_5
REMARK    3  A    between atoms: C_3  and  C_15
REMARK    4  A    between atoms: C_4  and  C_9
REMARK    5  A    between atoms: C_16  and  C_17
REMARK    6  A    between atoms: C_21  and  O_22
REMARK                            x       y       z     vdW  Elec       q    Type
REMARK                         _______ _______ _______ _____ _____    ______ ____
ROOT
ATOM      1  C   UNL     1     147.256 126.868  98.319  0.00  0.00    +0.000 C 
ATOM      2  C   UNL     1     148.114 127.223  99.494  0.00  0.00    +0.000 C 
ENDROOT
BRANCH   1   4
ATOM      3  C   UNL     1     144.948 125.690  98.698  0.00  0.00    +0.000 C 
ATOM      4  C   UNL     1     146.006 126.234  98.519  0.00  0.00    +0.000 C 
BRANCH   3   8
ATOM      5  C   UNL     1     142.647 125.662  99.913  0.00  0.00    +0.000 C 
ATOM      6  C   UNL     1     141.446 124.796  99.941  0.00  0.00    +0.000 C 
ATOM      7  C   UNL     1     140.884 123.522  99.340  0.00  0.00    +0.000 C 
ATOM      8  C   UNL     1     143.680 125.034  98.918  0.00  0.00    +0.000 C 
ATOM      9  C   UNL     1     142.121 123.273  98.505  0.00  0.00    +0.000 C 
ATOM     10  C   UNL     1     143.383 123.885  98.263  0.00  0.00    +0.000 C 
ATOM     11  C   UNL     1     143.284 125.728 101.328  0.00  0.00    +0.000 C 
ATOM     12  C   UNL     1     142.264 127.080  99.404  0.00  0.00    +0.000 C 
ATOM     13  C   UNL     1     144.297 123.207  97.279  0.00  0.00    +0.000 C 
ENDBRANCH   3   8
ENDBRANCH   1   4
BRANCH   1  14
ATOM     14  C   UNL     1     147.680 127.097  97.116  0.00  0.00    +0.000 C 
BRANCH  14  15
ATOM     15  C   UNL     1     148.180 127.369  95.691  0.00  0.00    +0.000 C 
ATOM     16  C   UNL     1     148.572 127.584  94.577  0.00  0.00    +0.000 C 
BRANCH  16  17
ATOM     17  C   UNL     1     149.039 127.838  93.265  0.00  0.00    +0.000 C 
ATOM     18  C   UNL     1     148.343 127.216  92.094  0.00  0.00    +0.000 C 
ATOM     19  C   UNL     1     150.080 128.578  93.081  0.00  0.00    +0.000 C 
ATOM     20  O   UNL     1     151.170 130.621  92.882  0.00  0.00    +0.000 OA
ATOM     21  C   UNL     1     151.220 129.405  92.891  0.00  0.00    +0.000 C 
BRANCH  21  22
ATOM     22  O   UNL     1     152.369 128.725  92.743  0.00  0.00    +0.000 OA
ATOM     23  H   UNL     1     153.065 129.408  92.843  0.00  0.00    +0.000 HD
ENDBRANCH  21  22
ENDBRANCH  16  17
ENDBRANCH  14  15
ENDBRANCH   1  14
TORSDOF 6
ENDMDL
MODEL 6
REMARK VINA RESULT:      -5.8     38.398     42.999
REMARK  Name = RetinoicAcid.pdbqt.pdb
REMARK  6 active torsions:
REMARK  status: ('A' for Active; 'I' for Inactive)
REMARK    1  A    between atoms: C_1  and  C_3
REMARK    2  A    between atoms: C_1  and  C_5
REMARK    3  A    between atoms: C_3  and  C_15
REMARK    4  A    between atoms: C_4  and  C_9
REMARK    5  A    between atoms: C_16  and  C_17
REMARK    6  A    between atoms: C_21  and  O_22
REMARK                            x       y       z     vdW  Elec       q    Type
REMARK                         _______ _______ _______ _____ _____    ______ ____
ROOT
ATOM      1  C   UNL     1     143.549 123.099  97.183  0.00  0.00    +0.000 C 
ATOM      2  C   UNL     1     142.795 121.950  96.586  0.00  0.00    +0.000 C 
ENDROOT
BRANCH   1   4
ATOM      3  C   UNL     1     142.540 124.439  99.194  0.00  0.00    +0.000 C 
ATOM      4  C   UNL     1     142.998 123.820  98.270  0.00  0.00    +0.000 C 
BRANCH   3   8
ATOM      5  C   UNL     1     142.923 126.144 101.122  0.00  0.00    +0.000 C 
ATOM      6  C   UNL     1     142.109 126.782 102.183  0.00  0.00    +0.000 C 
ATOM      7  C   UNL     1     140.699 126.822 102.738  0.00  0.00    +0.000 C 
ATOM      8  C   UNL     1     141.994 125.187 100.302  0.00  0.00    +0.000 C 
ATOM      9  C   UNL     1     140.183 125.826 101.722  0.00  0.00    +0.000 C 
ATOM     10  C   UNL     1     140.683 125.067 100.626  0.00  0.00    +0.000 C 
ATOM     11  C   UNL     1     144.066 125.311 101.763  0.00  0.00    +0.000 C 
ATOM     12  C   UNL     1     143.489 127.231 100.165  0.00  0.00    +0.000 C 
ATOM     13  C   UNL     1     139.704 124.189  99.897  0.00  0.00    +0.000 C 
ENDBRANCH   3   8
ENDBRANCH   1   4
BRANCH   1  14
ATOM     14  C   UNL     1     144.684 123.462  96.674  0.00  0.00    +0.000 C 
BRANCH  14  15
ATOM     15  C   UNL     1     146.028 123.890  96.071  0.00  0.00    +0.000 C 
ATOM     16  C   UNL     1     147.080 124.223  95.598  0.00  0.00    +0.000 C 
BRANCH  16  17
ATOM     17  C   UNL     1     148.319 124.614  95.036  0.00  0.00    +0.000 C 
ATOM     18  C   UNL     1     149.499 123.695  95.124  0.00  0.00    +0.000 C 
ATOM     19  C   UNL     1     148.440 125.771  94.478  0.00  0.00    +0.000 C 
ATOM     20  O   UNL     1     148.209 127.260  92.710  0.00  0.00    +0.000 OA
ATOM     21  C   UNL     1     148.557 127.042  93.856  0.00  0.00    +0.000 C 
BRANCH  21  22
ATOM     22  O   UNL     1     149.067 127.996  94.652  0.00  0.00    +0.000 OA
ATOM     23  H   UNL     1     150.024 127.787  94.694  0.00  0.00    +0.000 HD
ENDBRANCH  21  22
ENDBRANCH  16  17
ENDBRANCH  14  15
ENDBRANCH   1  14
TORSDOF 6
ENDMDL
MODEL 7
REMARK VINA RESULT:      -5.8     39.223     43.402
REMARK  Name = RetinoicAcid.pdbqt.pdb
REMARK  6 active torsions:
REMARK  status: ('A' for Active; 'I' for Inactive)
REMARK    1  A    between atoms: C_1  and  C_3
REMARK    2  A    between atoms: C_1  and  C_5
REMARK    3  A    between atoms: C_3  and  C_15
REMARK    4  A    between atoms: C_4  and  C_9
REMARK    5  A    between atoms: C_16  and  C_17
REMARK    6  A    between atoms: C_21  and  O_22
REMARK                            x       y       z     vdW  Elec       q    Type
REMARK                         _______ _______ _______ _____ _____    ______ ____
ROOT
ATOM      1  C   UNL     1     142.543 129.105  97.987  0.00  0.00    +0.000 C 
ATOM      2  C   UNL     1     141.714 130.025  98.831  0.00  0.00    +0.000 C 
ENDROOT
BRANCH   1   4
ATOM      3  C   UNL     1     141.630 128.261  95.682  0.00  0.00    +0.000 C 
ATOM      4  C   UNL     1     142.052 128.653  96.738  0.00  0.00    +0.000 C 
BRANCH   3   8
ATOM      5  C   UNL     1     141.699 126.474  93.792  0.00  0.00    +0.000 C 
ATOM      6  C   UNL     1     140.995 126.220  92.513  0.00  0.00    +0.000 C 
ATOM      7  C   UNL     1     139.916 126.794  91.615  0.00  0.00    +0.000 C 
ATOM      8  C   UNL     1     141.118 127.786  94.418  0.00  0.00    +0.000 C 
ATOM      9  C   UNL     1     139.655 127.964  92.539  0.00  0.00    +0.000 C 
ATOM     10  C   UNL     1     140.135 128.468  93.781  0.00  0.00    +0.000 C 
ATOM     11  C   UNL     1     143.217 126.668  93.529  0.00  0.00    +0.000 C 
ATOM     12  C   UNL     1     141.446 125.297  94.777  0.00  0.00    +0.000 C 
ATOM     13  C   UNL     1     139.500 129.729  94.301  0.00  0.00    +0.000 C 
ENDBRANCH   3   8
ENDBRANCH   1   4
BRANCH   1  14
ATOM     14  C   UNL     1     143.689 128.686  98.423  0.00  0.00    +0.000 C 
BRANCH  14  15
ATOM     15  C   UNL     1     145.047 128.190  98.936  0.00  0.00    +0.000 C 
ATOM     16  C   UNL     1     146.109 127.800  99.338  0.00  0.00    +0.000 C 
BRANCH  16  17
ATOM     17  C   UNL     1     147.362 127.337  99.807  0.00  0.00    +0.000 C 
ATOM     18  C   UNL     1     148.601 127.602  99.007  0.00  0.00    +0.000 C 
ATOM     19  C   UNL     1     147.432 126.660 100.904  0.00  0.00    +0.000 C 
ATOM     20  O   UNL     1     147.519 126.454 103.216  0.00  0.00    +0.000 OA
ATOM     21  C   UNL     1     147.498 125.928 102.119  0.00  0.00    +0.000 C 
BRANCH  21  22
ATOM     22  O   UNL     1     147.512 124.595 101.953  0.00  0.00    +0.000 OA
ATOM     23  H   UNL     1     148.277 124.295 102.488  0.00  0.00    +0.000 HD
ENDBRANCH  21  22
ENDBRANCH  16  17
ENDBRANCH  14  15
ENDBRANCH   1  14
TORSDOF 6
ENDMDL
MODEL 8
REMARK VINA RESULT:      -5.8      3.537      8.452
REMARK  Name = RetinoicAcid.pdbqt.pdb
REMARK  6 active torsions:
REMARK  status: ('A' for Active; 'I' for Inactive)
REMARK    1  A    between atoms: C_1  and  C_3
REMARK    2  A    between atoms: C_1  and  C_5
REMARK    3  A    between atoms: C_3  and  C_15
REMARK    4  A    between atoms: C_4  and  C_9
REMARK    5  A    between atoms: C_16  and  C_17
REMARK    6  A    between atoms: C_21  and  O_22
REMARK                            x       y       z     vdW  Elec       q    Type
REMARK                         _______ _______ _______ _____ _____    ______ ____
ROOT
ATOM      1  C   UNL     1     134.216 122.370 140.109  0.00  0.00    +0.000 C 
ATOM      2  C   UNL     1     132.960 121.562 140.218  0.00  0.00    +0.000 C 
ENDROOT
BRANCH   1   4
ATOM      3  C   UNL     1     135.248 123.498 142.236  0.00  0.00    +0.000 C 
ATOM      4  C   UNL     1     134.769 122.982 141.260  0.00  0.00    +0.000 C 
BRANCH   3   8
ATOM      5  C   UNL     1     135.632 125.650 143.646  0.00  0.00    +0.000 C 
ATOM      6  C   UNL     1     136.321 126.013 144.906  0.00  0.00    +0.000 C 
ATOM      7  C   UNL     1     137.145 125.409 146.027  0.00  0.00    +0.000 C 
ATOM      8  C   UNL     1     135.830 124.117 143.403  0.00  0.00    +0.000 C 
ATOM      9  C   UNL     1     137.092 124.020 145.428  0.00  0.00    +0.000 C 
ATOM     10  C   UNL     1     136.539 123.373 144.288  0.00  0.00    +0.000 C 
ATOM     11  C   UNL     1     136.254 126.435 142.459  0.00  0.00    +0.000 C 
ATOM     12  C   UNL     1     134.110 125.941 143.774  0.00  0.00    +0.000 C 
ATOM     13  C   UNL     1     136.778 121.894 144.156  0.00  0.00    +0.000 C 
ENDBRANCH   3   8
ENDBRANCH   1   4
BRANCH   1  14
ATOM     14  C   UNL     1     134.770 122.550 138.951  0.00  0.00    +0.000 C 
BRANCH  14  15
ATOM     15  C   UNL     1     135.429 122.762 137.582  0.00  0.00    +0.000 C 
ATOM     16  C   UNL     1     135.943 122.929 136.510  0.00  0.00    +0.000 C 
BRANCH  16  17
ATOM     17  C   UNL     1     136.551 123.131 135.248  0.00  0.00    +0.000 C 
ATOM     18  C   UNL     1     135.697 123.339 134.035  0.00  0.00    +0.000 C 
ATOM     19  C   UNL     1     137.837 123.104 135.138  0.00  0.00    +0.000 C 
ATOM     20  O   UNL     1     139.956 124.044 135.288  0.00  0.00    +0.000 OA
ATOM     21  C   UNL     1     139.253 123.084 135.031  0.00  0.00    +0.000 C 
BRANCH  21  22
ATOM     22  O   UNL     1     139.755 121.901 134.642  0.00  0.00    +0.000 OA
ATOM     23  H   UNL     1     140.726 122.033 134.668  0.00  0.00    +0.000 HD
ENDBRANCH  21  22
ENDBRANCH  16  17
ENDBRANCH  14  15
ENDBRANCH   1  14
TORSDOF 6
ENDMDL
MODEL 9
REMARK VINA RESULT:      -5.8      2.243      3.864
REMARK  Name = RetinoicAcid.pdbqt.pdb
REMARK  6 active torsions:
REMARK  status: ('A' for Active; 'I' for Inactive)
REMARK    1  A    between atoms: C_1  and  C_3
REMARK    2  A    between atoms: C_1  and  C_5
REMARK    3  A    between atoms: C_3  and  C_15
REMARK    4  A    between atoms: C_4  and  C_9
REMARK    5  A    between atoms: C_16  and  C_17
REMARK    6  A    between atoms: C_21  and  O_22
REMARK                            x       y       z     vdW  Elec       q    Type
REMARK                         _______ _______ _______ _____ _____    ______ ____
ROOT
ATOM      1  C   UNL     1     136.043 123.034 139.807  0.00  0.00    +0.000 C 
ATOM      2  C   UNL     1     137.322 122.481 139.258  0.00  0.00    +0.000 C 
ENDROOT
BRANCH   1   4
ATOM      3  C   UNL     1     133.749 122.192 138.866  0.00  0.00    +0.000 C 
ATOM      4  C   UNL     1     134.800 122.584 139.300  0.00  0.00    +0.000 C 
BRANCH   3   8
ATOM      5  C   UNL     1     132.435 121.084 136.912  0.00  0.00    +0.000 C 
ATOM      6  C   UNL     1     131.036 120.678 136.639  0.00  0.00    +0.000 C 
ATOM      7  C   UNL     1     129.656 120.668 137.267  0.00  0.00    +0.000 C 
ATOM      8  C   UNL     1     132.490 121.715 138.344  0.00  0.00    +0.000 C 
ATOM      9  C   UNL     1     130.143 121.320 138.543  0.00  0.00    +0.000 C 
ATOM     10  C   UNL     1     131.363 121.806 139.093  0.00  0.00    +0.000 C 
ATOM     11  C   UNL     1     132.889 122.146 135.874  0.00  0.00    +0.000 C 
ATOM     12  C   UNL     1     133.362 119.836 136.882  0.00  0.00    +0.000 C 
ATOM     13  C   UNL     1     131.309 122.381 140.481  0.00  0.00    +0.000 C 
ENDBRANCH   3   8
ENDBRANCH   1   4
BRANCH   1  14
ATOM     14  C   UNL     1     136.076 123.962 140.712  0.00  0.00    +0.000 C 
BRANCH  14  15
ATOM     15  C   UNL     1     136.114 125.057 141.785  0.00  0.00    +0.000 C 
ATOM     16  C   UNL     1     136.142 125.913 142.626  0.00  0.00    +0.000 C 
BRANCH  16  17
ATOM     17  C   UNL     1     136.175 126.920 143.621  0.00  0.00    +0.000 C 
ATOM     18  C   UNL     1     134.922 127.661 143.972  0.00  0.00    +0.000 C 
ATOM     19  C   UNL     1     137.289 127.220 144.200  0.00  0.00    +0.000 C 
ATOM     20  O   UNL     1     138.968 126.891 145.772  0.00  0.00    +0.000 OA
ATOM     21  C   UNL     1     138.517 127.532 144.840  0.00  0.00    +0.000 C 
BRANCH  21  22
ATOM     22  O   UNL     1     139.157 128.588 144.311  0.00  0.00    +0.000 OA
ATOM     23  H   UNL     1     139.251 128.360 143.363  0.00  0.00    +0.000 HD
ENDBRANCH  21  22
ENDBRANCH  16  17
ENDBRANCH  14  15
ENDBRANCH   1  14
TORSDOF 6
ENDMDL
