MODEL 1
REMARK VINA RESULT:      -8.4      0.000      0.000
REMARK  Name = SB_202190.pdbqt.pdb
REMARK  4 active torsions:
REMARK  status: ('A' for Active; 'I' for Inactive)
REMARK    1  A    between atoms: C_4  and  C_7
REMARK    2  A    between atoms: C_5  and  C_19
REMARK    3  A    between atoms: C_6  and  C_8
REMARK    4  A    between atoms: C_15  and  O_26
REMARK                            x       y       z     vdW  Elec       q    Type
REMARK                         _______ _______ _______ _____ _____    ______ ____
ROOT
ATOM      1  N   UNL     1     139.244 122.645 134.267  0.00  0.00    +0.000 N 
ATOM      2  N   UNL     1     138.330 124.543 133.638  0.00  0.00    +0.000 NA
ATOM      3  C   UNL     1     140.302 123.524 134.145  0.00  0.00    +0.000 A 
ATOM      4  C   UNL     1     139.697 124.698 133.719  0.00  0.00    +0.000 A 
ATOM      5  C   UNL     1     138.071 123.295 133.970  0.00  0.00    +0.000 A 
ATOM      6  H   UNL     1     139.311 121.682 134.567  0.00  0.00    +0.000 HD
ENDROOT
BRANCH   4   7
ATOM      7  C   UNL     1     140.330 125.953 133.370  0.00  0.00    +0.000 A 
ATOM      8  C   UNL     1     140.441 126.365 132.041  0.00  0.00    +0.000 A 
ATOM      9  C   UNL     1     141.012 127.596 131.727  0.00  0.00    +0.000 A 
ATOM     10  C   UNL     1     141.456 128.421 132.754  0.00  0.00    +0.000 A 
ATOM     11  F   UNL     1     142.009 129.604 132.455  0.00  0.00    +0.000 F 
ATOM     12  C   UNL     1     141.338 128.038 134.084  0.00  0.00    +0.000 A 
ATOM     13  C   UNL     1     140.766 126.804 134.389  0.00  0.00    +0.000 A 
ENDBRANCH   4   7
BRANCH   3  15
ATOM     14  N   UNL     1     144.286 122.361 135.131  0.00  0.00    +0.000 NA
ATOM     15  C   UNL     1     141.672 123.142 134.474  0.00  0.00    +0.000 A 
ATOM     16  C   UNL     1     142.287 123.621 135.630  0.00  0.00    +0.000 A 
ATOM     17  C   UNL     1     142.376 122.258 133.657  0.00  0.00    +0.000 A 
ATOM     18  C   UNL     1     143.580 123.209 135.909  0.00  0.00    +0.000 A 
ATOM     19  C   UNL     1     143.666 121.909 134.022  0.00  0.00    +0.000 A 
ENDBRANCH   3  15
BRANCH   5  20
ATOM     20  C   UNL     1     136.753 122.672 134.023  0.00  0.00    +0.000 A 
ATOM     21  C   UNL     1     135.805 123.131 134.942  0.00  0.00    +0.000 A 
ATOM     22  C   UNL     1     136.413 121.619 133.170  0.00  0.00    +0.000 A 
ATOM     23  C   UNL     1     134.541 122.552 135.011  0.00  0.00    +0.000 A 
ATOM     24  C   UNL     1     135.151 121.032 133.231  0.00  0.00    +0.000 A 
ATOM     25  C   UNL     1     134.224 121.504 134.152  0.00  0.00    +0.000 A 
BRANCH  25  26
ATOM     26  O   UNL     1     132.994 120.916 134.194  0.00  0.00    +0.000 OA
ATOM     27  H   UNL     1     132.321 121.619 134.207  0.00  0.00    +0.000 HD
ENDBRANCH  25  26
ENDBRANCH   5  20
TORSDOF 4
ENDMDL
MODEL 2
REMARK VINA RESULT:      -8.0     31.568     33.913
REMARK  Name = SB_202190.pdbqt.pdb
REMARK  4 active torsions:
REMARK  status: ('A' for Active; 'I' for Inactive)
REMARK    1  A    between atoms: C_4  and  C_7
REMARK    2  A    between atoms: C_5  and  C_19
REMARK    3  A    between atoms: C_6  and  C_8
REMARK    4  A    between atoms: C_15  and  O_26
REMARK                            x       y       z     vdW  Elec       q    Type
REMARK                         _______ _______ _______ _____ _____    ______ ____
ROOT
ATOM      1  N   UNL     1     145.544 127.373 101.671  0.00  0.00    +0.000 N 
ATOM      2  N   UNL     1     144.149 127.165  99.985  0.00  0.00    +0.000 NA
ATOM      3  C   UNL     1     144.439 126.739 102.202  0.00  0.00    +0.000 A 
ATOM      4  C   UNL     1     143.569 126.651 101.124  0.00  0.00    +0.000 A 
ATOM      5  C   UNL     1     145.342 127.601 100.331  0.00  0.00    +0.000 A 
ATOM      6  H   UNL     1     146.390 127.602 102.174  0.00  0.00    +0.000 HD
ENDROOT
BRANCH   4   7
ATOM      7  C   UNL     1     142.220 126.125 101.106  0.00  0.00    +0.000 A 
ATOM      8  C   UNL     1     141.183 126.760 101.791  0.00  0.00    +0.000 A 
ATOM      9  C   UNL     1     139.883 126.266 101.726  0.00  0.00    +0.000 A 
ATOM     10  C   UNL     1     139.623 125.139 100.955  0.00  0.00    +0.000 A 
ATOM     11  F   UNL     1     138.374 124.658 100.893  0.00  0.00    +0.000 F 
ATOM     12  C   UNL     1     140.637 124.502 100.250  0.00  0.00    +0.000 A 
ATOM     13  C   UNL     1     141.935 125.003 100.323  0.00  0.00    +0.000 A 
ENDBRANCH   4   7
BRANCH   3  15
ATOM     14  N   UNL     1     144.341 125.405 106.253  0.00  0.00    +0.000 NA
ATOM     15  C   UNL     1     144.391 126.295 103.592  0.00  0.00    +0.000 A 
ATOM     16  C   UNL     1     143.481 125.321 103.998  0.00  0.00    +0.000 A 
ATOM     17  C   UNL     1     145.285 126.810 104.530  0.00  0.00    +0.000 A 
ATOM     18  C   UNL     1     143.492 124.918 105.323  0.00  0.00    +0.000 A 
ATOM     19  C   UNL     1     145.215 126.343 105.833  0.00  0.00    +0.000 A 
ENDBRANCH   3  15
BRANCH   5  20
ATOM     20  C   UNL     1     146.320 128.231  99.451  0.00  0.00    +0.000 A 
ATOM     21  C   UNL     1     145.889 129.105  98.449  0.00  0.00    +0.000 A 
ATOM     22  C   UNL     1     147.688 127.981  99.587  0.00  0.00    +0.000 A 
ATOM     23  C   UNL     1     146.804 129.719  97.597  0.00  0.00    +0.000 A 
ATOM     24  C   UNL     1     148.611 128.590  98.741  0.00  0.00    +0.000 A 
ATOM     25  C   UNL     1     148.161 129.455  97.752  0.00  0.00    +0.000 A 
BRANCH  25  26
ATOM     26  O   UNL     1     149.082 130.041  96.933  0.00  0.00    +0.000 OA
ATOM     27  H   UNL     1     148.613 130.639  96.326  0.00  0.00    +0.000 HD
ENDBRANCH  25  26
ENDBRANCH   5  20
TORSDOF 4
ENDMDL
MODEL 3
REMARK VINA RESULT:      -7.3     32.255     34.581
REMARK  Name = SB_202190.pdbqt.pdb
REMARK  4 active torsions:
REMARK  status: ('A' for Active; 'I' for Inactive)
REMARK    1  A    between atoms: C_4  and  C_7
REMARK    2  A    between atoms: C_5  and  C_19
REMARK    3  A    between atoms: C_6  and  C_8
REMARK    4  A    between atoms: C_15  and  O_26
REMARK                            x       y       z     vdW  Elec       q    Type
REMARK                         _______ _______ _______ _____ _____    ______ ____
ROOT
ATOM      1  N   UNL     1     145.712 127.627 100.711  0.00  0.00    +0.000 N 
ATOM      2  N   UNL     1     144.110 127.302  99.241  0.00  0.00    +0.000 NA
ATOM      3  C   UNL     1     144.671 127.082 101.436  0.00  0.00    +0.000 A 
ATOM      4  C   UNL     1     143.670 126.919 100.489  0.00  0.00    +0.000 A 
ATOM      5  C   UNL     1     145.345 127.731  99.390  0.00  0.00    +0.000 A 
ATOM      6  H   UNL     1     146.619 127.876 101.079  0.00  0.00    +0.000 HD
ENDROOT
BRANCH   4   7
ATOM      7  C   UNL     1     142.320 126.436 100.692  0.00  0.00    +0.000 A 
ATOM      8  C   UNL     1     141.896 125.217 100.160  0.00  0.00    +0.000 A 
ATOM      9  C   UNL     1     140.608 124.746 100.403  0.00  0.00    +0.000 A 
ATOM     10  C   UNL     1     139.750 125.497 101.198  0.00  0.00    +0.000 A 
ATOM     11  F   UNL     1     138.509 125.050 101.431  0.00  0.00    +0.000 F 
ATOM     12  C   UNL     1     140.157 126.705 101.752  0.00  0.00    +0.000 A 
ATOM     13  C   UNL     1     141.447 127.167 101.502  0.00  0.00    +0.000 A 
ENDBRANCH   4   7
BRANCH   3  15
ATOM     14  N   UNL     1     145.058 126.143 105.579  0.00  0.00    +0.000 NA
ATOM     15  C   UNL     1     144.791 126.775 102.858  0.00  0.00    +0.000 A 
ATOM     16  C   UNL     1     143.843 125.980 103.498  0.00  0.00    +0.000 A 
ATOM     17  C   UNL     1     145.882 127.241 103.592  0.00  0.00    +0.000 A 
ATOM     18  C   UNL     1     144.017 125.699 104.844  0.00  0.00    +0.000 A 
ATOM     19  C   UNL     1     145.964 126.906 104.934  0.00  0.00    +0.000 A 
ENDBRANCH   3  15
BRANCH   5  20
ATOM     20  C   UNL     1     146.215 128.243  98.337  0.00  0.00    +0.000 A 
ATOM     21  C   UNL     1     147.233 129.146  98.656  0.00  0.00    +0.000 A 
ATOM     22  C   UNL     1     146.055 127.848  97.006  0.00  0.00    +0.000 A 
ATOM     23  C   UNL     1     148.076 129.648  97.668  0.00  0.00    +0.000 A 
ATOM     24  C   UNL     1     146.892 128.344  96.010  0.00  0.00    +0.000 A 
ATOM     25  C   UNL     1     147.898 129.241  96.350  0.00  0.00    +0.000 A 
BRANCH  25  26
ATOM     26  O   UNL     1     148.707 129.714  95.359  0.00  0.00    +0.000 OA
ATOM     27  H   UNL     1     149.489 130.119  95.772  0.00  0.00    +0.000 HD
ENDBRANCH  25  26
ENDBRANCH   5  20
TORSDOF 4
ENDMDL
MODEL 4
REMARK VINA RESULT:      -7.1      4.338      7.733
REMARK  Name = SB_202190.pdbqt.pdb
REMARK  4 active torsions:
REMARK  status: ('A' for Active; 'I' for Inactive)
REMARK    1  A    between atoms: C_4  and  C_7
REMARK    2  A    between atoms: C_5  and  C_19
REMARK    3  A    between atoms: C_6  and  C_8
REMARK    4  A    between atoms: C_15  and  O_26
REMARK                            x       y       z     vdW  Elec       q    Type
REMARK                         _______ _______ _______ _____ _____    ______ ____
ROOT
ATOM      1  N   UNL     1     137.466 121.949 133.730  0.00  0.00    +0.000 N 
ATOM      2  N   UNL     1     137.795 123.426 135.325  0.00  0.00    +0.000 NA
ATOM      3  C   UNL     1     136.707 121.499 134.791  0.00  0.00    +0.000 A 
ATOM      4  C   UNL     1     136.960 122.433 135.786  0.00  0.00    +0.000 A 
ATOM      5  C   UNL     1     138.096 123.120 134.080  0.00  0.00    +0.000 A 
ATOM      6  H   UNL     1     137.524 121.513 132.820  0.00  0.00    +0.000 HD
ENDROOT
BRANCH   4   7
ATOM      7  C   UNL     1     136.473 122.437 137.150  0.00  0.00    +0.000 A 
ATOM      8  C   UNL     1     137.352 122.478 138.235  0.00  0.00    +0.000 A 
ATOM      9  C   UNL     1     136.866 122.528 139.539  0.00  0.00    +0.000 A 
ATOM     10  C   UNL     1     135.492 122.554 139.751  0.00  0.00    +0.000 A 
ATOM     11  F   UNL     1     135.020 122.598 141.004  0.00  0.00    +0.000 F 
ATOM     12  C   UNL     1     134.600 122.533 138.685  0.00  0.00    +0.000 A 
ATOM     13  C   UNL     1     135.096 122.482 137.385  0.00  0.00    +0.000 A 
ENDBRANCH   4   7
BRANCH   3  15
ATOM     14  N   UNL     1     134.197 118.058 134.550  0.00  0.00    +0.000 NA
ATOM     15  C   UNL     1     135.858 120.316 134.693  0.00  0.00    +0.000 A 
ATOM     16  C   UNL     1     136.273 119.095 135.221  0.00  0.00    +0.000 A 
ATOM     17  C   UNL     1     134.596 120.398 134.103  0.00  0.00    +0.000 A 
ATOM     18  C   UNL     1     135.419 118.008 135.122  0.00  0.00    +0.000 A 
ATOM     19  C   UNL     1     133.817 119.253 134.052  0.00  0.00    +0.000 A 
ENDBRANCH   3  15
BRANCH   5  20
ATOM     20  C   UNL     1     138.960 123.884 133.187  0.00  0.00    +0.000 A 
ATOM     21  C   UNL     1     140.319 123.570 133.101  0.00  0.00    +0.000 A 
ATOM     22  C   UNL     1     138.457 124.930 132.408  0.00  0.00    +0.000 A 
ATOM     23  C   UNL     1     141.163 124.285 132.255  0.00  0.00    +0.000 A 
ATOM     24  C   UNL     1     139.292 125.651 131.559  0.00  0.00    +0.000 A 
ATOM     25  C   UNL     1     140.640 125.322 131.489  0.00  0.00    +0.000 A 
BRANCH  25  26
ATOM     26  O   UNL     1     141.441 126.042 130.651  0.00  0.00    +0.000 OA
ATOM     27  H   UNL     1     142.269 126.244 131.120  0.00  0.00    +0.000 HD
ENDBRANCH  25  26
ENDBRANCH   5  20
TORSDOF 4
ENDMDL
MODEL 5
REMARK VINA RESULT:      -7.1     32.720     34.710
REMARK  Name = SB_202190.pdbqt.pdb
REMARK  4 active torsions:
REMARK  status: ('A' for Active; 'I' for Inactive)
REMARK    1  A    between atoms: C_4  and  C_7
REMARK    2  A    between atoms: C_5  and  C_19
REMARK    3  A    between atoms: C_6  and  C_8
REMARK    4  A    between atoms: C_15  and  O_26
REMARK                            x       y       z     vdW  Elec       q    Type
REMARK                         _______ _______ _______ _____ _____    ______ ____
ROOT
ATOM      1  N   UNL     1     144.256 126.583  98.639  0.00  0.00    +0.000 N 
ATOM      2  N   UNL     1     144.104 125.536 100.566  0.00  0.00    +0.000 NA
ATOM      3  C   UNL     1     145.341 127.025  99.369  0.00  0.00    +0.000 A 
ATOM      4  C   UNL     1     145.199 126.372 100.585  0.00  0.00    +0.000 A 
ATOM      5  C   UNL     1     143.541 125.676  99.384  0.00  0.00    +0.000 A 
ATOM      6  H   UNL     1     144.037 126.850  97.690  0.00  0.00    +0.000 HD
ENDROOT
BRANCH   4   7
ATOM      7  C   UNL     1     146.024 126.498 101.768  0.00  0.00    +0.000 A 
ATOM      8  C   UNL     1     145.703 127.398 102.786  0.00  0.00    +0.000 A 
ATOM      9  C   UNL     1     146.482 127.474 103.938  0.00  0.00    +0.000 A 
ATOM     10  C   UNL     1     147.577 126.629 104.073  0.00  0.00    +0.000 A 
ATOM     11  F   UNL     1     148.332 126.702 105.177  0.00  0.00    +0.000 F 
ATOM     12  C   UNL     1     147.904 125.712 103.080  0.00  0.00    +0.000 A 
ATOM     13  C   UNL     1     147.119 125.645 101.932  0.00  0.00    +0.000 A 
ENDBRANCH   4   7
BRANCH   3  15
ATOM     14  N   UNL     1     148.233 129.672  97.686  0.00  0.00    +0.000 NA
ATOM     15  C   UNL     1     146.334 127.939  98.811  0.00  0.00    +0.000 A 
ATOM     16  C   UNL     1     147.692 127.633  98.862  0.00  0.00    +0.000 A 
ATOM     17  C   UNL     1     145.935 129.116  98.179  0.00  0.00    +0.000 A 
ATOM     18  C   UNL     1     148.591 128.522  98.296  0.00  0.00    +0.000 A 
ATOM     19  C   UNL     1     146.912 129.941  97.646  0.00  0.00    +0.000 A 
ENDBRANCH   3  15
BRANCH   5  20
ATOM     20  C   UNL     1     142.345 124.989  98.910  0.00  0.00    +0.000 A 
ATOM     21  C   UNL     1     141.526 124.314  99.819  0.00  0.00    +0.000 A 
ATOM     22  C   UNL     1     141.995 124.990  97.556  0.00  0.00    +0.000 A 
ATOM     23  C   UNL     1     140.379 123.652  99.390  0.00  0.00    +0.000 A 
ATOM     24  C   UNL     1     140.851 124.330  97.116  0.00  0.00    +0.000 A 
ATOM     25  C   UNL     1     140.051 123.666  98.038  0.00  0.00    +0.000 A 
BRANCH  25  26
ATOM     26  O   UNL     1     138.933 123.026  97.586  0.00  0.00    +0.000 OA
ATOM     27  H   UNL     1     138.866 123.173  96.626  0.00  0.00    +0.000 HD
ENDBRANCH  25  26
ENDBRANCH   5  20
TORSDOF 4
ENDMDL
MODEL 6
REMARK VINA RESULT:      -7.0     31.852     33.895
REMARK  Name = SB_202190.pdbqt.pdb
REMARK  4 active torsions:
REMARK  status: ('A' for Active; 'I' for Inactive)
REMARK    1  A    between atoms: C_4  and  C_7
REMARK    2  A    between atoms: C_5  and  C_19
REMARK    3  A    between atoms: C_6  and  C_8
REMARK    4  A    between atoms: C_15  and  O_26
REMARK                            x       y       z     vdW  Elec       q    Type
REMARK                         _______ _______ _______ _____ _____    ______ ____
ROOT
ATOM      1  N   UNL     1     143.478 124.597 101.561  0.00  0.00    +0.000 N 
ATOM      2  N   UNL     1     143.500 126.795 101.529  0.00  0.00    +0.000 NA
ATOM      3  C   UNL     1     143.146 124.936 100.265  0.00  0.00    +0.000 A 
ATOM      4  C   UNL     1     143.139 126.323 100.286  0.00  0.00    +0.000 A 
ATOM      5  C   UNL     1     143.700 125.740 102.291  0.00  0.00    +0.000 A 
ATOM      6  H   UNL     1     143.583 123.657 101.915  0.00  0.00    +0.000 HD
ENDROOT
BRANCH   4   7
ATOM      7  C   UNL     1     142.798 127.231  99.211  0.00  0.00    +0.000 A 
ATOM      8  C   UNL     1     143.282 127.037  97.915  0.00  0.00    +0.000 A 
ATOM      9  C   UNL     1     142.907 127.894  96.883  0.00  0.00    +0.000 A 
ATOM     10  C   UNL     1     142.029 128.937  97.152  0.00  0.00    +0.000 A 
ATOM     11  F   UNL     1     141.669 129.766  96.163  0.00  0.00    +0.000 F 
ATOM     12  C   UNL     1     141.521 129.137  98.430  0.00  0.00    +0.000 A 
ATOM     13  C   UNL     1     141.903 128.276  99.456  0.00  0.00    +0.000 A 
ENDBRANCH   4   7
BRANCH   3  15
ATOM     14  N   UNL     1     142.522 122.035  97.199  0.00  0.00    +0.000 NA
ATOM     15  C   UNL     1     142.929 123.929  99.229  0.00  0.00    +0.000 A 
ATOM     16  C   UNL     1     141.641 123.596  98.817  0.00  0.00    +0.000 A 
ATOM     17  C   UNL     1     144.013 123.312  98.605  0.00  0.00    +0.000 A 
ATOM     18  C   UNL     1     141.491 122.653  97.814  0.00  0.00    +0.000 A 
ATOM     19  C   UNL     1     143.759 122.379  97.613  0.00  0.00    +0.000 A 
ENDBRANCH   3  15
BRANCH   5  20
ATOM     20  C   UNL     1     144.097 125.751 103.694  0.00  0.00    +0.000 A 
ATOM     21  C   UNL     1     145.160 126.558 104.109  0.00  0.00    +0.000 A 
ATOM     22  C   UNL     1     143.433 124.968 104.643  0.00  0.00    +0.000 A 
ATOM     23  C   UNL     1     145.556 126.585 105.444  0.00  0.00    +0.000 A 
ATOM     24  C   UNL     1     143.821 124.987 105.980  0.00  0.00    +0.000 A 
ATOM     25  C   UNL     1     144.880 125.797 106.370  0.00  0.00    +0.000 A 
BRANCH  25  26
ATOM     26  O   UNL     1     145.244 125.802 107.685  0.00  0.00    +0.000 OA
ATOM     27  H   UNL     1     145.444 124.887 107.949  0.00  0.00    +0.000 HD
ENDBRANCH  25  26
ENDBRANCH   5  20
TORSDOF 4
ENDMDL
MODEL 7
REMARK VINA RESULT:      -7.0     33.744     35.642
REMARK  Name = SB_202190.pdbqt.pdb
REMARK  4 active torsions:
REMARK  status: ('A' for Active; 'I' for Inactive)
REMARK    1  A    between atoms: C_4  and  C_7
REMARK    2  A    between atoms: C_5  and  C_19
REMARK    3  A    between atoms: C_6  and  C_8
REMARK    4  A    between atoms: C_15  and  O_26
REMARK                            x       y       z     vdW  Elec       q    Type
REMARK                         _______ _______ _______ _____ _____    ______ ____
ROOT
ATOM      1  N   UNL     1     144.134 125.006  99.583  0.00  0.00    +0.000 N 
ATOM      2  N   UNL     1     144.995 125.628  97.659  0.00  0.00    +0.000 NA
ATOM      3  C   UNL     1     144.976 126.055  99.895  0.00  0.00    +0.000 A 
ATOM      4  C   UNL     1     145.524 126.403  98.668  0.00  0.00    +0.000 A 
ATOM      5  C   UNL     1     144.158 124.786  98.227  0.00  0.00    +0.000 A 
ATOM      6  H   UNL     1     143.557 124.500 100.240  0.00  0.00    +0.000 HD
ENDROOT
BRANCH   4   7
ATOM      7  C   UNL     1     146.526 127.411  98.392  0.00  0.00    +0.000 A 
ATOM      8  C   UNL     1     146.200 128.598  97.732  0.00  0.00    +0.000 A 
ATOM      9  C   UNL     1     147.167 129.577  97.515  0.00  0.00    +0.000 A 
ATOM     10  C   UNL     1     148.460 129.368  97.979  0.00  0.00    +0.000 A 
ATOM     11  F   UNL     1     149.394 130.305  97.769  0.00  0.00    +0.000 F 
ATOM     12  C   UNL     1     148.801 128.202  98.654  0.00  0.00    +0.000 A 
ATOM     13  C   UNL     1     147.828 127.228  98.865  0.00  0.00    +0.000 A 
ENDBRANCH   4   7
BRANCH   3  15
ATOM     14  N   UNL     1     145.364 127.622 103.844  0.00  0.00    +0.000 NA
ATOM     15  C   UNL     1     145.100 126.575 101.253  0.00  0.00    +0.000 A 
ATOM     16  C   UNL     1     146.180 126.216 102.058  0.00  0.00    +0.000 A 
ATOM     17  C   UNL     1     144.160 127.474 101.755  0.00  0.00    +0.000 A 
ATOM     18  C   UNL     1     146.264 126.757 103.330  0.00  0.00    +0.000 A 
ATOM     19  C   UNL     1     144.332 127.957 103.043  0.00  0.00    +0.000 A 
ENDBRANCH   3  15
BRANCH   5  20
ATOM     20  C   UNL     1     143.365 123.767  97.549  0.00  0.00    +0.000 A 
ATOM     21  C   UNL     1     141.972 123.790  97.652  0.00  0.00    +0.000 A 
ATOM     22  C   UNL     1     143.971 122.759  96.792  0.00  0.00    +0.000 A 
ATOM     23  C   UNL     1     141.194 122.827  97.013  0.00  0.00    +0.000 A 
ATOM     24  C   UNL     1     143.202 121.792  96.150  0.00  0.00    +0.000 A 
ATOM     25  C   UNL     1     141.818 121.834  96.265  0.00  0.00    +0.000 A 
BRANCH  25  26
ATOM     26  O   UNL     1     141.084 120.877  95.627  0.00  0.00    +0.000 OA
ATOM     27  H   UNL     1     141.025 120.100  96.210  0.00  0.00    +0.000 HD
ENDBRANCH  25  26
ENDBRANCH   5  20
TORSDOF 4
ENDMDL
MODEL 8
REMARK VINA RESULT:      -7.0     34.570     36.885
REMARK  Name = SB_202190.pdbqt.pdb
REMARK  4 active torsions:
REMARK  status: ('A' for Active; 'I' for Inactive)
REMARK    1  A    between atoms: C_4  and  C_7
REMARK    2  A    between atoms: C_5  and  C_19
REMARK    3  A    between atoms: C_6  and  C_8
REMARK    4  A    between atoms: C_15  and  O_26
REMARK                            x       y       z     vdW  Elec       q    Type
REMARK                         _______ _______ _______ _____ _____    ______ ____
ROOT
ATOM      1  N   UNL     1     147.613 127.475  98.504  0.00  0.00    +0.000 N 
ATOM      2  N   UNL     1     146.133 126.515  97.193  0.00  0.00    +0.000 NA
ATOM      3  C   UNL     1     146.738 126.840  99.363  0.00  0.00    +0.000 A 
ATOM      4  C   UNL     1     145.803 126.272  98.508  0.00  0.00    +0.000 A 
ATOM      5  C   UNL     1     147.228 127.245  97.205  0.00  0.00    +0.000 A 
ATOM      6  H   UNL     1     148.434 127.995  98.779  0.00  0.00    +0.000 HD
ENDROOT
BRANCH   4   7
ATOM      7  C   UNL     1     144.611 125.528  98.857  0.00  0.00    +0.000 A 
ATOM      8  C   UNL     1     144.619 124.133  98.923  0.00  0.00    +0.000 A 
ATOM      9  C   UNL     1     143.476 123.435  99.305  0.00  0.00    +0.000 A 
ATOM     10  C   UNL     1     142.327 124.144  99.637  0.00  0.00    +0.000 A 
ATOM     11  F   UNL     1     141.224 123.476 100.000  0.00  0.00    +0.000 F 
ATOM     12  C   UNL     1     142.303 125.533  99.595  0.00  0.00    +0.000 A 
ATOM     13  C   UNL     1     143.451 126.222  99.211  0.00  0.00    +0.000 A 
ENDBRANCH   4   7
BRANCH   3  15
ATOM     14  N   UNL     1     147.359 126.855 103.583  0.00  0.00    +0.000 NA
ATOM     15  C   UNL     1     146.933 126.836 100.810  0.00  0.00    +0.000 A 
ATOM     16  C   UNL     1     147.481 125.727 101.452  0.00  0.00    +0.000 A 
ATOM     17  C   UNL     1     146.612 127.960 101.570  0.00  0.00    +0.000 A 
ATOM     18  C   UNL     1     147.668 125.784 102.823  0.00  0.00    +0.000 A 
ATOM     19  C   UNL     1     146.836 127.917 102.937  0.00  0.00    +0.000 A 
ENDBRANCH   3  15
BRANCH   5  20
ATOM     20  C   UNL     1     147.944 127.748  96.038  0.00  0.00    +0.000 A 
ATOM     21  C   UNL     1     148.322 126.865  95.023  0.00  0.00    +0.000 A 
ATOM     22  C   UNL     1     148.264 129.102  95.910  0.00  0.00    +0.000 A 
ATOM     23  C   UNL     1     149.006 127.321  93.899  0.00  0.00    +0.000 A 
ATOM     24  C   UNL     1     148.948 129.569  94.790  0.00  0.00    +0.000 A 
ATOM     25  C   UNL     1     149.314 128.674  93.793  0.00  0.00    +0.000 A 
BRANCH  25  26
ATOM     26  O   UNL     1     149.983 129.152  92.704  0.00  0.00    +0.000 OA
ATOM     27  H   UNL     1     150.712 128.540  92.502  0.00  0.00    +0.000 HD
ENDBRANCH  25  26
ENDBRANCH   5  20
TORSDOF 4
ENDMDL
MODEL 9
REMARK VINA RESULT:      -6.9     32.075     34.214
REMARK  Name = SB_202190.pdbqt.pdb
REMARK  4 active torsions:
REMARK  status: ('A' for Active; 'I' for Inactive)
REMARK    1  A    between atoms: C_4  and  C_7
REMARK    2  A    between atoms: C_5  and  C_19
REMARK    3  A    between atoms: C_6  and  C_8
REMARK    4  A    between atoms: C_15  and  O_26
REMARK                            x       y       z     vdW  Elec       q    Type
REMARK                         _______ _______ _______ _____ _____    ______ ____
ROOT
ATOM      1  N   UNL     1     144.817 126.437 101.360  0.00  0.00    +0.000 N 
ATOM      2  N   UNL     1     143.467 124.717 101.590  0.00  0.00    +0.000 NA
ATOM      3  C   UNL     1     144.434 126.113 100.074  0.00  0.00    +0.000 A 
ATOM      4  C   UNL     1     143.611 125.010 100.251  0.00  0.00    +0.000 A 
ATOM      5  C   UNL     1     144.204 125.587 102.249  0.00  0.00    +0.000 A 
ATOM      6  H   UNL     1     145.421 127.204 101.618  0.00  0.00    +0.000 HD
ENDROOT
BRANCH   4   7
ATOM      7  C   UNL     1     142.963 124.206  99.236  0.00  0.00    +0.000 A 
ATOM      8  C   UNL     1     141.730 124.574  98.695  0.00  0.00    +0.000 A 
ATOM      9  C   UNL     1     141.143 123.814  97.686  0.00  0.00    +0.000 A 
ATOM     10  C   UNL     1     141.808 122.691  97.208  0.00  0.00    +0.000 A 
ATOM     11  F   UNL     1     141.245 121.955  96.241  0.00  0.00    +0.000 F 
ATOM     12  C   UNL     1     143.045 122.318  97.720  0.00  0.00    +0.000 A 
ATOM     13  C   UNL     1     143.623 123.083  98.729  0.00  0.00    +0.000 A 
ENDBRANCH   4   7
BRANCH   3  15
ATOM     14  N   UNL     1     145.630 128.381  96.664  0.00  0.00    +0.000 NA
ATOM     15  C   UNL     1     144.861 126.893  98.915  0.00  0.00    +0.000 A 
ATOM     16  C   UNL     1     145.637 126.314  97.914  0.00  0.00    +0.000 A 
ATOM     17  C   UNL     1     144.463 128.222  98.772  0.00  0.00    +0.000 A 
ATOM     18  C   UNL     1     145.995 127.091  96.824  0.00  0.00    +0.000 A 
ATOM     19  C   UNL     1     144.875 128.915  97.645  0.00  0.00    +0.000 A 
ENDBRANCH   3  15
BRANCH   5  20
ATOM     20  C   UNL     1     144.365 125.661 103.696  0.00  0.00    +0.000 A 
ATOM     21  C   UNL     1     145.362 126.475 104.242  0.00  0.00    +0.000 A 
ATOM     22  C   UNL     1     143.540 124.934 104.558  0.00  0.00    +0.000 A 
ATOM     23  C   UNL     1     145.535 126.563 105.622  0.00  0.00    +0.000 A 
ATOM     24  C   UNL     1     143.704 125.014 105.939  0.00  0.00    +0.000 A 
ATOM     25  C   UNL     1     144.701 125.829 106.460  0.00  0.00    +0.000 A 
BRANCH  25  26
ATOM     26  O   UNL     1     144.845 125.893 107.815  0.00  0.00    +0.000 OA
ATOM     27  H   UNL     1     144.180 125.309 108.219  0.00  0.00    +0.000 HD
ENDBRANCH  25  26
ENDBRANCH   5  20
TORSDOF 4
ENDMDL
