MODEL 1
REMARK VINA RESULT:      -7.4      0.000      0.000
REMARK  Name = Simvastatin.pdbqt.pdb
REMARK  7 active torsions:
REMARK  status: ('A' for Active; 'I' for Inactive)
REMARK    1  A    between atoms: C_2  and  C_13
REMARK    2  A    between atoms: C_3  and  O_24
REMARK    3  A    between atoms: C_14  and  C_15
REMARK    4  A    between atoms: C_20  and  O_22
REMARK    5  A    between atoms: O_24  and  C_25
REMARK    6  A    between atoms: C_25  and  C_27
REMARK    7  A    between atoms: C_27  and  C_30
REMARK                            x       y       z     vdW  Elec       q    Type
REMARK                         _______ _______ _______ _____ _____    ______ ____
ROOT
ATOM      1  C   UNL     1     143.296 126.834 100.789  0.00  0.00    +0.000 A 
ATOM      2  C   UNL     1     144.781 127.118 100.855  0.00  0.00    +0.000 A 
ATOM      3  C   UNL     1     142.609 126.031  99.716  0.00  0.00    +0.000 A 
ATOM      4  C   UNL     1     145.374 127.665 102.105  0.00  0.00    +0.000 A 
ATOM      5  C   UNL     1     142.437 127.345 101.965  0.00  0.00    +0.000 A 
ATOM      6  C   UNL     1     141.210 125.854  99.998  0.00  0.00    +0.000 A 
ATOM      7  C   UNL     1     140.360 126.239 101.082  0.00  0.00    +0.000 A 
ATOM      8  C   UNL     1     141.189 126.982 101.975  0.00  0.00    +0.000 A 
ATOM      9  C   UNL     1     144.387 127.947 103.093  0.00  0.00    +0.000 A 
ATOM     10  C   UNL     1     143.195 127.825 103.056  0.00  0.00    +0.000 A 
ATOM     11  C   UNL     1     146.821 127.972 102.347  0.00  0.00    +0.000 C 
ATOM     12  C   UNL     1     139.350 125.274 101.615  0.00  0.00    +0.000 C 
ENDROOT
BRANCH   2  13
ATOM     13  C   UNL     1     145.552 127.066  99.657  0.00  0.00    +0.000 C 
ATOM     14  C   UNL     1     146.401 126.943  98.386  0.00  0.00    +0.000 C 
BRANCH  14  15
ATOM     15  C   UNL     1     147.183 126.764  97.220  0.00  0.00    +0.000 C 
ATOM     16  O   UNL     1     147.947 125.546  97.101  0.00  0.00    +0.000 OA
ATOM     17  C   UNL     1     148.781 125.336  95.998  0.00  0.00    +0.000 C 
ATOM     18  O   UNL     1     149.455 124.331  95.831  0.00  0.00    +0.000 OA
ATOM     19  C   UNL     1     148.789 126.425  95.053  0.00  0.00    +0.000 C 
ATOM     20  C   UNL     1     148.131 127.673  95.005  0.00  0.00    +0.000 C 
ATOM     21  C   UNL     1     147.342 127.714  96.176  0.00  0.00    +0.000 C 
BRANCH  20  22
ATOM     22  O   UNL     1     148.737 128.776  94.479  0.00  0.00    +0.000 OA
ATOM     23  H   UNL     1     148.755 128.762  93.502  0.00  0.00    +0.000 HD
ENDBRANCH  20  22
ENDBRANCH  14  15
ENDBRANCH   2  13
BRANCH   3  24
ATOM     24  O   UNL     1     143.332 124.932  99.243  0.00  0.00    +0.000 OA
BRANCH  24  25
ATOM     25  C   UNL     1     143.316 124.842  97.864  0.00  0.00    +0.000 C 
ATOM     26  O   UNL     1     142.627 125.565  97.142  0.00  0.00    +0.000 OA
BRANCH  25  27
ATOM     27  C   UNL     1     144.264 123.696  97.366  0.00  0.00    +0.000 C 
ATOM     28  C   UNL     1     144.920 124.118  95.998  0.00  0.00    +0.000 C 
ATOM     29  C   UNL     1     143.461 122.350  97.147  0.00  0.00    +0.000 C 
BRANCH  27  30
ATOM     30  C   UNL     1     145.299 123.491  98.417  0.00  0.00    +0.000 C 
ATOM     31  C   UNL     1     146.408 123.313  99.496  0.00  0.00    +0.000 C 
ENDBRANCH  27  30
ENDBRANCH  25  27
ENDBRANCH  24  25
ENDBRANCH   3  24
TORSDOF 7
ENDMDL
MODEL 2
REMARK VINA RESULT:      -7.2      3.272      5.947
REMARK  Name = Simvastatin.pdbqt.pdb
REMARK  7 active torsions:
REMARK  status: ('A' for Active; 'I' for Inactive)
REMARK    1  A    between atoms: C_2  and  C_13
REMARK    2  A    between atoms: C_3  and  O_24
REMARK    3  A    between atoms: C_14  and  C_15
REMARK    4  A    between atoms: C_20  and  O_22
REMARK    5  A    between atoms: O_24  and  C_25
REMARK    6  A    between atoms: C_25  and  C_27
REMARK    7  A    between atoms: C_27  and  C_30
REMARK                            x       y       z     vdW  Elec       q    Type
REMARK                         _______ _______ _______ _____ _____    ______ ____
ROOT
ATOM      1  C   UNL     1     145.654 127.915  99.441  0.00  0.00    +0.000 A 
ATOM      2  C   UNL     1     145.726 128.022  97.933  0.00  0.00    +0.000 A 
ATOM      3  C   UNL     1     144.485 127.374 100.221  0.00  0.00    +0.000 A 
ATOM      4  C   UNL     1     147.032 128.293  97.273  0.00  0.00    +0.000 A 
ATOM      5  C   UNL     1     146.918 128.322 100.228  0.00  0.00    +0.000 A 
ATOM      6  C   UNL     1     144.771 127.307 101.629  0.00  0.00    +0.000 A 
ATOM      7  C   UNL     1     145.923 127.604 102.423  0.00  0.00    +0.000 A 
ATOM      8  C   UNL     1     146.902 128.100 101.509  0.00  0.00    +0.000 A 
ATOM      9  C   UNL     1     148.076 128.519  98.214  0.00  0.00    +0.000 A 
ATOM     10  C   UNL     1     148.051 128.535  99.413  0.00  0.00    +0.000 A 
ATOM     11  C   UNL     1     147.282 128.398  95.799  0.00  0.00    +0.000 C 
ATOM     12  C   UNL     1     146.322 126.682 103.530  0.00  0.00    +0.000 C 
ENDROOT
BRANCH   2  13
ATOM     13  C   UNL     1     144.516 128.078  97.182  0.00  0.00    +0.000 C 
ATOM     14  C   UNL     1     143.245 128.188  96.330  0.00  0.00    +0.000 C 
BRANCH  14  15
ATOM     15  C   UNL     1     142.108 128.314  95.497  0.00  0.00    +0.000 C 
ATOM     16  O   UNL     1     142.322 128.379  94.071  0.00  0.00    +0.000 OA
ATOM     17  C   UNL     1     141.243 128.557  93.200  0.00  0.00    +0.000 C 
ATOM     18  O   UNL     1     141.348 128.620  91.984  0.00  0.00    +0.000 OA
ATOM     19  C   UNL     1     139.967 128.670  93.861  0.00  0.00    +0.000 C 
ATOM     20  C   UNL     1     139.570 128.643  95.215  0.00  0.00    +0.000 C 
ATOM     21  C   UNL     1     140.767 128.455  95.942  0.00  0.00    +0.000 C 
BRANCH  20  22
ATOM     22  O   UNL     1     138.539 129.411  95.669  0.00  0.00    +0.000 OA
ATOM     23  H   UNL     1     138.324 129.233  96.605  0.00  0.00    +0.000 HD
ENDBRANCH  20  22
ENDBRANCH  14  15
ENDBRANCH   2  13
BRANCH   3  24
ATOM     24  O   UNL     1     143.826 126.292  99.629  0.00  0.00    +0.000 OA
BRANCH  24  25
ATOM     25  C   UNL     1     142.451 126.435  99.649  0.00  0.00    +0.000 C 
ATOM     26  O   UNL     1     141.881 127.521  99.778  0.00  0.00    +0.000 OA
BRANCH  25  27
ATOM     27  C   UNL     1     141.741 125.044  99.511  0.00  0.00    +0.000 C 
ATOM     28  C   UNL     1     140.466 125.014 100.436  0.00  0.00    +0.000 C 
ATOM     29  C   UNL     1     142.707 123.868  99.944  0.00  0.00    +0.000 C 
BRANCH  27  30
ATOM     30  C   UNL     1     141.368 124.878  98.078  0.00  0.00    +0.000 C 
ATOM     31  C   UNL     1     140.995 124.751  96.572  0.00  0.00    +0.000 C 
ENDBRANCH  27  30
ENDBRANCH  25  27
ENDBRANCH  24  25
ENDBRANCH   3  24
TORSDOF 7
ENDMDL
MODEL 3
REMARK VINA RESULT:      -7.1      2.897      6.444
REMARK  Name = Simvastatin.pdbqt.pdb
REMARK  7 active torsions:
REMARK  status: ('A' for Active; 'I' for Inactive)
REMARK    1  A    between atoms: C_2  and  C_13
REMARK    2  A    between atoms: C_3  and  O_24
REMARK    3  A    between atoms: C_14  and  C_15
REMARK    4  A    between atoms: C_20  and  O_22
REMARK    5  A    between atoms: O_24  and  C_25
REMARK    6  A    between atoms: C_25  and  C_27
REMARK    7  A    between atoms: C_27  and  C_30
REMARK                            x       y       z     vdW  Elec       q    Type
REMARK                         _______ _______ _______ _____ _____    ______ ____
ROOT
ATOM      1  C   UNL     1     142.917 126.212  97.266  0.00  0.00    +0.000 A 
ATOM      2  C   UNL     1     142.573 125.307  98.430  0.00  0.00    +0.000 A 
ATOM      3  C   UNL     1     144.150 127.070  97.163  0.00  0.00    +0.000 A 
ATOM      4  C   UNL     1     141.490 124.298  98.288  0.00  0.00    +0.000 A 
ATOM      5  C   UNL     1     141.957 126.184  96.057  0.00  0.00    +0.000 A 
ATOM      6  C   UNL     1     144.235 127.728  95.888  0.00  0.00    +0.000 A 
ATOM      7  C   UNL     1     143.430 127.708  94.705  0.00  0.00    +0.000 A 
ATOM      8  C   UNL     1     142.326 126.854  95.006  0.00  0.00    +0.000 A 
ATOM      9  C   UNL     1     140.826 124.393  97.031  0.00  0.00    +0.000 A 
ATOM     10  C   UNL     1     141.000 125.148  96.115  0.00  0.00    +0.000 A 
ATOM     11  C   UNL     1     141.047 123.311  99.324  0.00  0.00    +0.000 C 
ATOM     12  C   UNL     1     144.083 127.653  93.361  0.00  0.00    +0.000 C 
ENDROOT
BRANCH   2  13
ATOM     13  C   UNL     1     143.139 125.579  99.711  0.00  0.00    +0.000 C 
ATOM     14  C   UNL     1     143.810 125.842 101.064  0.00  0.00    +0.000 C 
BRANCH  14  15
ATOM     15  C   UNL     1     144.487 126.081 102.284  0.00  0.00    +0.000 C 
ATOM     16  O   UNL     1     143.808 125.735 103.509  0.00  0.00    +0.000 OA
ATOM     17  C   UNL     1     144.404 125.996 104.748  0.00  0.00    +0.000 C 
ATOM     18  O   UNL     1     143.889 125.731 105.823  0.00  0.00    +0.000 OA
ATOM     19  C   UNL     1     145.698 126.624 104.656  0.00  0.00    +0.000 C 
ATOM     20  C   UNL     1     146.500 127.039 103.571  0.00  0.00    +0.000 C 
ATOM     21  C   UNL     1     145.758 126.700 102.418  0.00  0.00    +0.000 C 
BRANCH  20  22
ATOM     22  O   UNL     1     147.280 128.155 103.650  0.00  0.00    +0.000 OA
ATOM     23  H   UNL     1     147.965 128.084 104.343  0.00  0.00    +0.000 HD
ENDBRANCH  20  22
ENDBRANCH  14  15
ENDBRANCH   2  13
BRANCH   3  24
ATOM     24  O   UNL     1     145.313 126.502  97.692  0.00  0.00    +0.000 OA
BRANCH  24  25
ATOM     25  C   UNL     1     146.238 126.182  96.714  0.00  0.00    +0.000 C 
ATOM     26  O   UNL     1     146.853 127.025  96.058  0.00  0.00    +0.000 OA
BRANCH  25  27
ATOM     27  C   UNL     1     146.367 124.628  96.551  0.00  0.00    +0.000 C 
ATOM     28  C   UNL     1     147.771 124.283  95.928  0.00  0.00    +0.000 C 
ATOM     29  C   UNL     1     145.238 124.062  95.597  0.00  0.00    +0.000 C 
BRANCH  27  30
ATOM     30  C   UNL     1     146.218 124.027  97.907  0.00  0.00    +0.000 C 
ATOM     31  C   UNL     1     146.017 123.416  99.324  0.00  0.00    +0.000 C 
ENDBRANCH  27  30
ENDBRANCH  25  27
ENDBRANCH  24  25
ENDBRANCH   3  24
TORSDOF 7
ENDMDL
MODEL 4
REMARK VINA RESULT:      -7.0      3.250      6.061
REMARK  Name = Simvastatin.pdbqt.pdb
REMARK  7 active torsions:
REMARK  status: ('A' for Active; 'I' for Inactive)
REMARK    1  A    between atoms: C_2  and  C_13
REMARK    2  A    between atoms: C_3  and  O_24
REMARK    3  A    between atoms: C_14  and  C_15
REMARK    4  A    between atoms: C_20  and  O_22
REMARK    5  A    between atoms: O_24  and  C_25
REMARK    6  A    between atoms: C_25  and  C_27
REMARK    7  A    between atoms: C_27  and  C_30
REMARK                            x       y       z     vdW  Elec       q    Type
REMARK                         _______ _______ _______ _____ _____    ______ ____
ROOT
ATOM      1  C   UNL     1     145.718 127.914  99.087  0.00  0.00    +0.000 A 
ATOM      2  C   UNL     1     145.861 127.933  97.580  0.00  0.00    +0.000 A 
ATOM      3  C   UNL     1     144.497 127.457  99.841  0.00  0.00    +0.000 A 
ATOM      4  C   UNL     1     147.203 128.124  96.967  0.00  0.00    +0.000 A 
ATOM      5  C   UNL     1     146.959 128.323  99.908  0.00  0.00    +0.000 A 
ATOM      6  C   UNL     1     144.718 127.461 101.262  0.00  0.00    +0.000 A 
ATOM      7  C   UNL     1     145.844 127.764 102.091  0.00  0.00    +0.000 A 
ATOM      8  C   UNL     1     146.879 128.175 101.197  0.00  0.00    +0.000 A 
ATOM      9  C   UNL     1     148.212 128.369  97.943  0.00  0.00    +0.000 A 
ATOM     10  C   UNL     1     148.135 128.453  99.136  0.00  0.00    +0.000 A 
ATOM     11  C   UNL     1     147.523 128.138  95.504  0.00  0.00    +0.000 C 
ATOM     12  C   UNL     1     146.161 126.893 103.264  0.00  0.00    +0.000 C 
ENDROOT
BRANCH   2  13
ATOM     13  C   UNL     1     144.688 127.988  96.772  0.00  0.00    +0.000 C 
ATOM     14  C   UNL     1     143.399 128.096  95.948  0.00  0.00    +0.000 C 
BRANCH  14  15
ATOM     15  C   UNL     1     142.198 128.254  95.216  0.00  0.00    +0.000 C 
ATOM     16  O   UNL     1     142.294 128.354  93.780  0.00  0.00    +0.000 OA
ATOM     17  C   UNL     1     141.148 128.563  93.006  0.00  0.00    +0.000 C 
ATOM     18  O   UNL     1     141.152 128.658  91.788  0.00  0.00    +0.000 OA
ATOM     19  C   UNL     1     139.932 128.670  93.774  0.00  0.00    +0.000 C 
ATOM     20  C   UNL     1     139.649 128.610  95.155  0.00  0.00    +0.000 C 
ATOM     21  C   UNL     1     140.900 128.393  95.774  0.00  0.00    +0.000 C 
BRANCH  20  22
ATOM     22  O   UNL     1     138.667 129.375  95.713  0.00  0.00    +0.000 OA
ATOM     23  H   UNL     1     138.261 128.951  96.494  0.00  0.00    +0.000 HD
ENDBRANCH  20  22
ENDBRANCH  14  15
ENDBRANCH   2  13
BRANCH   3  24
ATOM     24  O   UNL     1     143.828 126.366  99.279  0.00  0.00    +0.000 OA
BRANCH  24  25
ATOM     25  C   UNL     1     142.455 126.460  99.417  0.00  0.00    +0.000 C 
ATOM     26  O   UNL     1     141.780 127.362  98.916  0.00  0.00    +0.000 OA
BRANCH  25  27
ATOM     27  C   UNL     1     141.899 125.291 100.302  0.00  0.00    +0.000 C 
ATOM     28  C   UNL     1     143.073 124.305 100.663  0.00  0.00    +0.000 C 
ATOM     29  C   UNL     1     140.777 124.482  99.533  0.00  0.00    +0.000 C 
BRANCH  27  30
ATOM     30  C   UNL     1     141.316 125.904 101.528  0.00  0.00    +0.000 C 
ATOM     31  C   UNL     1     140.682 126.576 102.782  0.00  0.00    +0.000 C 
ENDBRANCH  27  30
ENDBRANCH  25  27
ENDBRANCH  24  25
ENDBRANCH   3  24
TORSDOF 7
ENDMDL
MODEL 5
REMARK VINA RESULT:      -7.0      1.506      1.981
REMARK  Name = Simvastatin.pdbqt.pdb
REMARK  7 active torsions:
REMARK  status: ('A' for Active; 'I' for Inactive)
REMARK    1  A    between atoms: C_2  and  C_13
REMARK    2  A    between atoms: C_3  and  O_24
REMARK    3  A    between atoms: C_14  and  C_15
REMARK    4  A    between atoms: C_20  and  O_22
REMARK    5  A    between atoms: O_24  and  C_25
REMARK    6  A    between atoms: C_25  and  C_27
REMARK    7  A    between atoms: C_27  and  C_30
REMARK                            x       y       z     vdW  Elec       q    Type
REMARK                         _______ _______ _______ _____ _____    ______ ____
ROOT
ATOM      1  C   UNL     1     143.843 126.382 100.779  0.00  0.00    +0.000 A 
ATOM      2  C   UNL     1     145.346 126.204 100.743  0.00  0.00    +0.000 A 
ATOM      3  C   UNL     1     142.931 126.347  99.581  0.00  0.00    +0.000 A 
ATOM      4  C   UNL     1     146.093 125.967 102.007  0.00  0.00    +0.000 A 
ATOM      5  C   UNL     1     143.194 126.531 102.173  0.00  0.00    +0.000 A 
ATOM      6  C   UNL     1     141.548 126.441  99.963  0.00  0.00    +0.000 A 
ATOM      7  C   UNL     1     140.868 126.520 101.220  0.00  0.00    +0.000 A 
ATOM      8  C   UNL     1     141.895 126.545 102.211  0.00  0.00    +0.000 A 
ATOM      9  C   UNL     1     145.251 126.035 103.154  0.00  0.00    +0.000 A 
ATOM     10  C   UNL     1     144.077 126.262 103.242  0.00  0.00    +0.000 A 
ATOM     11  C   UNL     1     147.568 125.741 102.143  0.00  0.00    +0.000 C 
ATOM     12  C   UNL     1     139.622 125.724 101.443  0.00  0.00    +0.000 C 
ENDROOT
BRANCH   2  13
ATOM     13  C   UNL     1     146.048 126.483  99.534  0.00  0.00    +0.000 C 
ATOM     14  C   UNL     1     146.740 126.780  98.198  0.00  0.00    +0.000 C 
BRANCH  14  15
ATOM     15  C   UNL     1     147.321 127.073  96.941  0.00  0.00    +0.000 C 
ATOM     16  O   UNL     1     147.710 125.964  96.104  0.00  0.00    +0.000 OA
ATOM     17  C   UNL     1     148.338 126.190  94.875  0.00  0.00    +0.000 C 
ATOM     18  O   UNL     1     148.695 125.303  94.115  0.00  0.00    +0.000 OA
ATOM     19  C   UNL     1     148.545 127.584  94.568  0.00  0.00    +0.000 C 
ATOM     20  C   UNL     1     148.248 128.782  95.253  0.00  0.00    +0.000 C 
ATOM     21  C   UNL     1     147.624 128.372  96.452  0.00  0.00    +0.000 C 
BRANCH  20  22
ATOM     22  O   UNL     1     149.072 129.866  95.178  0.00  0.00    +0.000 OA
ATOM     23  H   UNL     1     148.807 130.490  94.475  0.00  0.00    +0.000 HD
ENDBRANCH  20  22
ENDBRANCH  14  15
ENDBRANCH   2  13
BRANCH   3  24
ATOM     24  O   UNL     1     143.283 125.420  98.596  0.00  0.00    +0.000 OA
BRANCH  24  25
ATOM     25  C   UNL     1     142.572 124.239  98.703  0.00  0.00    +0.000 C 
ATOM     26  O   UNL     1     142.616 123.505  99.693  0.00  0.00    +0.000 OA
BRANCH  25  27
ATOM     27  C   UNL     1     141.739 123.965  97.403  0.00  0.00    +0.000 C 
ATOM     28  C   UNL     1     141.723 125.263  96.511  0.00  0.00    +0.000 C 
ATOM     29  C   UNL     1     140.247 123.576  97.756  0.00  0.00    +0.000 C 
BRANCH  27  30
ATOM     30  C   UNL     1     142.393 122.832  96.690  0.00  0.00    +0.000 C 
ATOM     31  C   UNL     1     143.054 121.616  95.976  0.00  0.00    +0.000 C 
ENDBRANCH  27  30
ENDBRANCH  25  27
ENDBRANCH  24  25
ENDBRANCH   3  24
TORSDOF 7
ENDMDL
MODEL 6
REMARK VINA RESULT:      -7.0      3.081      4.745
REMARK  Name = Simvastatin.pdbqt.pdb
REMARK  7 active torsions:
REMARK  status: ('A' for Active; 'I' for Inactive)
REMARK    1  A    between atoms: C_2  and  C_13
REMARK    2  A    between atoms: C_3  and  O_24
REMARK    3  A    between atoms: C_14  and  C_15
REMARK    4  A    between atoms: C_20  and  O_22
REMARK    5  A    between atoms: O_24  and  C_25
REMARK    6  A    between atoms: C_25  and  C_27
REMARK    7  A    between atoms: C_27  and  C_30
REMARK                            x       y       z     vdW  Elec       q    Type
REMARK                         _______ _______ _______ _____ _____    ______ ____
ROOT
ATOM      1  C   UNL     1     144.627 127.269 101.310  0.00  0.00    +0.000 A 
ATOM      2  C   UNL     1     145.279 127.759 100.035  0.00  0.00    +0.000 A 
ATOM      3  C   UNL     1     143.357 126.463 101.386  0.00  0.00    +0.000 A 
ATOM      4  C   UNL     1     146.671 128.284 100.072  0.00  0.00    +0.000 A 
ATOM      5  C   UNL     1     145.376 127.556 102.629  0.00  0.00    +0.000 A 
ATOM      6  C   UNL     1     143.060 126.064 102.735  0.00  0.00    +0.000 A 
ATOM      7  C   UNL     1     143.725 126.235 103.990  0.00  0.00    +0.000 A 
ATOM      8  C   UNL     1     144.886 127.017 103.706  0.00  0.00    +0.000 A 
ATOM      9  C   UNL     1     147.192 128.342 101.396  0.00  0.00    +0.000 A 
ATOM     10  C   UNL     1     146.685 128.052 102.444  0.00  0.00    +0.000 A 
ATOM     11  C   UNL     1     147.470 128.777  98.904  0.00  0.00    +0.000 C 
ATOM     12  C   UNL     1     143.801 125.095 104.954  0.00  0.00    +0.000 C 
ENDROOT
BRANCH   2  13
ATOM     13  C   UNL     1     144.483 127.914  98.863  0.00  0.00    +0.000 C 
ATOM     14  C   UNL     1     143.569 128.053  97.639  0.00  0.00    +0.000 C 
BRANCH  14  15
ATOM     15  C   UNL     1     142.675 128.177  96.549  0.00  0.00    +0.000 C 
ATOM     16  O   UNL     1     141.341 128.653  96.823  0.00  0.00    +0.000 OA
ATOM     17  C   UNL     1     140.397 128.747  95.796  0.00  0.00    +0.000 C 
ATOM     18  O   UNL     1     139.251 129.140  95.954  0.00  0.00    +0.000 OA
ATOM     19  C   UNL     1     140.887 128.327  94.507  0.00  0.00    +0.000 C 
ATOM     20  C   UNL     1     142.130 127.832  94.057  0.00  0.00    +0.000 C 
ATOM     21  C   UNL     1     142.951 127.807  95.206  0.00  0.00    +0.000 C 
BRANCH  20  22
ATOM     22  O   UNL     1     142.206 126.893  93.070  0.00  0.00    +0.000 OA
ATOM     23  H   UNL     1     142.934 126.259  93.213  0.00  0.00    +0.000 HD
ENDBRANCH  20  22
ENDBRANCH  14  15
ENDBRANCH   2  13
BRANCH   3  24
ATOM     24  O   UNL     1     143.191 125.521 100.367  0.00  0.00    +0.000 OA
BRANCH  24  25
ATOM     25  C   UNL     1     141.997 125.680  99.688  0.00  0.00    +0.000 C 
ATOM     26  O   UNL     1     141.260 126.658  99.827  0.00  0.00    +0.000 OA
BRANCH  25  27
ATOM     27  C   UNL     1     141.714 124.451  98.755  0.00  0.00    +0.000 C 
ATOM     28  C   UNL     1     141.149 124.961  97.377  0.00  0.00    +0.000 C 
ATOM     29  C   UNL     1     140.653 123.476  99.408  0.00  0.00    +0.000 C 
BRANCH  27  30
ATOM     30  C   UNL     1     143.005 123.729  98.573  0.00  0.00    +0.000 C 
ATOM     31  C   UNL     1     144.355 122.991  98.335  0.00  0.00    +0.000 C 
ENDBRANCH  27  30
ENDBRANCH  25  27
ENDBRANCH  24  25
ENDBRANCH   3  24
TORSDOF 7
ENDMDL
MODEL 7
REMARK VINA RESULT:      -6.8      2.478      6.980
REMARK  Name = Simvastatin.pdbqt.pdb
REMARK  7 active torsions:
REMARK  status: ('A' for Active; 'I' for Inactive)
REMARK    1  A    between atoms: C_2  and  C_13
REMARK    2  A    between atoms: C_3  and  O_24
REMARK    3  A    between atoms: C_14  and  C_15
REMARK    4  A    between atoms: C_20  and  O_22
REMARK    5  A    between atoms: O_24  and  C_25
REMARK    6  A    between atoms: C_25  and  C_27
REMARK    7  A    between atoms: C_27  and  C_30
REMARK                            x       y       z     vdW  Elec       q    Type
REMARK                         _______ _______ _______ _____ _____    ______ ____
ROOT
ATOM      1  C   UNL     1     147.341 126.359  96.798  0.00  0.00    +0.000 A 
ATOM      2  C   UNL     1     146.888 127.558  97.603  0.00  0.00    +0.000 A 
ATOM      3  C   UNL     1     146.943 124.930  97.062  0.00  0.00    +0.000 A 
ATOM      4  C   UNL     1     147.108 128.930  97.073  0.00  0.00    +0.000 A 
ATOM      5  C   UNL     1     148.219 126.644  95.560  0.00  0.00    +0.000 A 
ATOM      6  C   UNL     1     147.456 124.041  96.055  0.00  0.00    +0.000 A 
ATOM      7  C   UNL     1     148.217 124.230  94.858  0.00  0.00    +0.000 A 
ATOM      8  C   UNL     1     148.492 125.630  94.795  0.00  0.00    +0.000 A 
ATOM      9  C   UNL     1     147.841 128.927  95.852  0.00  0.00    +0.000 A 
ATOM     10  C   UNL     1     148.299 128.013  95.224  0.00  0.00    +0.000 A 
ATOM     11  C   UNL     1     146.696 130.215  97.724  0.00  0.00    +0.000 C 
ATOM     12  C   UNL     1     147.856 123.475  93.619  0.00  0.00    +0.000 C 
ENDROOT
BRANCH   2  13
ATOM     13  C   UNL     1     146.456 127.367  98.948  0.00  0.00    +0.000 C 
ATOM     14  C   UNL     1     146.062 127.158 100.416  0.00  0.00    +0.000 C 
BRANCH  14  15
ATOM     15  C   UNL     1     145.758 126.982 101.787  0.00  0.00    +0.000 C 
ATOM     16  O   UNL     1     146.856 126.770 102.698  0.00  0.00    +0.000 OA
ATOM     17  C   UNL     1     146.615 126.537 104.056  0.00  0.00    +0.000 C 
ATOM     18  O   UNL     1     147.493 126.350 104.884  0.00  0.00    +0.000 OA
ATOM     19  C   UNL     1     145.218 126.527 104.412  0.00  0.00    +0.000 C 
ATOM     20  C   UNL     1     144.028 126.701 103.673  0.00  0.00    +0.000 C 
ATOM     21  C   UNL     1     144.453 126.925 102.344  0.00  0.00    +0.000 C 
BRANCH  20  22
ATOM     22  O   UNL     1     142.892 126.012 103.982  0.00  0.00    +0.000 OA
ATOM     23  H   UNL     1     142.082 126.518 103.782  0.00  0.00    +0.000 HD
ENDBRANCH  20  22
ENDBRANCH  14  15
ENDBRANCH   2  13
BRANCH   3  24
ATOM     24  O   UNL     1     145.625 124.752  97.491  0.00  0.00    +0.000 OA
BRANCH  24  25
ATOM     25  C   UNL     1     145.542 123.986  98.639  0.00  0.00    +0.000 C 
ATOM     26  O   UNL     1     146.516 123.452  99.173  0.00  0.00    +0.000 OA
BRANCH  25  27
ATOM     27  C   UNL     1     144.058 123.881  99.137  0.00  0.00    +0.000 C 
ATOM     28  C   UNL     1     144.045 123.646 100.694  0.00  0.00    +0.000 C 
ATOM     29  C   UNL     1     143.309 122.676  98.436  0.00  0.00    +0.000 C 
BRANCH  27  30
ATOM     30  C   UNL     1     143.381 125.160  98.781  0.00  0.00    +0.000 C 
ATOM     31  C   UNL     1     142.660 126.501  98.456  0.00  0.00    +0.000 C 
ENDBRANCH  27  30
ENDBRANCH  25  27
ENDBRANCH  24  25
ENDBRANCH   3  24
TORSDOF 7
ENDMDL
MODEL 8
REMARK VINA RESULT:      -6.6      3.094      6.568
REMARK  Name = Simvastatin.pdbqt.pdb
REMARK  7 active torsions:
REMARK  status: ('A' for Active; 'I' for Inactive)
REMARK    1  A    between atoms: C_2  and  C_13
REMARK    2  A    between atoms: C_3  and  O_24
REMARK    3  A    between atoms: C_14  and  C_15
REMARK    4  A    between atoms: C_20  and  O_22
REMARK    5  A    between atoms: O_24  and  C_25
REMARK    6  A    between atoms: C_25  and  C_27
REMARK    7  A    between atoms: C_27  and  C_30
REMARK                            x       y       z     vdW  Elec       q    Type
REMARK                         _______ _______ _______ _____ _____    ______ ____
ROOT
ATOM      1  C   UNL     1     142.354 126.354  97.461  0.00  0.00    +0.000 A 
ATOM      2  C   UNL     1     143.001 125.204  98.204  0.00  0.00    +0.000 A 
ATOM      3  C   UNL     1     142.581 127.815  97.747  0.00  0.00    +0.000 A 
ATOM      4  C   UNL     1     142.928 123.828  97.644  0.00  0.00    +0.000 A 
ATOM      5  C   UNL     1     141.452 125.987  96.263  0.00  0.00    +0.000 A 
ATOM      6  C   UNL     1     141.904 128.654  96.797  0.00  0.00    +0.000 A 
ATOM      7  C   UNL     1     141.107 128.398  95.636  0.00  0.00    +0.000 A 
ATOM      8  C   UNL     1     141.009 126.976  95.545  0.00  0.00    +0.000 A 
ATOM      9  C   UNL     1     142.132 123.766  96.464  0.00  0.00    +0.000 A 
ATOM     10  C   UNL     1     141.527 124.628  95.889  0.00  0.00    +0.000 A 
ATOM     11  C   UNL     1     143.536 122.591  98.232  0.00  0.00    +0.000 C 
ATOM     12  C   UNL     1     141.299 129.222  94.404  0.00  0.00    +0.000 C 
ENDROOT
BRANCH   2  13
ATOM     13  C   UNL     1     143.479 125.416  99.530  0.00  0.00    +0.000 C 
ATOM     14  C   UNL     1     144.008 125.714 100.938  0.00  0.00    +0.000 C 
BRANCH  14  15
ATOM     15  C   UNL     1     144.486 126.052 102.227  0.00  0.00    +0.000 C 
ATOM     16  O   UNL     1     145.719 126.797 102.314  0.00  0.00    +0.000 OA
ATOM     17  C   UNL     1     146.269 127.113 103.560  0.00  0.00    +0.000 C 
ATOM     18  O   UNL     1     147.307 127.740 103.710  0.00  0.00    +0.000 OA
ATOM     19  C   UNL     1     145.505 126.626 104.681  0.00  0.00    +0.000 C 
ATOM     20  C   UNL     1     144.308 125.886 104.790  0.00  0.00    +0.000 C 
ATOM     21  C   UNL     1     143.896 125.661 103.458  0.00  0.00    +0.000 C 
BRANCH  20  22
ATOM     22  O   UNL     1     144.123 124.975 105.788  0.00  0.00    +0.000 OA
ATOM     23  H   UNL     1     144.403 124.076 105.530  0.00  0.00    +0.000 HD
ENDBRANCH  20  22
ENDBRANCH  14  15
ENDBRANCH   2  13
BRANCH   3  24
ATOM     24  O   UNL     1     143.888 128.151  98.112  0.00  0.00    +0.000 OA
BRANCH  24  25
ATOM     25  C   UNL     1     144.795 127.927  97.092  0.00  0.00    +0.000 C 
ATOM     26  O   UNL     1     144.494 127.944  95.897  0.00  0.00    +0.000 OA
BRANCH  25  27
ATOM     27  C   UNL     1     146.225 127.634  97.668  0.00  0.00    +0.000 C 
ATOM     28  C   UNL     1     146.299 128.132  99.160  0.00  0.00    +0.000 C 
ATOM     29  C   UNL     1     147.338 128.382  96.828  0.00  0.00    +0.000 C 
BRANCH  27  30
ATOM     30  C   UNL     1     146.442 126.163  97.581  0.00  0.00    +0.000 C 
ATOM     31  C   UNL     1     146.681 124.630  97.444  0.00  0.00    +0.000 C 
ENDBRANCH  27  30
ENDBRANCH  25  27
ENDBRANCH  24  25
ENDBRANCH   3  24
TORSDOF 7
ENDMDL
MODEL 9
REMARK VINA RESULT:      -6.6      2.161      7.893
REMARK  Name = Simvastatin.pdbqt.pdb
REMARK  7 active torsions:
REMARK  status: ('A' for Active; 'I' for Inactive)
REMARK    1  A    between atoms: C_2  and  C_13
REMARK    2  A    between atoms: C_3  and  O_24
REMARK    3  A    between atoms: C_14  and  C_15
REMARK    4  A    between atoms: C_20  and  O_22
REMARK    5  A    between atoms: O_24  and  C_25
REMARK    6  A    between atoms: C_25  and  C_27
REMARK    7  A    between atoms: C_27  and  C_30
REMARK                            x       y       z     vdW  Elec       q    Type
REMARK                         _______ _______ _______ _____ _____    ______ ____
ROOT
ATOM      1  C   UNL     1     144.982 124.867  95.770  0.00  0.00    +0.000 A 
ATOM      2  C   UNL     1     143.984 123.824  96.225  0.00  0.00    +0.000 A 
ATOM      3  C   UNL     1     145.529 125.981  96.623  0.00  0.00    +0.000 A 
ATOM      4  C   UNL     1     143.748 122.614  95.392  0.00  0.00    +0.000 A 
ATOM      5  C   UNL     1     145.537 124.720  94.337  0.00  0.00    +0.000 A 
ATOM      6  C   UNL     1     146.536 126.736  95.930  0.00  0.00    +0.000 A 
ATOM      7  C   UNL     1     147.145 126.629  94.639  0.00  0.00    +0.000 A 
ATOM      8  C   UNL     1     146.493 125.533  93.998  0.00  0.00    +0.000 A 
ATOM      9  C   UNL     1     144.468 122.655  94.164  0.00  0.00    +0.000 A 
ATOM     10  C   UNL     1     145.198 123.496  93.719  0.00  0.00    +0.000 A 
ATOM     11  C   UNL     1     142.824 121.478  95.709  0.00  0.00    +0.000 C 
ATOM     12  C   UNL     1     148.620 126.821  94.493  0.00  0.00    +0.000 C 
ENDROOT
BRANCH   2  13
ATOM     13  C   UNL     1     143.129 124.116  97.328  0.00  0.00    +0.000 C 
ATOM     14  C   UNL     1     142.212 124.500  98.496  0.00  0.00    +0.000 C 
BRANCH  14  15
ATOM     15  C   UNL     1     141.353 124.910  99.543  0.00  0.00    +0.000 C 
ATOM     16  O   UNL     1     140.176 124.115  99.799  0.00  0.00    +0.000 OA
ATOM     17  C   UNL     1     139.262 124.499 100.785  0.00  0.00    +0.000 C 
ATOM     18  O   UNL     1     138.246 123.877 101.055  0.00  0.00    +0.000 OA
ATOM     19  C   UNL     1     139.613 125.719 101.468  0.00  0.00    +0.000 C 
ATOM     20  C   UNL     1     140.693 126.620 101.351  0.00  0.00    +0.000 C 
ATOM     21  C   UNL     1     141.506 126.083 100.328  0.00  0.00    +0.000 C 
BRANCH  20  22
ATOM     22  O   UNL     1     140.524 127.960 101.538  0.00  0.00    +0.000 OA
ATOM     23  H   UNL     1     140.508 128.456 100.697  0.00  0.00    +0.000 HD
ENDBRANCH  20  22
ENDBRANCH  14  15
ENDBRANCH   2  13
BRANCH   3  24
ATOM     24  O   UNL     1     145.758 125.645  97.961  0.00  0.00    +0.000 OA
BRANCH  24  25
ATOM     25  C   UNL     1     145.188 126.549  98.838  0.00  0.00    +0.000 C 
ATOM     26  O   UNL     1     144.427 127.453  98.486  0.00  0.00    +0.000 OA
BRANCH  25  27
ATOM     27  C   UNL     1     145.660 126.276 100.309  0.00  0.00    +0.000 C 
ATOM     28  C   UNL     1     145.213 127.473 101.231  0.00  0.00    +0.000 C 
ATOM     29  C   UNL     1     147.234 126.140 100.384  0.00  0.00    +0.000 C 
BRANCH  27  30
ATOM     30  C   UNL     1     145.029 124.998 100.745  0.00  0.00    +0.000 C 
ATOM     31  C   UNL     1     144.347 123.688 101.236  0.00  0.00    +0.000 C 
ENDBRANCH  27  30
ENDBRANCH  25  27
ENDBRANCH  24  25
ENDBRANCH   3  24
TORSDOF 7
ENDMDL
