MODEL 1
REMARK VINA RESULT:      -9.6      0.000      0.000
REMARK  Name = Staurosporine.pdbqt.pdb
REMARK  2 active torsions:
REMARK  status: ('A' for Active; 'I' for Inactive)
REMARK    1  A    between atoms: C_3  and  O_11
REMARK    2  A    between atoms: C_5  and  N_8
REMARK                            x       y       z     vdW  Elec       q    Type
REMARK                         _______ _______ _______ _____ _____    ______ ____
ROOT
ATOM      1  O   UNL     1     141.715 127.275  99.062  0.00  0.00    +0.000 OA
ATOM      2  C   UNL     1     142.381 126.719 100.229  0.00  0.00    +0.000 C 
ATOM      3  C   UNL     1     142.267 125.189 100.375  0.00  0.00    +0.000 C 
ATOM      4  C   UNL     1     142.028 126.614  97.885  0.00  0.00    +0.000 C 
ATOM      5  C   UNL     1     141.994 124.390  99.182  0.00  0.00    +0.000 C 
ATOM      6  C   UNL     1     141.869 125.222  98.054  0.00  0.00    +0.000 C 
ATOM      7  C   UNL     1     141.592 127.351 101.425  0.00  0.00    +0.000 C 
ATOM      8  N   UNL     1     143.787 127.181 100.196  0.00  0.00    +0.000 N 
ATOM      9  C   UNL     1     144.588 127.587  99.158  0.00  0.00    +0.000 A 
ATOM     10  C   UNL     1     144.302 127.549  97.789  0.00  0.00    +0.000 A 
ATOM     11  C   UNL     1     145.885 128.036  99.440  0.00  0.00    +0.000 A 
ATOM     12  N   UNL     1     143.163 127.050  97.235  0.00  0.00    +0.000 N 
ATOM     13  C   UNL     1     145.359 127.927  96.949  0.00  0.00    +0.000 A 
ATOM     14  C   UNL     1     143.538 127.015  95.877  0.00  0.00    +0.000 A 
ATOM     15  C   UNL     1     144.852 127.580  95.678  0.00  0.00    +0.000 A 
ATOM     16  C   UNL     1     142.787 126.545  94.787  0.00  0.00    +0.000 A 
ATOM     17  C   UNL     1     145.356 127.631  94.364  0.00  0.00    +0.000 A 
ATOM     18  C   UNL     1     144.596 127.159  93.295  0.00  0.00    +0.000 A 
ATOM     19  C   UNL     1     143.334 126.624  93.507  0.00  0.00    +0.000 A 
ATOM     20  C   UNL     1     146.661 128.390  97.223  0.00  0.00    +0.000 A 
ATOM     21  C   UNL     1     146.939 128.455  98.617  0.00  0.00    +0.000 A 
ATOM     22  C   UNL     1     147.821 128.785  96.458  0.00  0.00    +0.000 C 
ATOM     23  C   UNL     1     148.347 128.916  98.753  0.00  0.00    +0.000 C 
ATOM     24  N   UNL     1     148.747 129.070  97.472  0.00  0.00    +0.000 N 
ATOM     25  H   UNL     1     149.676 129.385  97.231  0.00  0.00    +0.000 HD
ATOM     26  O   UNL     1     148.056 128.885  95.263  0.00  0.00    +0.000 OA
ATOM     27  C   UNL     1     145.959 127.883 100.834  0.00  0.00    +0.000 A 
ATOM     28  C   UNL     1     144.693 127.350 101.279  0.00  0.00    +0.000 A 
ATOM     29  C   UNL     1     146.967 128.112 101.793  0.00  0.00    +0.000 A 
ATOM     30  C   UNL     1     144.494 127.079 102.644  0.00  0.00    +0.000 A 
ATOM     31  C   UNL     1     145.521 127.325 103.556  0.00  0.00    +0.000 A 
ATOM     32  C   UNL     1     146.739 127.835 103.139  0.00  0.00    +0.000 A 
ENDROOT
BRANCH   5  33
ATOM     33  N   UNL     1     142.069 122.972  99.137  0.00  0.00    +0.000 N 
ATOM     34  C   UNL     1     142.715 122.428  97.963  0.00  0.00    +0.000 C 
ATOM     35  H   UNL     1     141.225 122.485  99.446  0.00  0.00    +0.000 HD
ENDBRANCH   5  33
BRANCH   3  36
ATOM     36  O   UNL     1     142.936 124.638 101.446  0.00  0.00    +0.000 OA
ATOM     37  C   UNL     1     144.045 123.882 101.038  0.00  0.00    +0.000 C 
ENDBRANCH   3  36
TORSDOF 2
ENDMDL
MODEL 2
REMARK VINA RESULT:      -9.3      2.563      5.767
REMARK  Name = Staurosporine.pdbqt.pdb
REMARK  2 active torsions:
REMARK  status: ('A' for Active; 'I' for Inactive)
REMARK    1  A    between atoms: C_3  and  O_11
REMARK    2  A    between atoms: C_5  and  N_8
REMARK                            x       y       z     vdW  Elec       q    Type
REMARK                         _______ _______ _______ _____ _____    ______ ____
ROOT
ATOM      1  O   UNL     1     142.884 123.201  97.650  0.00  0.00    +0.000 OA
ATOM      2  C   UNL     1     143.704 123.795  96.607  0.00  0.00    +0.000 C 
ATOM      3  C   UNL     1     142.922 124.577  95.533  0.00  0.00    +0.000 C 
ATOM      4  C   UNL     1     141.977 124.088  98.207  0.00  0.00    +0.000 C 
ATOM      5  C   UNL     1     141.597 125.093  95.868  0.00  0.00    +0.000 C 
ATOM      6  C   UNL     1     141.258 124.749  97.189  0.00  0.00    +0.000 C 
ATOM      7  C   UNL     1     144.334 122.550  95.896  0.00  0.00    +0.000 C 
ATOM      8  N   UNL     1     144.734 124.624  97.274  0.00  0.00    +0.000 N 
ATOM      9  C   UNL     1     144.756 125.232  98.504  0.00  0.00    +0.000 A 
ATOM     10  C   UNL     1     143.715 125.327  99.432  0.00  0.00    +0.000 A 
ATOM     11  C   UNL     1     145.914 125.915  98.899  0.00  0.00    +0.000 A 
ATOM     12  N   UNL     1     142.451 124.855  99.251  0.00  0.00    +0.000 N 
ATOM     13  C   UNL     1     143.995 126.108 100.563  0.00  0.00    +0.000 A 
ATOM     14  C   UNL     1     141.797 125.461 100.342  0.00  0.00    +0.000 A 
ATOM     15  C   UNL     1     142.724 126.193 101.172  0.00  0.00    +0.000 A 
ATOM     16  C   UNL     1     140.435 125.389 100.679  0.00  0.00    +0.000 A 
ATOM     17  C   UNL     1     142.216 126.840 102.317  0.00  0.00    +0.000 A 
ATOM     18  C   UNL     1     140.862 126.757 102.634  0.00  0.00    +0.000 A 
ATOM     19  C   UNL     1     139.988 126.045 101.826  0.00  0.00    +0.000 A 
ATOM     20  C   UNL     1     145.158 126.789 100.973  0.00  0.00    +0.000 A 
ATOM     21  C   UNL     1     146.225 126.666 100.040  0.00  0.00    +0.000 A 
ATOM     22  C   UNL     1     145.552 127.625 102.084  0.00  0.00    +0.000 C 
ATOM     23  C   UNL     1     147.360 127.461 100.580  0.00  0.00    +0.000 C 
ATOM     24  N   UNL     1     146.868 127.958 101.736  0.00  0.00    +0.000 N 
ATOM     25  H   UNL     1     147.416 128.547 102.346  0.00  0.00    +0.000 HD
ATOM     26  O   UNL     1     144.990 128.007 103.100  0.00  0.00    +0.000 OA
ATOM     27  C   UNL     1     146.750 125.762  97.780  0.00  0.00    +0.000 A 
ATOM     28  C   UNL     1     146.021 124.995  96.798  0.00  0.00    +0.000 A 
ATOM     29  C   UNL     1     148.050 126.204  97.460  0.00  0.00    +0.000 A 
ATOM     30  C   UNL     1     146.619 124.706  95.559  0.00  0.00    +0.000 A 
ATOM     31  C   UNL     1     147.909 125.163  95.289  0.00  0.00    +0.000 A 
ATOM     32  C   UNL     1     148.617 125.900  96.224  0.00  0.00    +0.000 A 
ENDROOT
BRANCH   5  33
ATOM     33  N   UNL     1     140.864 125.998  95.053  0.00  0.00    +0.000 N 
ATOM     34  C   UNL     1     141.177 127.396  95.254  0.00  0.00    +0.000 C 
ATOM     35  H   UNL     1     139.872 125.775  94.945  0.00  0.00    +0.000 HD
ENDBRANCH   5  33
BRANCH   3  36
ATOM     36  O   UNL     1     143.688 125.191  94.565  0.00  0.00    +0.000 OA
ATOM     37  C   UNL     1     143.466 124.639  93.294  0.00  0.00    +0.000 C 
ENDBRANCH   3  36
TORSDOF 2
ENDMDL
MODEL 3
REMARK VINA RESULT:      -9.1      2.994      5.878
REMARK  Name = Staurosporine.pdbqt.pdb
REMARK  2 active torsions:
REMARK  status: ('A' for Active; 'I' for Inactive)
REMARK    1  A    between atoms: C_3  and  O_11
REMARK    2  A    between atoms: C_5  and  N_8
REMARK                            x       y       z     vdW  Elec       q    Type
REMARK                         _______ _______ _______ _____ _____    ______ ____
ROOT
ATOM      1  O   UNL     1     146.199 125.641 100.003  0.00  0.00    +0.000 OA
ATOM      2  C   UNL     1     144.870 126.173 100.255  0.00  0.00    +0.000 C 
ATOM      3  C   UNL     1     144.678 127.653  99.868  0.00  0.00    +0.000 C 
ATOM      4  C   UNL     1     146.665 125.912  98.727  0.00  0.00    +0.000 C 
ATOM      5  C   UNL     1     145.574 128.238  98.873  0.00  0.00    +0.000 C 
ATOM      6  C   UNL     1     146.508 127.283  98.433  0.00  0.00    +0.000 C 
ATOM      7  C   UNL     1     144.740 126.089 101.813  0.00  0.00    +0.000 C 
ATOM      8  N   UNL     1     143.902 125.281  99.576  0.00  0.00    +0.000 N 
ATOM      9  C   UNL     1     144.040 124.436  98.504  0.00  0.00    +0.000 A 
ATOM     10  C   UNL     1     145.151 124.287  97.667  0.00  0.00    +0.000 A 
ATOM     11  C   UNL     1     142.944 123.655  98.113  0.00  0.00    +0.000 A 
ATOM     12  N   UNL     1     146.303 125.007  97.750  0.00  0.00    +0.000 N 
ATOM     13  C   UNL     1     144.965 123.423  96.578  0.00  0.00    +0.000 A 
ATOM     14  C   UNL     1     146.917 124.643  96.535  0.00  0.00    +0.000 A 
ATOM     15  C   UNL     1     146.140 123.653  95.829  0.00  0.00    +0.000 A 
ATOM     16  C   UNL     1     148.138 125.101  96.015  0.00  0.00    +0.000 A 
ATOM     17  C   UNL     1     146.638 123.176  94.600  0.00  0.00    +0.000 A 
ATOM     18  C   UNL     1     147.852 123.643  94.100  0.00  0.00    +0.000 A 
ATOM     19  C   UNL     1     148.586 124.592  94.797  0.00  0.00    +0.000 A 
ATOM     20  C   UNL     1     143.872 122.627  96.183  0.00  0.00    +0.000 A 
ATOM     21  C   UNL     1     142.754 122.758  97.053  0.00  0.00    +0.000 A 
ATOM     22  C   UNL     1     143.563 121.729  95.094  0.00  0.00    +0.000 C 
ATOM     23  C   UNL     1     141.674 121.901  96.495  0.00  0.00    +0.000 C 
ATOM     24  N   UNL     1     142.241 121.369  95.390  0.00  0.00    +0.000 N 
ATOM     25  H   UNL     1     141.747 120.727  94.786  0.00  0.00    +0.000 HD
ATOM     26  O   UNL     1     144.189 121.319  94.128  0.00  0.00    +0.000 OA
ATOM     27  C   UNL     1     141.952 124.054  99.023  0.00  0.00    +0.000 A 
ATOM     28  C   UNL     1     142.535 125.049  99.891  0.00  0.00    +0.000 A 
ATOM     29  C   UNL     1     140.597 123.708  99.210  0.00  0.00    +0.000 A 
ATOM     30  C   UNL     1     141.750 125.640 100.896  0.00  0.00    +0.000 A 
ATOM     31  C   UNL     1     140.415 125.262 101.044  0.00  0.00    +0.000 A 
ATOM     32  C   UNL     1     139.845 124.310 100.216  0.00  0.00    +0.000 A 
ENDROOT
BRANCH   5  33
ATOM     33  N   UNL     1     145.380 129.515  98.279  0.00  0.00    +0.000 N 
ATOM     34  C   UNL     1     146.559 130.095  97.674  0.00  0.00    +0.000 C 
ATOM     35  H   UNL     1     144.795 130.157  98.818  0.00  0.00    +0.000 HD
ENDBRANCH   5  33
BRANCH   3  36
ATOM     36  O   UNL     1     143.409 128.160 100.051  0.00  0.00    +0.000 OA
ATOM     37  C   UNL     1     142.781 128.449  98.830  0.00  0.00    +0.000 C 
ENDBRANCH   3  36
TORSDOF 2
ENDMDL
MODEL 4
REMARK VINA RESULT:      -9.0      2.177      5.760
REMARK  Name = Staurosporine.pdbqt.pdb
REMARK  2 active torsions:
REMARK  status: ('A' for Active; 'I' for Inactive)
REMARK    1  A    between atoms: C_3  and  O_11
REMARK    2  A    between atoms: C_5  and  N_8
REMARK                            x       y       z     vdW  Elec       q    Type
REMARK                         _______ _______ _______ _____ _____    ______ ____
ROOT
ATOM      1  O   UNL     1     144.384 123.746  97.197  0.00  0.00    +0.000 OA
ATOM      2  C   UNL     1     145.188 124.893  96.810  0.00  0.00    +0.000 C 
ATOM      3  C   UNL     1     144.679 125.655  95.570  0.00  0.00    +0.000 C 
ATOM      4  C   UNL     1     143.030 124.027  97.277  0.00  0.00    +0.000 C 
ATOM      5  C   UNL     1     143.269 125.535  95.205  0.00  0.00    +0.000 C 
ATOM      6  C   UNL     1     142.601 124.685  96.106  0.00  0.00    +0.000 C 
ATOM      7  C   UNL     1     146.562 124.251  96.418  0.00  0.00    +0.000 C 
ATOM      8  N   UNL     1     145.312 125.767  97.999  0.00  0.00    +0.000 N 
ATOM      9  C   UNL     1     144.518 125.911  99.109  0.00  0.00    +0.000 A 
ATOM     10  C   UNL     1     143.271 125.328  99.352  0.00  0.00    +0.000 A 
ATOM     11  C   UNL     1     144.926 126.789 100.122  0.00  0.00    +0.000 A 
ATOM     12  N   UNL     1     142.591 124.528  98.485  0.00  0.00    +0.000 N 
ATOM     13  C   UNL     1     142.638 125.746 100.532  0.00  0.00    +0.000 A 
ATOM     14  C   UNL     1     141.334 124.477  99.121  0.00  0.00    +0.000 A 
ATOM     15  C   UNL     1     141.354 125.176 100.384  0.00  0.00    +0.000 A 
ATOM     16  C   UNL     1     140.170 123.827  98.679  0.00  0.00    +0.000 A 
ATOM     17  C   UNL     1     140.169 125.196 101.146  0.00  0.00    +0.000 A 
ATOM     18  C   UNL     1     139.024 124.545 100.690  0.00  0.00    +0.000 A 
ATOM     19  C   UNL     1     139.027 123.875  99.476  0.00  0.00    +0.000 A 
ATOM     20  C   UNL     1     143.043 126.619 101.560  0.00  0.00    +0.000 A 
ATOM     21  C   UNL     1     144.326 127.188 101.324  0.00  0.00    +0.000 A 
ATOM     22  C   UNL     1     142.481 127.131 102.789  0.00  0.00    +0.000 C 
ATOM     23  C   UNL     1     144.601 128.110 102.459  0.00  0.00    +0.000 C 
ATOM     24  N   UNL     1     143.493 127.999 103.224  0.00  0.00    +0.000 N 
ATOM     25  H   UNL     1     143.380 128.511 104.087  0.00  0.00    +0.000 HD
ATOM     26  O   UNL     1     141.433 126.941 103.388  0.00  0.00    +0.000 OA
ATOM     27  C   UNL     1     146.123 127.310  99.604  0.00  0.00    +0.000 A 
ATOM     28  C   UNL     1     146.338 126.699  98.314  0.00  0.00    +0.000 A 
ATOM     29  C   UNL     1     147.059 128.259 100.065  0.00  0.00    +0.000 A 
ATOM     30  C   UNL     1     147.467 127.057  97.556  0.00  0.00    +0.000 A 
ATOM     31  C   UNL     1     148.367 127.999  98.055  0.00  0.00    +0.000 A 
ATOM     32  C   UNL     1     148.169 128.591  99.291  0.00  0.00    +0.000 A 
ENDROOT
BRANCH   5  33
ATOM     33  N   UNL     1     142.629 126.337  94.221  0.00  0.00    +0.000 N 
ATOM     34  C   UNL     1     141.465 127.061  94.683  0.00  0.00    +0.000 C 
ATOM     35  H   UNL     1     142.546 125.904  93.299  0.00  0.00    +0.000 HD
ENDBRANCH   5  33
BRANCH   3  36
ATOM     36  O   UNL     1     145.399 126.777  95.219  0.00  0.00    +0.000 OA
ATOM     37  C   UNL     1     146.016 126.632  93.968  0.00  0.00    +0.000 C 
ENDBRANCH   3  36
TORSDOF 2
ENDMDL
MODEL 5
REMARK VINA RESULT:      -8.6      3.298      6.119
REMARK  Name = Staurosporine.pdbqt.pdb
REMARK  2 active torsions:
REMARK  status: ('A' for Active; 'I' for Inactive)
REMARK    1  A    between atoms: C_3  and  O_11
REMARK    2  A    between atoms: C_5  and  N_8
REMARK                            x       y       z     vdW  Elec       q    Type
REMARK                         _______ _______ _______ _____ _____    ______ ____
ROOT
ATOM      1  O   UNL     1     146.738 126.441  98.171  0.00  0.00    +0.000 OA
ATOM      2  C   UNL     1     145.466 125.766  97.969  0.00  0.00    +0.000 C 
ATOM      3  C   UNL     1     144.235 126.693  97.946  0.00  0.00    +0.000 C 
ATOM      4  C   UNL     1     146.920 127.529  97.333  0.00  0.00    +0.000 C 
ATOM      5  C   UNL     1     144.427 128.103  97.616  0.00  0.00    +0.000 C 
ATOM      6  C   UNL     1     145.787 128.370  97.376  0.00  0.00    +0.000 C 
ATOM      7  C   UNL     1     145.334 124.865  99.243  0.00  0.00    +0.000 C 
ATOM      8  N   UNL     1     145.588 124.955  96.736  0.00  0.00    +0.000 N 
ATOM      9  C   UNL     1     146.405 125.082  95.641  0.00  0.00    +0.000 A 
ATOM     10  C   UNL     1     147.287 126.127  95.345  0.00  0.00    +0.000 A 
ATOM     11  C   UNL     1     146.339 124.111  94.632  0.00  0.00    +0.000 A 
ATOM     12  N   UNL     1     147.458 127.251  96.094  0.00  0.00    +0.000 N 
ATOM     13  C   UNL     1     147.913 126.041  94.093  0.00  0.00    +0.000 A 
ATOM     14  C   UNL     1     148.217 128.034  95.203  0.00  0.00    +0.000 A 
ATOM     15  C   UNL     1     148.538 127.304  94.000  0.00  0.00    +0.000 A 
ATOM     16  C   UNL     1     148.678 129.348  95.389  0.00  0.00    +0.000 A 
ATOM     17  C   UNL     1     149.312 127.955  93.019  0.00  0.00    +0.000 A 
ATOM     18  C   UNL     1     149.759 129.259  93.221  0.00  0.00    +0.000 A 
ATOM     19  C   UNL     1     149.445 129.942  94.387  0.00  0.00    +0.000 A 
ATOM     20  C   UNL     1     147.861 125.065  93.078  0.00  0.00    +0.000 A 
ATOM     21  C   UNL     1     146.986 123.989  93.395  0.00  0.00    +0.000 A 
ATOM     22  C   UNL     1     148.435 124.880  91.765  0.00  0.00    +0.000 C 
ATOM     23  C   UNL     1     147.001 123.067  92.228  0.00  0.00    +0.000 C 
ATOM     24  N   UNL     1     147.851 123.669  91.368  0.00  0.00    +0.000 N 
ATOM     25  H   UNL     1     148.076 123.274  90.467  0.00  0.00    +0.000 HD
ATOM     26  O   UNL     1     149.219 125.523  91.083  0.00  0.00    +0.000 OA
ATOM     27  C   UNL     1     145.335 123.252  95.108  0.00  0.00    +0.000 A 
ATOM     28  C   UNL     1     144.876 123.780  96.370  0.00  0.00    +0.000 A 
ATOM     29  C   UNL     1     144.728 122.082  94.607  0.00  0.00    +0.000 A 
ATOM     30  C   UNL     1     143.849 123.120  97.067  0.00  0.00    +0.000 A 
ATOM     31  C   UNL     1     143.281 121.964  96.532  0.00  0.00    +0.000 A 
ATOM     32  C   UNL     1     143.713 121.450  95.321  0.00  0.00    +0.000 A 
ENDROOT
BRANCH   5  33
ATOM     33  N   UNL     1     143.366 129.013  97.358  0.00  0.00    +0.000 N 
ATOM     34  C   UNL     1     142.943 129.802  98.495  0.00  0.00    +0.000 C 
ATOM     35  H   UNL     1     142.616 128.646  96.768  0.00  0.00    +0.000 HD
ENDBRANCH   5  33
BRANCH   3  36
ATOM     36  O   UNL     1     143.026 126.076  97.703  0.00  0.00    +0.000 OA
ATOM     37  C   UNL     1     142.188 126.109  98.827  0.00  0.00    +0.000 C 
ENDBRANCH   3  36
TORSDOF 2
ENDMDL
MODEL 6
REMARK VINA RESULT:      -8.6      2.924      4.682
REMARK  Name = Staurosporine.pdbqt.pdb
REMARK  2 active torsions:
REMARK  status: ('A' for Active; 'I' for Inactive)
REMARK    1  A    between atoms: C_3  and  O_11
REMARK    2  A    between atoms: C_5  and  N_8
REMARK                            x       y       z     vdW  Elec       q    Type
REMARK                         _______ _______ _______ _____ _____    ______ ____
ROOT
ATOM      1  O   UNL     1     141.781 124.407 100.382  0.00  0.00    +0.000 OA
ATOM      2  C   UNL     1     142.241 125.701 100.861  0.00  0.00    +0.000 C 
ATOM      3  C   UNL     1     143.658 125.703 101.468  0.00  0.00    +0.000 C 
ATOM      4  C   UNL     1     142.699 123.766  99.567  0.00  0.00    +0.000 C 
ATOM      5  C   UNL     1     144.586 124.642 101.083  0.00  0.00    +0.000 C 
ATOM      6  C   UNL     1     143.970 123.756 100.181  0.00  0.00    +0.000 C 
ATOM      7  C   UNL     1     141.246 126.025 102.026  0.00  0.00    +0.000 C 
ATOM      8  N   UNL     1     142.104 126.659  99.740  0.00  0.00    +0.000 N 
ATOM      9  C   UNL     1     142.077 126.473  98.381  0.00  0.00    +0.000 A 
ATOM     10  C   UNL     1     142.305 125.288  97.674  0.00  0.00    +0.000 A 
ATOM     11  C   UNL     1     141.870 127.582  97.550  0.00  0.00    +0.000 A 
ATOM     12  N   UNL     1     142.643 124.091  98.228  0.00  0.00    +0.000 N 
ATOM     13  C   UNL     1     142.322 125.422  96.278  0.00  0.00    +0.000 A 
ATOM     14  C   UNL     1     143.007 123.372  97.071  0.00  0.00    +0.000 A 
ATOM     15  C   UNL     1     142.782 124.148  95.875  0.00  0.00    +0.000 A 
ATOM     16  C   UNL     1     143.499 122.059  96.992  0.00  0.00    +0.000 A 
ATOM     17  C   UNL     1     143.084 123.552  94.635  0.00  0.00    +0.000 A 
ATOM     18  C   UNL     1     143.572 122.248  94.577  0.00  0.00    +0.000 A 
ATOM     19  C   UNL     1     143.777 121.517  95.738  0.00  0.00    +0.000 A 
ATOM     20  C   UNL     1     142.105 126.529  95.434  0.00  0.00    +0.000 A 
ATOM     21  C   UNL     1     141.845 127.726  96.157  0.00  0.00    +0.000 A 
ATOM     22  C   UNL     1     142.116 126.788  94.013  0.00  0.00    +0.000 C 
ATOM     23  C   UNL     1     141.679 128.807  95.148  0.00  0.00    +0.000 C 
ATOM     24  N   UNL     1     141.852 128.164  93.973  0.00  0.00    +0.000 N 
ATOM     25  H   UNL     1     141.793 128.640  93.084  0.00  0.00    +0.000 HD
ATOM     26  O   UNL     1     142.291 126.091  93.024  0.00  0.00    +0.000 OA
ATOM     27  C   UNL     1     141.775 128.635  98.474  0.00  0.00    +0.000 A 
ATOM     28  C   UNL     1     141.935 128.070  99.793  0.00  0.00    +0.000 A 
ATOM     29  C   UNL     1     141.594 130.029  98.357  0.00  0.00    +0.000 A 
ATOM     30  C   UNL     1     141.901 128.911 100.919  0.00  0.00    +0.000 A 
ATOM     31  C   UNL     1     141.716 130.284 100.752  0.00  0.00    +0.000 A 
ATOM     32  C   UNL     1     141.563 130.837  99.491  0.00  0.00    +0.000 A 
ENDROOT
BRANCH   5  33
ATOM     33  N   UNL     1     145.971 124.640 101.401  0.00  0.00    +0.000 N 
ATOM     34  C   UNL     1     146.816 125.351 100.467  0.00  0.00    +0.000 C 
ATOM     35  H   UNL     1     146.335 123.747 101.739  0.00  0.00    +0.000 HD
ENDBRANCH   5  33
BRANCH   3  36
ATOM     36  O   UNL     1     144.131 126.931 101.878  0.00  0.00    +0.000 OA
ATOM     37  C   UNL     1     144.313 126.983 103.268  0.00  0.00    +0.000 C 
ENDBRANCH   3  36
TORSDOF 2
ENDMDL
MODEL 7
REMARK VINA RESULT:      -8.5      2.226      5.565
REMARK  Name = Staurosporine.pdbqt.pdb
REMARK  2 active torsions:
REMARK  status: ('A' for Active; 'I' for Inactive)
REMARK    1  A    between atoms: C_3  and  O_11
REMARK    2  A    between atoms: C_5  and  N_8
REMARK                            x       y       z     vdW  Elec       q    Type
REMARK                         _______ _______ _______ _____ _____    ______ ____
ROOT
ATOM      1  O   UNL     1     143.369 127.606  95.064  0.00  0.00    +0.000 OA
ATOM      2  C   UNL     1     142.793 126.287  95.268  0.00  0.00    +0.000 C 
ATOM      3  C   UNL     1     143.479 125.150  94.485  0.00  0.00    +0.000 C 
ATOM      4  C   UNL     1     144.747 127.631  95.207  0.00  0.00    +0.000 C 
ATOM      5  C   UNL     1     144.861 125.335  94.048  0.00  0.00    +0.000 C 
ATOM      6  C   UNL     1     145.333 126.601  94.441  0.00  0.00    +0.000 C 
ATOM      7  C   UNL     1     141.347 126.434  94.685  0.00  0.00    +0.000 C 
ATOM      8  N   UNL     1     142.772 126.036  96.727  0.00  0.00    +0.000 N 
ATOM      9  C   UNL     1     143.530 126.548  97.750  0.00  0.00    +0.000 A 
ATOM     10  C   UNL     1     144.647 127.385  97.653  0.00  0.00    +0.000 A 
ATOM     11  C   UNL     1     143.238 126.165  99.066  0.00  0.00    +0.000 A 
ATOM     12  N   UNL     1     145.215 127.812  96.492  0.00  0.00    +0.000 N 
ATOM     13  C   UNL     1     145.292 127.660  98.868  0.00  0.00    +0.000 A 
ATOM     14  C   UNL     1     146.415 128.361  96.985  0.00  0.00    +0.000 A 
ATOM     15  C   UNL     1     146.463 128.315  98.427  0.00  0.00    +0.000 A 
ATOM     16  C   UNL     1     147.466 128.934  96.251  0.00  0.00    +0.000 A 
ATOM     17  C   UNL     1     147.600 128.847  99.067  0.00  0.00    +0.000 A 
ATOM     18  C   UNL     1     148.633 129.410  98.321  0.00  0.00    +0.000 A 
ATOM     19  C   UNL     1     148.566 129.450  96.936  0.00  0.00    +0.000 A 
ATOM     20  C   UNL     1     145.000 127.288 100.195  0.00  0.00    +0.000 A 
ATOM     21  C   UNL     1     143.847 126.462 100.293  0.00  0.00    +0.000 A 
ATOM     22  C   UNL     1     145.589 127.491 101.499  0.00  0.00    +0.000 C 
ATOM     23  C   UNL     1     143.687 126.118 101.731  0.00  0.00    +0.000 C 
ATOM     24  N   UNL     1     144.725 126.752 102.319  0.00  0.00    +0.000 N 
ATOM     25  H   UNL     1     144.888 126.711 103.314  0.00  0.00    +0.000 HD
ATOM     26  O   UNL     1     146.562 128.110 101.904  0.00  0.00    +0.000 OA
ATOM     27  C   UNL     1     142.173 125.267  98.887  0.00  0.00    +0.000 A 
ATOM     28  C   UNL     1     141.910 125.184  97.471  0.00  0.00    +0.000 A 
ATOM     29  C   UNL     1     141.396 124.481  99.764  0.00  0.00    +0.000 A 
ATOM     30  C   UNL     1     140.894 124.333  97.002  0.00  0.00    +0.000 A 
ATOM     31  C   UNL     1     140.150 123.577  97.908  0.00  0.00    +0.000 A 
ATOM     32  C   UNL     1     140.394 123.649  99.269  0.00  0.00    +0.000 A 
ENDROOT
BRANCH   5  33
ATOM     33  N   UNL     1     145.672 124.301  93.507  0.00  0.00    +0.000 N 
ATOM     34  C   UNL     1     146.563 124.713  92.444  0.00  0.00    +0.000 C 
ATOM     35  H   UNL     1     145.195 123.408  93.366  0.00  0.00    +0.000 HD
ENDBRANCH   5  33
BRANCH   3  36
ATOM     36  O   UNL     1     142.980 123.884  94.707  0.00  0.00    +0.000 OA
ATOM     37  C   UNL     1     143.897 123.073  95.391  0.00  0.00    +0.000 C 
ENDBRANCH   3  36
TORSDOF 2
ENDMDL
MODEL 8
REMARK VINA RESULT:      -8.4      2.857      6.404
REMARK  Name = Staurosporine.pdbqt.pdb
REMARK  2 active torsions:
REMARK  status: ('A' for Active; 'I' for Inactive)
REMARK    1  A    between atoms: C_3  and  O_11
REMARK    2  A    between atoms: C_5  and  N_8
REMARK                            x       y       z     vdW  Elec       q    Type
REMARK                         _______ _______ _______ _____ _____    ______ ____
ROOT
ATOM      1  O   UNL     1     147.736 123.877  95.549  0.00  0.00    +0.000 OA
ATOM      2  C   UNL     1     147.924 125.307  95.735  0.00  0.00    +0.000 C 
ATOM      3  C   UNL     1     147.639 126.168  94.487  0.00  0.00    +0.000 C 
ATOM      4  C   UNL     1     146.525 123.556  94.958  0.00  0.00    +0.000 C 
ATOM      5  C   UNL     1     146.766 125.627  93.449  0.00  0.00    +0.000 C 
ATOM      6  C   UNL     1     146.327 124.337  93.800  0.00  0.00    +0.000 C 
ATOM      7  C   UNL     1     149.456 125.431  96.033  0.00  0.00    +0.000 C 
ATOM      8  N   UNL     1     147.105 125.712  96.900  0.00  0.00    +0.000 N 
ATOM      9  C   UNL     1     145.985 125.154  97.463  0.00  0.00    +0.000 A 
ATOM     10  C   UNL     1     145.228 124.080  96.983  0.00  0.00    +0.000 A 
ATOM     11  C   UNL     1     145.450 125.733  98.621  0.00  0.00    +0.000 A 
ATOM     12  N   UNL     1     145.456 123.412  95.818  0.00  0.00    +0.000 N 
ATOM     13  C   UNL     1     144.064 123.798  97.712  0.00  0.00    +0.000 A 
ATOM     14  C   UNL     1     144.268 122.661  95.721  0.00  0.00    +0.000 A 
ATOM     15  C   UNL     1     143.429 122.850  96.880  0.00  0.00    +0.000 A 
ATOM     16  C   UNL     1     143.882 121.789  94.691  0.00  0.00    +0.000 A 
ATOM     17  C   UNL     1     142.210 122.146  96.934  0.00  0.00    +0.000 A 
ATOM     18  C   UNL     1     141.843 121.286  95.901  0.00  0.00    +0.000 A 
ATOM     19  C   UNL     1     142.667 121.114  94.798  0.00  0.00    +0.000 A 
ATOM     20  C   UNL     1     143.525 124.367  98.883  0.00  0.00    +0.000 A 
ATOM     21  C   UNL     1     144.312 125.440  99.385  0.00  0.00    +0.000 A 
ATOM     22  C   UNL     1     142.348 124.177  99.700  0.00  0.00    +0.000 C 
ATOM     23  C   UNL     1     143.607 125.964 100.585  0.00  0.00    +0.000 C 
ATOM     24  N   UNL     1     142.511 125.177 100.669  0.00  0.00    +0.000 N 
ATOM     25  H   UNL     1     141.824 125.287 101.400  0.00  0.00    +0.000 HD
ATOM     26  O   UNL     1     141.405 123.401  99.663  0.00  0.00    +0.000 OA
ATOM     27  C   UNL     1     146.308 126.825  98.834  0.00  0.00    +0.000 A 
ATOM     28  C   UNL     1     147.293 126.813  97.780  0.00  0.00    +0.000 A 
ATOM     29  C   UNL     1     146.361 127.856  99.794  0.00  0.00    +0.000 A 
ATOM     30  C   UNL     1     148.277 127.817  97.737  0.00  0.00    +0.000 A 
ATOM     31  C   UNL     1     148.291 128.815  98.711  0.00  0.00    +0.000 A 
ATOM     32  C   UNL     1     147.349 128.836  99.726  0.00  0.00    +0.000 A 
ENDROOT
BRANCH   5  33
ATOM     33  N   UNL     1     146.258 126.385  92.359  0.00  0.00    +0.000 N 
ATOM     34  C   UNL     1     147.046 126.321  91.147  0.00  0.00    +0.000 C 
ATOM     35  H   UNL     1     145.899 127.310  92.606  0.00  0.00    +0.000 HD
ENDBRANCH   5  33
BRANCH   3  36
ATOM     36  O   UNL     1     147.761 127.530  94.660  0.00  0.00    +0.000 OA
ATOM     37  C   UNL     1     148.868 128.047  93.970  0.00  0.00    +0.000 C 
ENDBRANCH   3  36
TORSDOF 2
ENDMDL
MODEL 9
REMARK VINA RESULT:      -8.4      2.906      6.014
REMARK  Name = Staurosporine.pdbqt.pdb
REMARK  2 active torsions:
REMARK  status: ('A' for Active; 'I' for Inactive)
REMARK    1  A    between atoms: C_3  and  O_11
REMARK    2  A    between atoms: C_5  and  N_8
REMARK                            x       y       z     vdW  Elec       q    Type
REMARK                         _______ _______ _______ _____ _____    ______ ____
ROOT
ATOM      1  O   UNL     1     146.099 125.979  95.663  0.00  0.00    +0.000 OA
ATOM      2  C   UNL     1     146.005 126.819  96.846  0.00  0.00    +0.000 C 
ATOM      3  C   UNL     1     147.050 127.949  96.926  0.00  0.00    +0.000 C 
ATOM      4  C   UNL     1     146.178 126.701  94.483  0.00  0.00    +0.000 C 
ATOM      5  C   UNL     1     147.671 128.416  95.689  0.00  0.00    +0.000 C 
ATOM      6  C   UNL     1     147.174 127.694  94.588  0.00  0.00    +0.000 C 
ATOM      7  C   UNL     1     146.318 125.825  98.015  0.00  0.00    +0.000 C 
ATOM      8  N   UNL     1     144.615 127.326  96.917  0.00  0.00    +0.000 N 
ATOM      9  C   UNL     1     143.663 127.511  95.946  0.00  0.00    +0.000 A 
ATOM     10  C   UNL     1     143.812 127.374  94.562  0.00  0.00    +0.000 A 
ATOM     11  C   UNL     1     142.390 127.959  96.324  0.00  0.00    +0.000 A 
ATOM     12  N   UNL     1     144.973 127.066  93.920  0.00  0.00    +0.000 N 
ATOM     13  C   UNL     1     142.690 127.738  93.803  0.00  0.00    +0.000 A 
ATOM     14  C   UNL     1     144.603 127.336  92.587  0.00  0.00    +0.000 A 
ATOM     15  C   UNL     1     143.211 127.706  92.491  0.00  0.00    +0.000 A 
ATOM     16  C   UNL     1     145.403 127.248  91.436  0.00  0.00    +0.000 A 
ATOM     17  C   UNL     1     142.690 127.989  91.213  0.00  0.00    +0.000 A 
ATOM     18  C   UNL     1     143.500 127.897  90.083  0.00  0.00    +0.000 A 
ATOM     19  C   UNL     1     144.834 127.534  90.196  0.00  0.00    +0.000 A 
ATOM     20  C   UNL     1     141.404 128.178  94.174  0.00  0.00    +0.000 A 
ATOM     21  C   UNL     1     141.247 128.288  95.584  0.00  0.00    +0.000 A 
ATOM     22  C   UNL     1     140.197 128.592  93.497  0.00  0.00    +0.000 C 
ATOM     23  C   UNL     1     139.870 128.797  95.823  0.00  0.00    +0.000 C 
ATOM     24  N   UNL     1     139.369 128.933  94.575  0.00  0.00    +0.000 N 
ATOM     25  H   UNL     1     138.430 129.263  94.404  0.00  0.00    +0.000 HD
ATOM     26  O   UNL     1     139.866 128.668  92.323  0.00  0.00    +0.000 OA
ATOM     27  C   UNL     1     142.527 128.114  97.713  0.00  0.00    +0.000 A 
ATOM     28  C   UNL     1     143.879 127.746  98.059  0.00  0.00    +0.000 A 
ATOM     29  C   UNL     1     141.665 128.551  98.740  0.00  0.00    +0.000 A 
ATOM     30  C   UNL     1     144.301 127.826  99.397  0.00  0.00    +0.000 A 
ATOM     31  C   UNL     1     143.410 128.262 100.379  0.00  0.00    +0.000 A 
ATOM     32  C   UNL     1     142.111 128.618 100.058  0.00  0.00    +0.000 A 
ENDROOT
BRANCH   5  33
ATOM     33  N   UNL     1     148.485 129.578  95.594  0.00  0.00    +0.000 N 
ATOM     34  C   UNL     1     149.298 129.662  94.401  0.00  0.00    +0.000 C 
ATOM     35  H   UNL     1     148.943 129.855  96.465  0.00  0.00    +0.000 HD
ENDBRANCH   5  33
BRANCH   3  36
ATOM     36  O   UNL     1     146.942 128.788  98.014  0.00  0.00    +0.000 OA
ATOM     37  C   UNL     1     148.045 128.673  98.873  0.00  0.00    +0.000 C 
ENDBRANCH   3  36
TORSDOF 2
ENDMDL
