MODEL 1
REMARK VINA RESULT:      -7.6      0.000      0.000
REMARK  Name = Testosterone.pdbqt.pdb
REMARK  1 active torsions:
REMARK  status: ('A' for Active; 'I' for Inactive)
REMARK    1  A    between atoms: C_9  and  O_21
REMARK                            x       y       z     vdW  Elec       q    Type
REMARK                         _______ _______ _______ _____ _____    ______ ____
ROOT
ATOM      1  O   UNL     1     142.758 124.010  94.620  0.00  0.00    +0.000 OA
ATOM      2  C   UNL     1     144.820 125.242 101.889  0.00  0.00    +0.000 C 
ATOM      3  C   UNL     1     144.144 126.390 102.780  0.00  0.00    +0.000 C 
ATOM      4  C   UNL     1     144.095 124.603 100.772  0.00  0.00    +0.000 C 
ATOM      5  C   UNL     1     142.833 125.111 100.130  0.00  0.00    +0.000 C 
ATOM      6  C   UNL     1     142.065 124.355  99.024  0.00  0.00    +0.000 C 
ATOM      7  C   UNL     1     143.029 126.907 101.985  0.00  0.00    +0.000 C 
ATOM      8  C   UNL     1     142.387 126.307 100.758  0.00  0.00    +0.000 C 
ATOM      9  C   UNL     1     145.275 127.432 102.952  0.00  0.00    +0.000 C 
ATOM     10  C   UNL     1     146.195 125.612 101.721  0.00  0.00    +0.000 C 
ATOM     11  C   UNL     1     144.640 123.490 100.091  0.00  0.00    +0.000 C 
ATOM     12  C   UNL     1     146.462 126.970 102.319  0.00  0.00    +0.000 C 
ATOM     13  C   UNL     1     142.947 123.222  98.200  0.00  0.00    +0.000 C 
ATOM     14  C   UNL     1     144.126 122.801  98.864  0.00  0.00    +0.000 C 
ATOM     15  C   UNL     1     143.710 125.818 104.153  0.00  0.00    +0.000 C 
ATOM     16  C   UNL     1     141.648 125.304  97.938  0.00  0.00    +0.000 C 
ATOM     17  C   UNL     1     140.845 123.619  99.642  0.00  0.00    +0.000 C 
ATOM     18  C   UNL     1     141.811 125.276  96.401  0.00  0.00    +0.000 C 
ATOM     19  C   UNL     1     142.975 123.303  96.886  0.00  0.00    +0.000 C 
ATOM     20  C   UNL     1     142.529 124.168  95.804  0.00  0.00    +0.000 C 
ENDROOT
BRANCH   9  21
ATOM     21  O   UNL     1     145.352 128.261 104.056  0.00  0.00    +0.000 OA
ATOM     22  H   UNL     1     146.062 127.978 104.664  0.00  0.00    +0.000 HD
ENDBRANCH   9  21
TORSDOF 1
ENDMDL
MODEL 2
REMARK VINA RESULT:      -7.3      3.457      4.397
REMARK  Name = Testosterone.pdbqt.pdb
REMARK  1 active torsions:
REMARK  status: ('A' for Active; 'I' for Inactive)
REMARK    1  A    between atoms: C_9  and  O_21
REMARK                            x       y       z     vdW  Elec       q    Type
REMARK                         _______ _______ _______ _____ _____    ______ ____
ROOT
ATOM      1  O   UNL     1     139.449 123.817  99.522  0.00  0.00    +0.000 OA
ATOM      2  C   UNL     1     146.384 126.645  97.931  0.00  0.00    +0.000 C 
ATOM      3  C   UNL     1     146.971 127.929  98.689  0.00  0.00    +0.000 C 
ATOM      4  C   UNL     1     145.393 125.756  98.571  0.00  0.00    +0.000 C 
ATOM      5  C   UNL     1     144.591 126.067  99.805  0.00  0.00    +0.000 C 
ATOM      6  C   UNL     1     143.633 125.065 100.486  0.00  0.00    +0.000 C 
ATOM      7  C   UNL     1     146.025 128.223  99.767  0.00  0.00    +0.000 C 
ATOM      8  C   UNL     1     144.923 127.352 100.319  0.00  0.00    +0.000 C 
ATOM      9  C   UNL     1     146.975 129.026  97.597  0.00  0.00    +0.000 C 
ATOM     10  C   UNL     1     146.213 127.022  96.559  0.00  0.00    +0.000 C 
ATOM     11  C   UNL     1     144.997 124.545  97.958  0.00  0.00    +0.000 C 
ATOM     12  C   UNL     1     146.520 128.486  96.363  0.00  0.00    +0.000 C 
ATOM     13  C   UNL     1     143.121 123.816  99.527  0.00  0.00    +0.000 C 
ATOM     14  C   UNL     1     143.921 123.591  98.380  0.00  0.00    +0.000 C 
ATOM     15  C   UNL     1     148.409 127.647  99.190  0.00  0.00    +0.000 C 
ATOM     16  C   UNL     1     142.349 125.745 100.862  0.00  0.00    +0.000 C 
ATOM     17  C   UNL     1     144.330 124.431 101.722  0.00  0.00    +0.000 C 
ATOM     18  C   UNL     1     140.865 125.396 100.606  0.00  0.00    +0.000 C 
ATOM     19  C   UNL     1     141.823 123.617  99.423  0.00  0.00    +0.000 C 
ATOM     20  C   UNL     1     140.558 124.214  99.825  0.00  0.00    +0.000 C 
ENDROOT
BRANCH   9  21
ATOM     21  O   UNL     1     147.877 130.073  97.608  0.00  0.00    +0.000 OA
ATOM     22  H   UNL     1     148.714 129.826  97.168  0.00  0.00    +0.000 HD
ENDBRANCH   9  21
TORSDOF 1
ENDMDL
MODEL 3
REMARK VINA RESULT:      -6.7      1.501      2.333
REMARK  Name = Testosterone.pdbqt.pdb
REMARK  1 active torsions:
REMARK  status: ('A' for Active; 'I' for Inactive)
REMARK    1  A    between atoms: C_9  and  O_21
REMARK                            x       y       z     vdW  Elec       q    Type
REMARK                         _______ _______ _______ _____ _____    ______ ____
ROOT
ATOM      1  O   UNL     1     145.531 123.575  93.954  0.00  0.00    +0.000 OA
ATOM      2  C   UNL     1     142.828 125.093 100.954  0.00  0.00    +0.000 C 
ATOM      3  C   UNL     1     142.261 126.538 101.350  0.00  0.00    +0.000 C 
ATOM      4  C   UNL     1     142.793 124.604  99.561  0.00  0.00    +0.000 C 
ATOM      5  C   UNL     1     142.546 125.440  98.336  0.00  0.00    +0.000 C 
ATOM      6  C   UNL     1     142.431 124.863  96.907  0.00  0.00    +0.000 C 
ATOM      7  C   UNL     1     142.213 127.303 100.103  0.00  0.00    +0.000 C 
ATOM      8  C   UNL     1     142.319 126.800  98.684  0.00  0.00    +0.000 C 
ATOM      9  C   UNL     1     143.320 127.088 102.335  0.00  0.00    +0.000 C 
ATOM     10  C   UNL     1     144.002 124.883 101.749  0.00  0.00    +0.000 C 
ATOM     11  C   UNL     1     143.153 123.273  99.246  0.00  0.00    +0.000 C 
ATOM     12  C   UNL     1     144.335 126.116 102.550  0.00  0.00    +0.000 C 
ATOM     13  C   UNL     1     143.099 123.363  96.696  0.00  0.00    +0.000 C 
ATOM     14  C   UNL     1     143.310 122.641  97.897  0.00  0.00    +0.000 C 
ATOM     15  C   UNL     1     140.882 126.403 102.044  0.00  0.00    +0.000 C 
ATOM     16  C   UNL     1     143.203 125.711  95.939  0.00  0.00    +0.000 C 
ATOM     17  C   UNL     1     140.934 124.753  96.506  0.00  0.00    +0.000 C 
ATOM     18  C   UNL     1     144.269 125.375  94.871  0.00  0.00    +0.000 C 
ATOM     19  C   UNL     1     143.976 123.215  95.725  0.00  0.00    +0.000 C 
ATOM     20  C   UNL     1     144.694 123.997  94.729  0.00  0.00    +0.000 C 
ENDROOT
BRANCH   9  21
ATOM     21  O   UNL     1     143.001 127.993 103.331  0.00  0.00    +0.000 OA
ATOM     22  H   UNL     1     143.247 128.904 103.075  0.00  0.00    +0.000 HD
ENDBRANCH   9  21
TORSDOF 1
ENDMDL
MODEL 4
REMARK VINA RESULT:      -6.7     33.349     36.427
REMARK  Name = Testosterone.pdbqt.pdb
REMARK  1 active torsions:
REMARK  status: ('A' for Active; 'I' for Inactive)
REMARK    1  A    between atoms: C_9  and  O_21
REMARK                            x       y       z     vdW  Elec       q    Type
REMARK                         _______ _______ _______ _____ _____    ______ ____
ROOT
ATOM      1  O   UNL     1     139.427 123.834 132.216  0.00  0.00    +0.000 OA
ATOM      2  C   UNL     1     133.924 119.383 135.134  0.00  0.00    +0.000 C 
ATOM      3  C   UNL     1     133.812 119.093 136.706  0.00  0.00    +0.000 C 
ATOM      4  C   UNL     1     134.537 120.624 134.620  0.00  0.00    +0.000 C 
ATOM      5  C   UNL     1     135.384 121.585 135.407  0.00  0.00    +0.000 C 
ATOM      6  C   UNL     1     135.927 122.917 134.843  0.00  0.00    +0.000 C 
ATOM      7  C   UNL     1     134.790 119.975 137.345  0.00  0.00    +0.000 C 
ATOM      8  C   UNL     1     135.514 121.162 136.759  0.00  0.00    +0.000 C 
ATOM      9  C   UNL     1     134.201 117.600 136.830  0.00  0.00    +0.000 C 
ATOM     10  C   UNL     1     134.229 118.131 134.508  0.00  0.00    +0.000 C 
ATOM     11  C   UNL     1     134.495 120.941 133.242  0.00  0.00    +0.000 C 
ATOM     12  C   UNL     1     134.452 117.054 135.541  0.00  0.00    +0.000 C 
ATOM     13  C   UNL     1     135.984 123.013 133.191  0.00  0.00    +0.000 C 
ATOM     14  C   UNL     1     135.168 122.069 132.521  0.00  0.00    +0.000 C 
ATOM     15  C   UNL     1     132.360 119.324 137.193  0.00  0.00    +0.000 C 
ATOM     16  C   UNL     1     137.364 123.102 135.237  0.00  0.00    +0.000 C 
ATOM     17  C   UNL     1     135.041 124.094 135.335  0.00  0.00    +0.000 C 
ATOM     18  C   UNL     1     138.637 123.440 134.428  0.00  0.00    +0.000 C 
ATOM     19  C   UNL     1     137.133 123.340 132.636  0.00  0.00    +0.000 C 
ATOM     20  C   UNL     1     138.522 123.590 132.991  0.00  0.00    +0.000 C 
ENDROOT
BRANCH   9  21
ATOM     21  O   UNL     1     133.718 116.794 137.845  0.00  0.00    +0.000 OA
ATOM     22  H   UNL     1     134.266 116.871 138.650  0.00  0.00    +0.000 HD
ENDBRANCH   9  21
TORSDOF 1
ENDMDL
MODEL 5
REMARK VINA RESULT:      -6.5      3.572      6.103
REMARK  Name = Testosterone.pdbqt.pdb
REMARK  1 active torsions:
REMARK  status: ('A' for Active; 'I' for Inactive)
REMARK    1  A    between atoms: C_9  and  O_21
REMARK                            x       y       z     vdW  Elec       q    Type
REMARK                         _______ _______ _______ _____ _____    ______ ____
ROOT
ATOM      1  O   UNL     1     148.307 128.815  97.545  0.00  0.00    +0.000 OA
ATOM      2  C   UNL     1     142.960 123.354  97.993  0.00  0.00    +0.000 C 
ATOM      3  C   UNL     1     141.639 123.383  97.086  0.00  0.00    +0.000 C 
ATOM      4  C   UNL     1     144.215 123.993  97.549  0.00  0.00    +0.000 C 
ATOM      5  C   UNL     1     144.357 124.978  96.422  0.00  0.00    +0.000 C 
ATOM      6  C   UNL     1     145.709 125.548  95.941  0.00  0.00    +0.000 C 
ATOM      7  C   UNL     1     141.833 124.478  96.134  0.00  0.00    +0.000 C 
ATOM      8  C   UNL     1     143.104 125.216  95.792  0.00  0.00    +0.000 C 
ATOM      9  C   UNL     1     140.508 123.682  98.100  0.00  0.00    +0.000 C 
ATOM     10  C   UNL     1     142.528 123.509  99.350  0.00  0.00    +0.000 C 
ATOM     11  C   UNL     1     145.414 123.831  98.282  0.00  0.00    +0.000 C 
ATOM     12  C   UNL     1     141.042 123.764  99.415  0.00  0.00    +0.000 C 
ATOM     13  C   UNL     1     146.949 125.442  97.034  0.00  0.00    +0.000 C 
ATOM     14  C   UNL     1     146.737 124.501  98.071  0.00  0.00    +0.000 C 
ATOM     15  C   UNL     1     141.420 122.007  96.409  0.00  0.00    +0.000 C 
ATOM     16  C   UNL     1     145.598 127.026  95.706  0.00  0.00    +0.000 C 
ATOM     17  C   UNL     1     146.169 124.797  94.661  0.00  0.00    +0.000 C 
ATOM     18  C   UNL     1     146.442 128.230  96.185  0.00  0.00    +0.000 C 
ATOM     19  C   UNL     1     147.602 126.548  97.327  0.00  0.00    +0.000 C 
ATOM     20  C   UNL     1     147.562 127.979  97.069  0.00  0.00    +0.000 C 
ENDROOT
BRANCH   9  21
ATOM     21  O   UNL     1     139.209 123.253  97.902  0.00  0.00    +0.000 OA
ATOM     22  H   UNL     1     138.587 124.006  97.866  0.00  0.00    +0.000 HD
ENDBRANCH   9  21
TORSDOF 1
ENDMDL
MODEL 6
REMARK VINA RESULT:      -6.5      2.344      6.611
REMARK  Name = Testosterone.pdbqt.pdb
REMARK  1 active torsions:
REMARK  status: ('A' for Active; 'I' for Inactive)
REMARK    1  A    between atoms: C_9  and  O_21
REMARK                            x       y       z     vdW  Elec       q    Type
REMARK                         _______ _______ _______ _____ _____    ______ ____
ROOT
ATOM      1  O   UNL     1     147.340 126.569 104.453  0.00  0.00    +0.000 OA
ATOM      2  C   UNL     1     143.971 125.300  97.696  0.00  0.00    +0.000 C 
ATOM      3  C   UNL     1     143.412 126.496  96.789  0.00  0.00    +0.000 C 
ATOM      4  C   UNL     1     145.088 125.503  98.640  0.00  0.00    +0.000 C 
ATOM      5  C   UNL     1     145.622 126.829  99.108  0.00  0.00    +0.000 C 
ATOM      6  C   UNL     1     146.853 126.987 100.028  0.00  0.00    +0.000 C 
ATOM      7  C   UNL     1     143.867 127.731  97.432  0.00  0.00    +0.000 C 
ATOM      8  C   UNL     1     144.919 127.905  98.500  0.00  0.00    +0.000 C 
ATOM      9  C   UNL     1     141.876 126.326  96.867  0.00  0.00    +0.000 C 
ATOM     10  C   UNL     1     142.833 124.529  98.103  0.00  0.00    +0.000 C 
ATOM     11  C   UNL     1     145.674 124.412  99.323  0.00  0.00    +0.000 C 
ATOM     12  C   UNL     1     141.552 125.182  97.645  0.00  0.00    +0.000 C 
ATOM     13  C   UNL     1     147.258 125.640 100.902  0.00  0.00    +0.000 C 
ATOM     14  C   UNL     1     146.710 124.432 100.405  0.00  0.00    +0.000 C 
ATOM     15  C   UNL     1     143.909 126.341  95.330  0.00  0.00    +0.000 C 
ATOM     16  C   UNL     1     146.579 128.006 101.095  0.00  0.00    +0.000 C 
ATOM     17  C   UNL     1     148.097 127.366  99.178  0.00  0.00    +0.000 C 
ATOM     18  C   UNL     1     146.731 127.980 102.633  0.00  0.00    +0.000 C 
ATOM     19  C   UNL     1     147.381 125.772 102.206  0.00  0.00    +0.000 C 
ATOM     20  C   UNL     1     147.188 126.756 103.261  0.00  0.00    +0.000 C 
ENDROOT
BRANCH   9  21
ATOM     21  O   UNL     1     141.037 126.734  95.846  0.00  0.00    +0.000 OA
ATOM     22  H   UNL     1     140.831 127.687  95.914  0.00  0.00    +0.000 HD
ENDBRANCH   9  21
TORSDOF 1
ENDMDL
MODEL 7
REMARK VINA RESULT:      -6.4     34.152     36.427
REMARK  Name = Testosterone.pdbqt.pdb
REMARK  1 active torsions:
REMARK  status: ('A' for Active; 'I' for Inactive)
REMARK    1  A    between atoms: C_9  and  O_21
REMARK                            x       y       z     vdW  Elec       q    Type
REMARK                         _______ _______ _______ _____ _____    ______ ____
ROOT
ATOM      1  O   UNL     1     137.941 125.267 132.865  0.00  0.00    +0.000 OA
ATOM      2  C   UNL     1     133.493 119.406 134.981  0.00  0.00    +0.000 C 
ATOM      3  C   UNL     1     134.091 117.946 135.263  0.00  0.00    +0.000 C 
ATOM      4  C   UNL     1     134.312 120.622 135.157  0.00  0.00    +0.000 C 
ATOM      5  C   UNL     1     135.809 120.670 135.295  0.00  0.00    +0.000 C 
ATOM      6  C   UNL     1     136.609 121.963 135.567  0.00  0.00    +0.000 C 
ATOM      7  C   UNL     1     135.547 118.095 135.219  0.00  0.00    +0.000 C 
ATOM      8  C   UNL     1     136.366 119.362 135.260  0.00  0.00    +0.000 C 
ATOM      9  C   UNL     1     133.553 117.099 134.085  0.00  0.00    +0.000 C 
ATOM     10  C   UNL     1     132.642 119.285 133.835  0.00  0.00    +0.000 C 
ATOM     11  C   UNL     1     133.736 121.910 135.055  0.00  0.00    +0.000 C 
ATOM     12  C   UNL     1     132.718 117.895 133.254  0.00  0.00    +0.000 C 
ATOM     13  C   UNL     1     135.823 123.371 135.189  0.00  0.00    +0.000 C 
ATOM     14  C   UNL     1     134.418 123.244 135.066  0.00  0.00    +0.000 C 
ATOM     15  C   UNL     1     133.567 117.402 136.615  0.00  0.00    +0.000 C 
ATOM     16  C   UNL     1     137.827 122.016 134.692  0.00  0.00    +0.000 C 
ATOM     17  C   UNL     1     136.980 122.042 137.073  0.00  0.00    +0.000 C 
ATOM     18  C   UNL     1     138.391 123.101 133.747  0.00  0.00    +0.000 C 
ATOM     19  C   UNL     1     136.438 124.219 134.391  0.00  0.00    +0.000 C 
ATOM     20  C   UNL     1     137.643 124.331 133.582  0.00  0.00    +0.000 C 
ENDROOT
BRANCH   9  21
ATOM     21  O   UNL     1     133.329 115.739 134.197  0.00  0.00    +0.000 OA
ATOM     22  H   UNL     1     132.915 115.516 135.054  0.00  0.00    +0.000 HD
ENDBRANCH   9  21
TORSDOF 1
ENDMDL
MODEL 8
REMARK VINA RESULT:      -6.4     32.990     36.564
REMARK  Name = Testosterone.pdbqt.pdb
REMARK  1 active torsions:
REMARK  status: ('A' for Active; 'I' for Inactive)
REMARK    1  A    between atoms: C_9  and  O_21
REMARK                            x       y       z     vdW  Elec       q    Type
REMARK                         _______ _______ _______ _____ _____    ______ ____
ROOT
ATOM      1  O   UNL     1     136.431 135.603 129.526  0.00  0.00    +0.000 OA
ATOM      2  C   UNL     1     139.639 135.407 136.475  0.00  0.00    +0.000 C 
ATOM      3  C   UNL     1     138.767 135.228 137.807  0.00  0.00    +0.000 C 
ATOM      4  C   UNL     1     139.181 134.877 135.175  0.00  0.00    +0.000 C 
ATOM      5  C   UNL     1     137.788 134.414 134.849  0.00  0.00    +0.000 C 
ATOM      6  C   UNL     1     137.382 133.784 133.498  0.00  0.00    +0.000 C 
ATOM      7  C   UNL     1     137.406 134.934 137.356  0.00  0.00    +0.000 C 
ATOM      8  C   UNL     1     136.935 134.526 135.982  0.00  0.00    +0.000 C 
ATOM      9  C   UNL     1     138.871 136.608 138.498  0.00  0.00    +0.000 C 
ATOM     10  C   UNL     1     140.222 136.714 136.540  0.00  0.00    +0.000 C 
ATOM     11  C   UNL     1     140.023 134.904 134.038  0.00  0.00    +0.000 C 
ATOM     12  C   UNL     1     139.714 137.469 137.743  0.00  0.00    +0.000 C 
ATOM     13  C   UNL     1     138.404 134.104 132.235  0.00  0.00    +0.000 C 
ATOM     14  C   UNL     1     139.694 134.544 132.622  0.00  0.00    +0.000 C 
ATOM     15  C   UNL     1     139.374 134.118 138.702  0.00  0.00    +0.000 C 
ATOM     16  C   UNL     1     136.078 134.357 133.026  0.00  0.00    +0.000 C 
ATOM     17  C   UNL     1     137.310 132.238 133.642  0.00  0.00    +0.000 C 
ATOM     18  C   UNL     1     135.635 134.984 131.684  0.00  0.00    +0.000 C 
ATOM     19  C   UNL     1     137.881 134.613 131.139  0.00  0.00    +0.000 C 
ATOM     20  C   UNL     1     136.616 135.117 130.626  0.00  0.00    +0.000 C 
ENDROOT
BRANCH   9  21
ATOM     21  O   UNL     1     138.778 136.754 139.870  0.00  0.00    +0.000 OA
ATOM     22  H   UNL     1     139.017 137.660 140.149  0.00  0.00    +0.000 HD
ENDBRANCH   9  21
TORSDOF 1
ENDMDL
MODEL 9
REMARK VINA RESULT:      -6.4      3.356      5.057
REMARK  Name = Testosterone.pdbqt.pdb
REMARK  1 active torsions:
REMARK  status: ('A' for Active; 'I' for Inactive)
REMARK    1  A    between atoms: C_9  and  O_21
REMARK                            x       y       z     vdW  Elec       q    Type
REMARK                         _______ _______ _______ _____ _____    ______ ____
ROOT
ATOM      1  O   UNL     1     149.270 129.218  98.470  0.00  0.00    +0.000 OA
ATOM      2  C   UNL     1     143.036 125.597 101.047  0.00  0.00    +0.000 C 
ATOM      3  C   UNL     1     141.630 125.682 100.284  0.00  0.00    +0.000 C 
ATOM      4  C   UNL     1     144.316 125.754 100.327  0.00  0.00    +0.000 C 
ATOM      5  C   UNL     1     144.489 126.302  98.937  0.00  0.00    +0.000 C 
ATOM      6  C   UNL     1     145.842 126.361  98.195  0.00  0.00    +0.000 C 
ATOM      7  C   UNL     1     141.902 126.370  99.021  0.00  0.00    +0.000 C 
ATOM      8  C   UNL     1     143.233 126.645  98.364  0.00  0.00    +0.000 C 
ATOM      9  C   UNL     1     140.750 126.529 101.235  0.00  0.00    +0.000 C 
ATOM     10  C   UNL     1     142.854 126.241 102.314  0.00  0.00    +0.000 C 
ATOM     11  C   UNL     1     145.551 125.526 100.977  0.00  0.00    +0.000 C 
ATOM     12  C   UNL     1     141.481 126.857 102.410  0.00  0.00    +0.000 C 
ATOM     13  C   UNL     1     147.182 126.280  99.165  0.00  0.00    +0.000 C 
ATOM     14  C   UNL     1     146.938 125.762 100.461  0.00  0.00    +0.000 C 
ATOM     15  C   UNL     1     141.032 124.265 100.099  0.00  0.00    +0.000 C 
ATOM     16  C   UNL     1     146.005 127.687  97.512  0.00  0.00    +0.000 C 
ATOM     17  C   UNL     1     145.940 125.181  97.189  0.00  0.00    +0.000 C 
ATOM     18  C   UNL     1     147.142 128.735  97.516  0.00  0.00    +0.000 C 
ATOM     19  C   UNL     1     148.086 127.229  99.040  0.00  0.00    +0.000 C 
ATOM     20  C   UNL     1     148.306 128.488  98.344  0.00  0.00    +0.000 C 
ENDROOT
BRANCH   9  21
ATOM     21  O   UNL     1     139.375 126.390 101.286  0.00  0.00    +0.000 OA
ATOM     22  H   UNL     1     139.113 125.664 101.885  0.00  0.00    +0.000 HD
ENDBRANCH   9  21
TORSDOF 1
ENDMDL
