MODEL 1
REMARK VINA RESULT:      -3.5      0.000      0.000
REMARK  Name = Tetrachloroethylene.pdbqt.pdb
REMARK  0 active torsions:
REMARK  status: ('A' for Active; 'I' for Inactive)
REMARK                            x       y       z     vdW  Elec       q    Type
REMARK                         _______ _______ _______ _____ _____    ______ ____
ROOT
ATOM      1 CL   UNL     1     143.441 128.355 125.950  0.00  0.00    +0.000 Cl
ATOM      2 CL   UNL     1     142.856 125.504 125.627  0.00  0.00    +0.000 Cl
ATOM      3 CL   UNL     1     142.310 125.972 122.490  0.00  0.00    +0.000 Cl
ATOM      4 CL   UNL     1     142.895 128.822 122.813  0.00  0.00    +0.000 Cl
ATOM      5  C   UNL     1     142.989 127.066 124.875  0.00  0.00    +0.000 C 
ATOM      6  C   UNL     1     142.761 127.261 123.565  0.00  0.00    +0.000 C 
ENDROOT
TORSDOF 0
ENDMDL
MODEL 2
REMARK VINA RESULT:      -3.5      0.182      2.397
REMARK  Name = Tetrachloroethylene.pdbqt.pdb
REMARK  0 active torsions:
REMARK  status: ('A' for Active; 'I' for Inactive)
REMARK                            x       y       z     vdW  Elec       q    Type
REMARK                         _______ _______ _______ _____ _____    ______ ____
ROOT
ATOM      1 CL   UNL     1     143.020 125.440 125.420  0.00  0.00    +0.000 Cl
ATOM      2 CL   UNL     1     143.540 128.296 125.808  0.00  0.00    +0.000 Cl
ATOM      3 CL   UNL     1     142.805 128.849 122.725  0.00  0.00    +0.000 Cl
ATOM      4 CL   UNL     1     142.285 125.993 122.337  0.00  0.00    +0.000 Cl
ATOM      5  C   UNL     1     143.066 127.029 124.716  0.00  0.00    +0.000 C 
ATOM      6  C   UNL     1     142.759 127.260 123.429  0.00  0.00    +0.000 C 
ENDROOT
TORSDOF 0
ENDMDL
MODEL 3
REMARK VINA RESULT:      -3.0     12.254     13.516
REMARK  Name = Tetrachloroethylene.pdbqt.pdb
REMARK  0 active torsions:
REMARK  status: ('A' for Active; 'I' for Inactive)
REMARK                            x       y       z     vdW  Elec       q    Type
REMARK                         _______ _______ _______ _____ _____    ______ ____
ROOT
ATOM      1 CL   UNL     1     133.644 121.274 134.393  0.00  0.00    +0.000 Cl
ATOM      2 CL   UNL     1     135.496 121.645 132.156  0.00  0.00    +0.000 Cl
ATOM      3 CL   UNL     1     136.723 124.244 133.602  0.00  0.00    +0.000 Cl
ATOM      4 CL   UNL     1     134.871 123.874 135.840  0.00  0.00    +0.000 Cl
ATOM      5  C   UNL     1     134.927 122.216 133.696  0.00  0.00    +0.000 C 
ATOM      6  C   UNL     1     135.440 123.302 134.300  0.00  0.00    +0.000 C 
ENDROOT
TORSDOF 0
ENDMDL
MODEL 4
REMARK VINA RESULT:      -3.0     12.203     13.263
REMARK  Name = Tetrachloroethylene.pdbqt.pdb
REMARK  0 active torsions:
REMARK  status: ('A' for Active; 'I' for Inactive)
REMARK                            x       y       z     vdW  Elec       q    Type
REMARK                         _______ _______ _______ _____ _____    ______ ____
ROOT
ATOM      1 CL   UNL     1     134.915 123.772 135.863  0.00  0.00    +0.000 Cl
ATOM      2 CL   UNL     1     133.572 121.427 134.735  0.00  0.00    +0.000 Cl
ATOM      3 CL   UNL     1     135.379 121.667 132.083  0.00  0.00    +0.000 Cl
ATOM      4 CL   UNL     1     136.722 124.012 133.211  0.00  0.00    +0.000 Cl
ATOM      5  C   UNL     1     134.770 122.669 134.527  0.00  0.00    +0.000 C 
ATOM      6  C   UNL     1     135.524 122.770 133.419  0.00  0.00    +0.000 C 
ENDROOT
TORSDOF 0
ENDMDL
MODEL 5
REMARK VINA RESULT:      -2.9     11.943     13.387
REMARK  Name = Tetrachloroethylene.pdbqt.pdb
REMARK  0 active torsions:
REMARK  status: ('A' for Active; 'I' for Inactive)
REMARK                            x       y       z     vdW  Elec       q    Type
REMARK                         _______ _______ _______ _____ _____    ______ ____
ROOT
ATOM      1 CL   UNL     1     136.181 121.906 132.227  0.00  0.00    +0.000 Cl
ATOM      2 CL   UNL     1     137.027 124.406 133.495  0.00  0.00    +0.000 Cl
ATOM      3 CL   UNL     1     134.747 124.041 135.736  0.00  0.00    +0.000 Cl
ATOM      4 CL   UNL     1     133.901 121.541 134.468  0.00  0.00    +0.000 Cl
ATOM      5  C   UNL     1     135.940 123.050 133.513  0.00  0.00    +0.000 C 
ATOM      6  C   UNL     1     134.988 122.897 134.450  0.00  0.00    +0.000 C 
ENDROOT
TORSDOF 0
ENDMDL
MODEL 6
REMARK VINA RESULT:      -2.9      8.992      9.917
REMARK  Name = Tetrachloroethylene.pdbqt.pdb
REMARK  0 active torsions:
REMARK  status: ('A' for Active; 'I' for Inactive)
REMARK                            x       y       z     vdW  Elec       q    Type
REMARK                         _______ _______ _______ _____ _____    ______ ____
ROOT
ATOM      1 CL   UNL     1     140.731 130.654 133.637  0.00  0.00    +0.000 Cl
ATOM      2 CL   UNL     1     141.571 128.482 135.411  0.00  0.00    +0.000 Cl
ATOM      3 CL   UNL     1     140.065 126.356 133.521  0.00  0.00    +0.000 Cl
ATOM      4 CL   UNL     1     139.226 128.529 131.747  0.00  0.00    +0.000 Cl
ATOM      5  C   UNL     1     140.713 128.949 133.974  0.00  0.00    +0.000 C 
ATOM      6  C   UNL     1     140.084 128.062 133.184  0.00  0.00    +0.000 C 
ENDROOT
TORSDOF 0
ENDMDL
MODEL 7
REMARK VINA RESULT:      -2.9      8.269      9.385
REMARK  Name = Tetrachloroethylene.pdbqt.pdb
REMARK  0 active torsions:
REMARK  status: ('A' for Active; 'I' for Inactive)
REMARK                            x       y       z     vdW  Elec       q    Type
REMARK                         _______ _______ _______ _____ _____    ______ ____
ROOT
ATOM      1 CL   UNL     1     139.215 127.843 130.893  0.00  0.00    +0.000 Cl
ATOM      2 CL   UNL     1     138.650 126.060 133.145  0.00  0.00    +0.000 Cl
ATOM      3 CL   UNL     1     141.202 127.233 134.715  0.00  0.00    +0.000 Cl
ATOM      4 CL   UNL     1     141.768 129.016 132.463  0.00  0.00    +0.000 Cl
ATOM      5  C   UNL     1     139.676 127.293 132.476  0.00  0.00    +0.000 C 
ATOM      6  C   UNL     1     140.742 127.783 133.132  0.00  0.00    +0.000 C 
ENDROOT
TORSDOF 0
ENDMDL
MODEL 8
REMARK VINA RESULT:      -2.9      9.154     10.184
REMARK  Name = Tetrachloroethylene.pdbqt.pdb
REMARK  0 active torsions:
REMARK  status: ('A' for Active; 'I' for Inactive)
REMARK                            x       y       z     vdW  Elec       q    Type
REMARK                         _______ _______ _______ _____ _____    ______ ____
ROOT
ATOM      1 CL   UNL     1     140.548 126.319 133.782  0.00  0.00    +0.000 Cl
ATOM      2 CL   UNL     1     141.820 128.294 135.530  0.00  0.00    +0.000 Cl
ATOM      3 CL   UNL     1     140.659 130.668 133.694  0.00  0.00    +0.000 Cl
ATOM      4 CL   UNL     1     139.388 128.693 131.945  0.00  0.00    +0.000 Cl
ATOM      5  C   UNL     1     140.846 127.998 134.121  0.00  0.00    +0.000 C 
ATOM      6  C   UNL     1     140.361 128.989 133.354  0.00  0.00    +0.000 C 
ENDROOT
TORSDOF 0
ENDMDL
MODEL 9
REMARK VINA RESULT:      -2.9      9.094      9.861
REMARK  Name = Tetrachloroethylene.pdbqt.pdb
REMARK  0 active torsions:
REMARK  status: ('A' for Active; 'I' for Inactive)
REMARK                            x       y       z     vdW  Elec       q    Type
REMARK                         _______ _______ _______ _____ _____    ______ ____
ROOT
ATOM      1 CL   UNL     1     141.872 128.066 135.414  0.00  0.00    +0.000 Cl
ATOM      2 CL   UNL     1     140.463 126.162 133.692  0.00  0.00    +0.000 Cl
ATOM      3 CL   UNL     1     139.356 128.598 131.904  0.00  0.00    +0.000 Cl
ATOM      4 CL   UNL     1     140.765 130.502 133.625  0.00  0.00    +0.000 Cl
ATOM      5  C   UNL     1     140.845 127.823 134.032  0.00  0.00    +0.000 C 
ATOM      6  C   UNL     1     140.383 128.840 133.285  0.00  0.00    +0.000 C 
ENDROOT
TORSDOF 0
ENDMDL
