MODEL 1
REMARK VINA RESULT:      -6.8      0.000      0.000
REMARK  Name = Thalidomide.pdbqt.pdb
REMARK  1 active torsions:
REMARK  status: ('A' for Active; 'I' for Inactive)
REMARK    1  A    between atoms: N_3  and  C_12
REMARK                            x       y       z     vdW  Elec       q    Type
REMARK                         _______ _______ _______ _____ _____    ______ ____
ROOT
ATOM      1  O   UNL     1     145.218 124.579 101.600  0.00  0.00    +0.000 OA
ATOM      2  O   UNL     1     141.832 127.423 102.870  0.00  0.00    +0.000 OA
ATOM      3  N   UNL     1     143.772 126.101 102.671  0.00  0.00    +0.000 N 
ATOM      4  C   UNL     1     144.328 125.409 101.618  0.00  0.00    +0.000 C 
ATOM      5  C   UNL     1     142.713 126.871 102.240  0.00  0.00    +0.000 C 
ATOM      6  C   UNL     1     143.653 125.865 100.409  0.00  0.00    +0.000 A 
ATOM      7  C   UNL     1     142.683 126.770 100.785  0.00  0.00    +0.000 A 
ATOM      8  C   UNL     1     143.852 125.507  99.092  0.00  0.00    +0.000 A 
ATOM      9  C   UNL     1     141.838 127.366  99.873  0.00  0.00    +0.000 A 
ATOM     10  C   UNL     1     143.019 126.109  98.146  0.00  0.00    +0.000 A 
ATOM     11  C   UNL     1     142.025 127.025  98.531  0.00  0.00    +0.000 A 
ENDROOT
BRANCH   3  12
ATOM     12  C   UNL     1     144.135 125.948 103.986  0.00  0.00    +0.000 C 
ATOM     13  C   UNL     1     143.587 124.956 104.829  0.00  0.00    +0.000 C 
ATOM     14  C   UNL     1     143.873 124.913 106.299  0.00  0.00    +0.000 C 
ATOM     15  C   UNL     1     144.761 125.842 106.932  0.00  0.00    +0.000 C 
ATOM     16  O   UNL     1     145.051 125.759 108.114  0.00  0.00    +0.000 OA
ATOM     17  N   UNL     1     145.281 126.784 106.049  0.00  0.00    +0.000 N 
ATOM     18  C   UNL     1     145.197 126.819 104.650  0.00  0.00    +0.000 C 
ATOM     19  H   UNL     1     146.011 127.363 106.439  0.00  0.00    +0.000 HD
ATOM     20  O   UNL     1     146.042 127.429 104.000  0.00  0.00    +0.000 OA
ENDBRANCH   3  12
TORSDOF 1
ENDMDL
MODEL 2
REMARK VINA RESULT:      -6.6      3.387      4.401
REMARK  Name = Thalidomide.pdbqt.pdb
REMARK  1 active torsions:
REMARK  status: ('A' for Active; 'I' for Inactive)
REMARK    1  A    between atoms: N_3  and  C_12
REMARK                            x       y       z     vdW  Elec       q    Type
REMARK                         _______ _______ _______ _____ _____    ______ ____
ROOT
ATOM      1  O   UNL     1     144.133 126.590  98.405  0.00  0.00    +0.000 OA
ATOM      2  O   UNL     1     147.201 128.670 101.131  0.00  0.00    +0.000 OA
ATOM      3  N   UNL     1     145.556 127.301 100.143  0.00  0.00    +0.000 N 
ATOM      4  C   UNL     1     145.114 127.158  98.848  0.00  0.00    +0.000 C 
ATOM      5  C   UNL     1     146.668 128.114 100.189  0.00  0.00    +0.000 C 
ATOM      6  C   UNL     1     146.087 127.828  97.992  0.00  0.00    +0.000 A 
ATOM      7  C   UNL     1     147.045 128.393  98.808  0.00  0.00    +0.000 A 
ATOM      8  C   UNL     1     146.126 127.952  96.619  0.00  0.00    +0.000 A 
ATOM      9  C   UNL     1     148.095 129.133  98.307  0.00  0.00    +0.000 A 
ATOM     10  C   UNL     1     147.189 128.684  96.086  0.00  0.00    +0.000 A 
ATOM     11  C   UNL     1     148.160 129.267  96.918  0.00  0.00    +0.000 A 
ENDROOT
BRANCH   3  12
ATOM     12  C   UNL     1     144.907 126.812 101.250  0.00  0.00    +0.000 C 
ATOM     13  C   UNL     1     143.801 127.458 101.845  0.00  0.00    +0.000 C 
ATOM     14  C   UNL     1     143.214 126.997 103.144  0.00  0.00    +0.000 C 
ATOM     15  C   UNL     1     143.704 125.843 103.838  0.00  0.00    +0.000 C 
ATOM     16  O   UNL     1     143.177 125.425 104.855  0.00  0.00    +0.000 OA
ATOM     17  N   UNL     1     144.783 125.240 103.195  0.00  0.00    +0.000 N 
ATOM     18  C   UNL     1     145.302 125.499 101.918  0.00  0.00    +0.000 C 
ATOM     19  H   UNL     1     145.058 124.352 103.587  0.00  0.00    +0.000 HD
ATOM     20  O   UNL     1     145.938 124.630 101.328  0.00  0.00    +0.000 OA
ENDBRANCH   3  12
TORSDOF 1
ENDMDL
MODEL 3
REMARK VINA RESULT:      -6.6      2.631      3.717
REMARK  Name = Thalidomide.pdbqt.pdb
REMARK  1 active torsions:
REMARK  status: ('A' for Active; 'I' for Inactive)
REMARK    1  A    between atoms: N_3  and  C_12
REMARK                            x       y       z     vdW  Elec       q    Type
REMARK                         _______ _______ _______ _____ _____    ______ ____
ROOT
ATOM      1  O   UNL     1     145.291 123.064  99.946  0.00  0.00    +0.000 OA
ATOM      2  O   UNL     1     142.358 126.604  99.772  0.00  0.00    +0.000 OA
ATOM      3  N   UNL     1     144.191 125.146 100.031  0.00  0.00    +0.000 N 
ATOM      4  C   UNL     1     144.419 123.850  99.626  0.00  0.00    +0.000 C 
ATOM      5  C   UNL     1     143.021 125.626  99.483  0.00  0.00    +0.000 C 
ATOM      6  C   UNL     1     143.385 123.523  98.651  0.00  0.00    +0.000 A 
ATOM      7  C   UNL     1     142.545 124.612  98.550  0.00  0.00    +0.000 A 
ATOM      8  C   UNL     1     143.179 122.366  97.928  0.00  0.00    +0.000 A 
ATOM      9  C   UNL     1     141.436 124.612  97.730  0.00  0.00    +0.000 A 
ATOM     10  C   UNL     1     142.071 122.347  97.079  0.00  0.00    +0.000 A 
ATOM     11  C   UNL     1     141.211 123.455  96.981  0.00  0.00    +0.000 A 
ENDROOT
BRANCH   3  12
ATOM     12  C   UNL     1     144.950 125.822 100.954  0.00  0.00    +0.000 C 
ATOM     13  C   UNL     1     145.887 126.819 100.603  0.00  0.00    +0.000 C 
ATOM     14  C   UNL     1     146.820 127.424 101.607  0.00  0.00    +0.000 C 
ATOM     15  C   UNL     1     146.786 127.068 102.994  0.00  0.00    +0.000 C 
ATOM     16  O   UNL     1     147.494 127.616 103.823  0.00  0.00    +0.000 OA
ATOM     17  N   UNL     1     145.833 126.094 103.281  0.00  0.00    +0.000 N 
ATOM     18  C   UNL     1     144.823 125.580 102.455  0.00  0.00    +0.000 C 
ATOM     19  H   UNL     1     145.694 125.924 104.266  0.00  0.00    +0.000 HD
ATOM     20  O   UNL     1     143.820 125.078 102.954  0.00  0.00    +0.000 OA
ENDBRANCH   3  12
TORSDOF 1
ENDMDL
MODEL 4
REMARK VINA RESULT:      -6.6      3.544      5.627
REMARK  Name = Thalidomide.pdbqt.pdb
REMARK  1 active torsions:
REMARK  status: ('A' for Active; 'I' for Inactive)
REMARK    1  A    between atoms: N_3  and  C_12
REMARK                            x       y       z     vdW  Elec       q    Type
REMARK                         _______ _______ _______ _____ _____    ______ ____
ROOT
ATOM      1  O   UNL     1     143.109 127.959  99.435  0.00  0.00    +0.000 OA
ATOM      2  O   UNL     1     144.178 124.237 101.919  0.00  0.00    +0.000 OA
ATOM      3  N   UNL     1     143.210 125.874 100.528  0.00  0.00    +0.000 N 
ATOM      4  C   UNL     1     143.693 127.041  99.983  0.00  0.00    +0.000 C 
ATOM      5  C   UNL     1     144.224 125.167 101.137  0.00  0.00    +0.000 C 
ATOM      6  C   UNL     1     145.141 127.019 100.148  0.00  0.00    +0.000 A 
ATOM      7  C   UNL     1     145.467 125.867 100.834  0.00  0.00    +0.000 A 
ATOM      8  C   UNL     1     146.095 127.934  99.754  0.00  0.00    +0.000 A 
ATOM      9  C   UNL     1     146.765 125.561 101.184  0.00  0.00    +0.000 A 
ATOM     10  C   UNL     1     147.420 127.639 100.083  0.00  0.00    +0.000 A 
ATOM     11  C   UNL     1     147.751 126.469 100.788  0.00  0.00    +0.000 A 
ENDROOT
BRANCH   3  12
ATOM     12  C   UNL     1     141.883 125.522 100.574  0.00  0.00    +0.000 C 
ATOM     13  C   UNL     1     140.941 126.169 101.404  0.00  0.00    +0.000 C 
ATOM     14  C   UNL     1     139.540 125.664 101.563  0.00  0.00    +0.000 C 
ATOM     15  C   UNL     1     139.052 124.524 100.844  0.00  0.00    +0.000 C 
ATOM     16  O   UNL     1     137.890 124.159 100.917  0.00  0.00    +0.000 OA
ATOM     17  N   UNL     1     140.020 123.939 100.032  0.00  0.00    +0.000 N 
ATOM     18  C   UNL     1     141.297 124.417  99.701  0.00  0.00    +0.000 C 
ATOM     19  H   UNL     1     139.669 123.222  99.414  0.00  0.00    +0.000 HD
ATOM     20  O   UNL     1     141.843 124.040  98.668  0.00  0.00    +0.000 OA
ENDBRANCH   3  12
TORSDOF 1
ENDMDL
MODEL 5
REMARK VINA RESULT:      -6.6      2.520      4.079
REMARK  Name = Thalidomide.pdbqt.pdb
REMARK  1 active torsions:
REMARK  status: ('A' for Active; 'I' for Inactive)
REMARK    1  A    between atoms: N_3  and  C_12
REMARK                            x       y       z     vdW  Elec       q    Type
REMARK                         _______ _______ _______ _____ _____    ______ ____
ROOT
ATOM      1  O   UNL     1     143.057 126.804  99.398  0.00  0.00    +0.000 OA
ATOM      2  O   UNL     1     145.166 122.753  99.955  0.00  0.00    +0.000 OA
ATOM      3  N   UNL     1     144.261 124.922 100.144  0.00  0.00    +0.000 N 
ATOM      4  C   UNL     1     143.350 125.623  99.387  0.00  0.00    +0.000 C 
ATOM      5  C   UNL     1     144.336 123.612  99.720  0.00  0.00    +0.000 C 
ATOM      6  C   UNL     1     142.708 124.662  98.498  0.00  0.00    +0.000 A 
ATOM      7  C   UNL     1     143.295 123.433  98.716  0.00  0.00    +0.000 A 
ATOM      8  C   UNL     1     141.710 124.845  97.564  0.00  0.00    +0.000 A 
ATOM      9  C   UNL     1     142.934 122.309  98.003  0.00  0.00    +0.000 A 
ATOM     10  C   UNL     1     141.316 123.718  96.840  0.00  0.00    +0.000 A 
ATOM     11  C   UNL     1     141.919 122.467  97.056  0.00  0.00    +0.000 A 
ENDROOT
BRANCH   3  12
ATOM     12  C   UNL     1     145.077 125.476 101.099  0.00  0.00    +0.000 C 
ATOM     13  C   UNL     1     146.377 125.954 100.822  0.00  0.00    +0.000 C 
ATOM     14  C   UNL     1     147.309 126.400 101.907  0.00  0.00    +0.000 C 
ATOM     15  C   UNL     1     146.923 126.420 103.286  0.00  0.00    +0.000 C 
ATOM     16  O   UNL     1     147.656 126.854 104.159  0.00  0.00    +0.000 OA
ATOM     17  N   UNL     1     145.628 125.953 103.494  0.00  0.00    +0.000 N 
ATOM     18  C   UNL     1     144.636 125.659 102.548  0.00  0.00    +0.000 C 
ATOM     19  H   UNL     1     145.283 126.083 104.434  0.00  0.00    +0.000 HD
ATOM     20  O   UNL     1     143.452 125.686 102.872  0.00  0.00    +0.000 OA
ENDBRANCH   3  12
TORSDOF 1
ENDMDL
MODEL 6
REMARK VINA RESULT:      -6.5      3.422      5.346
REMARK  Name = Thalidomide.pdbqt.pdb
REMARK  1 active torsions:
REMARK  status: ('A' for Active; 'I' for Inactive)
REMARK    1  A    between atoms: N_3  and  C_12
REMARK                            x       y       z     vdW  Elec       q    Type
REMARK                         _______ _______ _______ _____ _____    ______ ____
ROOT
ATOM      1  O   UNL     1     142.462 127.875  98.323  0.00  0.00    +0.000 OA
ATOM      2  O   UNL     1     144.331 126.068 102.118  0.00  0.00    +0.000 OA
ATOM      3  N   UNL     1     143.055 126.592 100.208  0.00  0.00    +0.000 N 
ATOM      4  C   UNL     1     143.234 127.492  99.182  0.00  0.00    +0.000 C 
ATOM      5  C   UNL     1     144.176 126.538 101.007  0.00  0.00    +0.000 C 
ATOM      6  C   UNL     1     144.614 127.955  99.262  0.00  0.00    +0.000 A 
ATOM      7  C   UNL     1     145.194 127.358 100.362  0.00  0.00    +0.000 A 
ATOM      8  C   UNL     1     145.303 128.838  98.456  0.00  0.00    +0.000 A 
ATOM      9  C   UNL     1     146.495 127.616 100.738  0.00  0.00    +0.000 A 
ATOM     10  C   UNL     1     146.628 129.103  98.807  0.00  0.00    +0.000 A 
ATOM     11  C   UNL     1     147.217 128.501  99.933  0.00  0.00    +0.000 A 
ENDROOT
BRANCH   3  12
ATOM     12  C   UNL     1     141.879 125.935 100.476  0.00  0.00    +0.000 C 
ATOM     13  C   UNL     1     141.548 124.682  99.914  0.00  0.00    +0.000 C 
ATOM     14  C   UNL     1     140.195 124.064 100.088  0.00  0.00    +0.000 C 
ATOM     15  C   UNL     1     139.169 124.678 100.878  0.00  0.00    +0.000 C 
ATOM     16  O   UNL     1     138.095 124.138 101.081  0.00  0.00    +0.000 OA
ATOM     17  N   UNL     1     139.559 125.901 101.418  0.00  0.00    +0.000 N 
ATOM     18  C   UNL     1     140.833 126.487 101.440  0.00  0.00    +0.000 C 
ATOM     19  H   UNL     1     138.909 126.289 102.086  0.00  0.00    +0.000 HD
ATOM     20  O   UNL     1     141.111 127.317 102.301  0.00  0.00    +0.000 OA
ENDBRANCH   3  12
TORSDOF 1
ENDMDL
MODEL 7
REMARK VINA RESULT:      -6.4      3.526      4.907
REMARK  Name = Thalidomide.pdbqt.pdb
REMARK  1 active torsions:
REMARK  status: ('A' for Active; 'I' for Inactive)
REMARK    1  A    between atoms: N_3  and  C_12
REMARK                            x       y       z     vdW  Elec       q    Type
REMARK                         _______ _______ _______ _____ _____    ______ ____
ROOT
ATOM      1  O   UNL     1     143.313 124.221  98.829  0.00  0.00    +0.000 OA
ATOM      2  O   UNL     1     142.855 127.419 102.105  0.00  0.00    +0.000 OA
ATOM      3  N   UNL     1     143.471 126.084 100.263  0.00  0.00    +0.000 N 
ATOM      4  C   UNL     1     142.874 125.007  99.648  0.00  0.00    +0.000 C 
ATOM      5  C   UNL     1     142.627 126.634 101.204  0.00  0.00    +0.000 C 
ATOM      6  C   UNL     1     141.504 124.942 100.145  0.00  0.00    +0.000 A 
ATOM      7  C   UNL     1     141.348 125.946 101.077  0.00  0.00    +0.000 A 
ATOM      8  C   UNL     1     140.485 124.069  99.826  0.00  0.00    +0.000 A 
ATOM      9  C   UNL     1     140.168 126.134 101.765  0.00  0.00    +0.000 A 
ATOM     10  C   UNL     1     139.274 124.249 100.498  0.00  0.00    +0.000 A 
ATOM     11  C   UNL     1     139.117 125.267 101.454  0.00  0.00    +0.000 A 
ENDROOT
BRANCH   3  12
ATOM     12  C   UNL     1     144.772 126.476 100.064  0.00  0.00    +0.000 C 
ATOM     13  C   UNL     1     145.126 127.655  99.370  0.00  0.00    +0.000 C 
ATOM     14  C   UNL     1     146.546 127.977  99.021  0.00  0.00    +0.000 C 
ATOM     15  C   UNL     1     147.640 127.138  99.414  0.00  0.00    +0.000 C 
ATOM     16  O   UNL     1     148.801 127.440  99.195  0.00  0.00    +0.000 OA
ATOM     17  N   UNL     1     147.230 126.002 100.108  0.00  0.00    +0.000 N 
ATOM     18  C   UNL     1     145.958 125.689 100.610  0.00  0.00    +0.000 C 
ATOM     19  H   UNL     1     147.983 125.467 100.513  0.00  0.00    +0.000 HD
ATOM     20  O   UNL     1     145.847 124.903 101.547  0.00  0.00    +0.000 OA
ENDBRANCH   3  12
TORSDOF 1
ENDMDL
MODEL 8
REMARK VINA RESULT:      -6.4      3.490      6.570
REMARK  Name = Thalidomide.pdbqt.pdb
REMARK  1 active torsions:
REMARK  status: ('A' for Active; 'I' for Inactive)
REMARK    1  A    between atoms: N_3  and  C_12
REMARK                            x       y       z     vdW  Elec       q    Type
REMARK                         _______ _______ _______ _____ _____    ______ ____
ROOT
ATOM      1  O   UNL     1     144.941 126.806  98.457  0.00  0.00    +0.000 OA
ATOM      2  O   UNL     1     144.267 123.942 101.993  0.00  0.00    +0.000 OA
ATOM      3  N   UNL     1     144.527 124.989  99.898  0.00  0.00    +0.000 N 
ATOM      4  C   UNL     1     145.005 126.224  99.523  0.00  0.00    +0.000 C 
ATOM      5  C   UNL     1     144.740 124.774 101.243  0.00  0.00    +0.000 C 
ATOM      6  C   UNL     1     145.682 126.786 100.686  0.00  0.00    +0.000 A 
ATOM      7  C   UNL     1     145.538 125.894 101.728  0.00  0.00    +0.000 A 
ATOM      8  C   UNL     1     146.351 127.984 100.832  0.00  0.00    +0.000 A 
ATOM      9  C   UNL     1     146.039 126.146 102.987  0.00  0.00    +0.000 A 
ATOM     10  C   UNL     1     146.882 128.256 102.094  0.00  0.00    +0.000 A 
ATOM     11  C   UNL     1     146.728 127.349 103.158  0.00  0.00    +0.000 A 
ENDROOT
BRANCH   3  12
ATOM     12  C   UNL     1     143.820 124.143  99.080  0.00  0.00    +0.000 C 
ATOM     13  C   UNL     1     144.436 123.219  98.206  0.00  0.00    +0.000 C 
ATOM     14  C   UNL     1     143.653 122.425  97.206  0.00  0.00    +0.000 C 
ATOM     15  C   UNL     1     142.226 122.514  97.107  0.00  0.00    +0.000 C 
ATOM     16  O   UNL     1     141.583 121.812  96.345  0.00  0.00    +0.000 OA
ATOM     17  N   UNL     1     141.676 123.428  98.003  0.00  0.00    +0.000 N 
ATOM     18  C   UNL     1     142.295 124.099  99.067  0.00  0.00    +0.000 C 
ATOM     19  H   UNL     1     140.668 123.411  98.049  0.00  0.00    +0.000 HD
ATOM     20  O   UNL     1     141.621 124.509 100.007  0.00  0.00    +0.000 OA
ENDBRANCH   3  12
TORSDOF 1
ENDMDL
MODEL 9
REMARK VINA RESULT:      -6.3      3.219      5.004
REMARK  Name = Thalidomide.pdbqt.pdb
REMARK  1 active torsions:
REMARK  status: ('A' for Active; 'I' for Inactive)
REMARK    1  A    between atoms: N_3  and  C_12
REMARK                            x       y       z     vdW  Elec       q    Type
REMARK                         _______ _______ _______ _____ _____    ______ ____
ROOT
ATOM      1  O   UNL     1     145.304 124.672  98.187  0.00  0.00    +0.000 OA
ATOM      2  O   UNL     1     141.105 122.978  98.999  0.00  0.00    +0.000 OA
ATOM      3  N   UNL     1     143.094 124.235  98.877  0.00  0.00    +0.000 N 
ATOM      4  C   UNL     1     144.218 124.132  98.089  0.00  0.00    +0.000 C 
ATOM      5  C   UNL     1     142.119 123.361  98.448  0.00  0.00    +0.000 C 
ATOM      6  C   UNL     1     143.891 123.215  97.003  0.00  0.00    +0.000 A 
ATOM      7  C   UNL     1     142.605 122.761  97.211  0.00  0.00    +0.000 A 
ATOM      8  C   UNL     1     144.655 122.795  95.935  0.00  0.00    +0.000 A 
ATOM      9  C   UNL     1     142.004 121.845  96.373  0.00  0.00    +0.000 A 
ATOM     10  C   UNL     1     144.063 121.879  95.063  0.00  0.00    +0.000 A 
ATOM     11  C   UNL     1     142.755 121.410  95.279  0.00  0.00    +0.000 A 
ENDROOT
BRANCH   3  12
ATOM     12  C   UNL     1     143.002 125.004 100.011  0.00  0.00    +0.000 C 
ATOM     13  C   UNL     1     142.191 126.157 100.099  0.00  0.00    +0.000 C 
ATOM     14  C   UNL     1     142.233 127.071 101.285  0.00  0.00    +0.000 C 
ATOM     15  C   UNL     1     143.058 126.806 102.426  0.00  0.00    +0.000 C 
ATOM     16  O   UNL     1     143.034 127.510 103.422  0.00  0.00    +0.000 OA
ATOM     17  N   UNL     1     143.821 125.649 102.287  0.00  0.00    +0.000 N 
ATOM     18  C   UNL     1     143.744 124.658 101.298  0.00  0.00    +0.000 C 
ATOM     19  H   UNL     1     144.306 125.367 103.126  0.00  0.00    +0.000 HD
ATOM     20  O   UNL     1     144.149 123.524 101.535  0.00  0.00    +0.000 OA
ENDBRANCH   3  12
TORSDOF 1
ENDMDL
