MODEL 1
REMARK VINA RESULT:      -6.8      0.000      0.000
REMARK  Name = Thapsigargin.pdbqt.pdb
REMARK  10 active torsions:
REMARK  status: ('A' for Active; 'I' for Inactive)
REMARK    1  A    between atoms: O_2  and  C_24
REMARK    2  A    between atoms: C_17  and  O_43
REMARK    3  A    between atoms: C_19  and  C_24
REMARK    4  A    between atoms: C_19  and  O_47
REMARK    5  A    between atoms: C_27  and  C_35
REMARK    6  A    between atoms: C_35  and  C_36
REMARK    7  A    between atoms: C_37  and  C_38
REMARK    8  A    between atoms: C_39  and  C_40
REMARK    9  A    between atoms: C_42  and  O_43
REMARK   10  A    between atoms: C_42  and  C_44
REMARK                            x       y       z     vdW  Elec       q    Type
REMARK                         _______ _______ _______ _____ _____    ______ ____
ROOT
ATOM      1  O   UNL     1     133.231 137.863 135.719  0.00  0.00    +0.000 OA
ATOM      2  O   UNL     1     138.066 134.771 133.779  0.00  0.00    +0.000 OA
ATOM      3  O   UNL     1     137.163 133.308 135.673  0.00  0.00    +0.000 OA
ATOM      4  O   UNL     1     138.092 136.961 137.470  0.00  0.00    +0.000 OA
ATOM      5  O   UNL     1     131.022 138.432 135.574  0.00  0.00    +0.000 OA
ATOM      6  O   UNL     1     136.493 133.000 134.398  0.00  0.00    +0.000 OA
ATOM      7  O   UNL     1     139.164 132.601 136.896  0.00  0.00    +0.000 OA
ATOM      8  O   UNL     1     136.058 137.200 138.887  0.00  0.00    +0.000 OA
ATOM      9  C   UNL     1     136.714 136.876 134.214  0.00  0.00    +0.000 C 
ATOM     10  C   UNL     1     133.555 137.183 133.521  0.00  0.00    +0.000 C 
ATOM     11  C   UNL     1     134.170 137.429 134.791  0.00  0.00    +0.000 C 
ATOM     12  C   UNL     1     136.634 136.525 132.767  0.00  0.00    +0.000 C 
ATOM     13  C   UNL     1     135.487 137.311 135.066  0.00  0.00    +0.000 C 
ATOM     14  C   UNL     1     134.325 136.895 132.523  0.00  0.00    +0.000 C 
ATOM     15  C   UNL     1     135.582 136.642 131.935  0.00  0.00    +0.000 C 
ATOM     16  C   UNL     1     137.855 137.234 135.026  0.00  0.00    +0.000 C 
ATOM     17  C   UNL     1     132.109 137.449 133.615  0.00  0.00    +0.000 C 
ATOM     18  C   UNL     1     137.422 137.461 136.349  0.00  0.00    +0.000 C 
ATOM     19  C   UNL     1     136.084 137.645 136.363  0.00  0.00    +0.000 C 
ATOM     20  C   UNL     1     136.799 135.456 133.769  0.00  0.00    +0.000 C 
ATOM     21  C   UNL     1     132.029 137.957 135.057  0.00  0.00    +0.000 C 
ATOM     22  C   UNL     1     135.617 137.534 137.679  0.00  0.00    +0.000 C 
ATOM     23  C   UNL     1     136.913 133.995 133.424  0.00  0.00    +0.000 C 
ATOM     24  C   UNL     1     138.247 132.444 135.863  0.00  0.00    +0.000 C 
ATOM     25  C   UNL     1     137.282 136.532 138.586  0.00  0.00    +0.000 C 
ATOM     26  C   UNL     1     136.962 133.470 131.983  0.00  0.00    +0.000 C 
ATOM     27  C   UNL     1     137.551 135.348 139.174  0.00  0.00    +0.000 C 
ATOM     28  C   UNL     1     136.715 134.819 140.318  0.00  0.00    +0.000 C 
ATOM     29  C   UNL     1     138.355 134.384 138.501  0.00  0.00    +0.000 C 
ATOM     30  C   UNL     1     138.790 133.538 137.766  0.00  0.00    +0.000 C 
ENDROOT
BRANCH  17  31
ATOM     31  O   UNL     1     131.713 138.421 132.662  0.00  0.00    +0.000 OA
ATOM     32  H   UNL     1     131.655 137.946 131.812  0.00  0.00    +0.000 HD
ENDBRANCH  17  31
BRANCH  17  33
ATOM     33  C   UNL     1     131.335 136.211 133.413  0.00  0.00    +0.000 C 
BRANCH  33  34
ATOM     34  O   UNL     1     130.645 135.083 133.253  0.00  0.00    +0.000 OA
ATOM     35  H   UNL     1     130.566 134.851 132.308  0.00  0.00    +0.000 HD
ENDBRANCH  33  34
ENDBRANCH  17  33
BRANCH  24  36
ATOM     36  C   UNL     1     138.568 131.553 134.973  0.00  0.00    +0.000 C 
BRANCH  36  37
ATOM     37  C   UNL     1     138.961 130.540 133.893  0.00  0.00    +0.000 C 
ATOM     38  C   UNL     1     139.234 129.734 133.047  0.00  0.00    +0.000 C 
BRANCH  38  39
ATOM     39  C   UNL     1     139.556 128.698 131.965  0.00  0.00    +0.000 C 
ATOM     40  C   UNL     1     139.821 127.893 131.115  0.00  0.00    +0.000 C 
BRANCH  40  41
ATOM     41  C   UNL     1     140.168 126.869 130.030  0.00  0.00    +0.000 C 
ATOM     42  C   UNL     1     140.472 125.979 129.087  0.00  0.00    +0.000 C 
ENDBRANCH  40  41
ENDBRANCH  38  39
ENDBRANCH  36  37
ENDBRANCH  24  36
BRANCH  15  43
ATOM     43  O   UNL     1     135.774 136.794 130.557  0.00  0.00    +0.000 OA
BRANCH  43  45
ATOM     44  O   UNL     1     134.490 134.888 130.179  0.00  0.00    +0.000 OA
ATOM     45  C   UNL     1     135.190 135.816 129.799  0.00  0.00    +0.000 C 
BRANCH  45  46
ATOM     46  C   UNL     1     135.493 135.973 128.410  0.00  0.00    +0.000 C 
ATOM     47  C   UNL     1     135.744 136.098 127.246  0.00  0.00    +0.000 C 
ATOM     48  C   UNL     1     136.075 136.269 125.761  0.00  0.00    +0.000 C 
ENDBRANCH  45  46
ENDBRANCH  43  45
ENDBRANCH  15  43
TORSDOF 10
ENDMDL
MODEL 2
REMARK VINA RESULT:      -6.4     16.646     20.746
REMARK  Name = Thapsigargin.pdbqt.pdb
REMARK  10 active torsions:
REMARK  status: ('A' for Active; 'I' for Inactive)
REMARK    1  A    between atoms: O_2  and  C_24
REMARK    2  A    between atoms: C_17  and  O_43
REMARK    3  A    between atoms: C_19  and  C_24
REMARK    4  A    between atoms: C_19  and  O_47
REMARK    5  A    between atoms: C_27  and  C_35
REMARK    6  A    between atoms: C_35  and  C_36
REMARK    7  A    between atoms: C_37  and  C_38
REMARK    8  A    between atoms: C_39  and  C_40
REMARK    9  A    between atoms: C_42  and  O_43
REMARK   10  A    between atoms: C_42  and  C_44
REMARK                            x       y       z     vdW  Elec       q    Type
REMARK                         _______ _______ _______ _____ _____    ______ ____
ROOT
ATOM      1  O   UNL     1     155.499 134.955 122.153  0.00  0.00    +0.000 OA
ATOM      2  O   UNL     1     153.108 131.688 126.660  0.00  0.00    +0.000 OA
ATOM      3  O   UNL     1     155.498 132.123 127.462  0.00  0.00    +0.000 OA
ATOM      4  O   UNL     1     155.922 130.021 123.880  0.00  0.00    +0.000 OA
ATOM      5  O   UNL     1     155.864 136.947 121.093  0.00  0.00    +0.000 OA
ATOM      6  O   UNL     1     154.602 133.232 127.833  0.00  0.00    +0.000 OA
ATOM      7  O   UNL     1     156.221 129.978 128.396  0.00  0.00    +0.000 OA
ATOM      8  O   UNL     1     157.758 131.372 122.877  0.00  0.00    +0.000 OA
ATOM      9  C   UNL     1     153.353 132.425 124.242  0.00  0.00    +0.000 C 
ATOM     10  C   UNL     1     153.561 135.526 123.300  0.00  0.00    +0.000 C 
ATOM     11  C   UNL     1     154.485 134.481 122.975  0.00  0.00    +0.000 C 
ATOM     12  C   UNL     1     152.138 133.055 124.832  0.00  0.00    +0.000 C 
ATOM     13  C   UNL     1     154.383 133.191 123.362  0.00  0.00    +0.000 C 
ATOM     14  C   UNL     1     152.493 135.207 123.955  0.00  0.00    +0.000 C 
ATOM     15  C   UNL     1     151.650 134.292 124.620  0.00  0.00    +0.000 C 
ATOM     16  C   UNL     1     153.673 131.031 124.030  0.00  0.00    +0.000 C 
ATOM     17  C   UNL     1     154.001 136.784 122.670  0.00  0.00    +0.000 C 
ATOM     18  C   UNL     1     154.957 130.938 123.454  0.00  0.00    +0.000 C 
ATOM     19  C   UNL     1     155.314 132.137 122.944  0.00  0.00    +0.000 C 
ATOM     20  C   UNL     1     153.291 132.743 125.696  0.00  0.00    +0.000 C 
ATOM     21  C   UNL     1     155.218 136.276 121.892  0.00  0.00    +0.000 C 
ATOM     22  C   UNL     1     156.690 132.136 122.682  0.00  0.00    +0.000 C 
ATOM     23  C   UNL     1     153.323 133.007 127.179  0.00  0.00    +0.000 C 
ATOM     24  C   UNL     1     155.581 131.205 128.516  0.00  0.00    +0.000 C 
ATOM     25  C   UNL     1     157.298 130.460 123.873  0.00  0.00    +0.000 C 
ATOM     26  C   UNL     1     152.120 133.547 127.965  0.00  0.00    +0.000 C 
ATOM     27  C   UNL     1     158.070 130.214 124.952  0.00  0.00    +0.000 C 
ATOM     28  C   UNL     1     159.505 130.684 125.028  0.00  0.00    +0.000 C 
ATOM     29  C   UNL     1     157.468 129.867 126.196  0.00  0.00    +0.000 C 
ATOM     30  C   UNL     1     156.886 129.863 127.248  0.00  0.00    +0.000 C 
ENDROOT
BRANCH  17  31
ATOM     31  O   UNL     1     152.987 137.309 121.831  0.00  0.00    +0.000 OA
ATOM     32  H   UNL     1     153.455 137.726 121.084  0.00  0.00    +0.000 HD
ENDBRANCH  17  31
BRANCH  17  33
ATOM     33  C   UNL     1     154.367 137.781 123.693  0.00  0.00    +0.000 C 
BRANCH  33  34
ATOM     34  O   UNL     1     154.680 138.672 124.632  0.00  0.00    +0.000 OA
ATOM     35  H   UNL     1     154.075 138.605 125.395  0.00  0.00    +0.000 HD
ENDBRANCH  33  34
ENDBRANCH  17  33
BRANCH  24  36
ATOM     36  C   UNL     1     154.902 131.368 129.611  0.00  0.00    +0.000 C 
BRANCH  36  37
ATOM     37  C   UNL     1     154.098 131.508 130.908  0.00  0.00    +0.000 C 
ATOM     38  C   UNL     1     153.484 131.651 131.930  0.00  0.00    +0.000 C 
BRANCH  38  39
ATOM     39  C   UNL     1     152.712 131.857 133.237  0.00  0.00    +0.000 C 
ATOM     40  C   UNL     1     152.100 132.031 134.255  0.00  0.00    +0.000 C 
BRANCH  40  41
ATOM     41  C   UNL     1     151.315 132.258 135.550  0.00  0.00    +0.000 C 
ATOM     42  C   UNL     1     150.633 132.453 136.678  0.00  0.00    +0.000 C 
ENDBRANCH  40  41
ENDBRANCH  38  39
ENDBRANCH  36  37
ENDBRANCH  24  36
BRANCH  15  43
ATOM     43  O   UNL     1     150.287 134.561 124.786  0.00  0.00    +0.000 OA
BRANCH  43  45
ATOM     44  O   UNL     1     149.019 133.403 123.212  0.00  0.00    +0.000 OA
ATOM     45  C   UNL     1     149.462 133.564 124.341  0.00  0.00    +0.000 C 
BRANCH  45  46
ATOM     46  C   UNL     1     149.124 132.651 125.389  0.00  0.00    +0.000 C 
ATOM     47  C   UNL     1     148.837 131.883 126.261  0.00  0.00    +0.000 C 
ATOM     48  C   UNL     1     148.475 130.912 127.387  0.00  0.00    +0.000 C 
ENDBRANCH  45  46
ENDBRANCH  43  45
ENDBRANCH  15  43
TORSDOF 10
ENDMDL
MODEL 3
REMARK VINA RESULT:      -6.4     14.729     17.645
REMARK  Name = Thapsigargin.pdbqt.pdb
REMARK  10 active torsions:
REMARK  status: ('A' for Active; 'I' for Inactive)
REMARK    1  A    between atoms: O_2  and  C_24
REMARK    2  A    between atoms: C_17  and  O_43
REMARK    3  A    between atoms: C_19  and  C_24
REMARK    4  A    between atoms: C_19  and  O_47
REMARK    5  A    between atoms: C_27  and  C_35
REMARK    6  A    between atoms: C_35  and  C_36
REMARK    7  A    between atoms: C_37  and  C_38
REMARK    8  A    between atoms: C_39  and  C_40
REMARK    9  A    between atoms: C_42  and  O_43
REMARK   10  A    between atoms: C_42  and  C_44
REMARK                            x       y       z     vdW  Elec       q    Type
REMARK                         _______ _______ _______ _____ _____    ______ ____
ROOT
ATOM      1  O   UNL     1     149.562 135.024 125.224  0.00  0.00    +0.000 OA
ATOM      2  O   UNL     1     153.232 134.556 130.022  0.00  0.00    +0.000 OA
ATOM      3  O   UNL     1     151.280 135.945 130.918  0.00  0.00    +0.000 OA
ATOM      4  O   UNL     1     152.864 138.198 127.780  0.00  0.00    +0.000 OA
ATOM      5  O   UNL     1     147.908 134.206 123.876  0.00  0.00    +0.000 OA
ATOM      6  O   UNL     1     151.002 134.503 131.029  0.00  0.00    +0.000 OA
ATOM      7  O   UNL     1     152.348 137.700 132.249  0.00  0.00    +0.000 OA
ATOM      8  O   UNL     1     150.725 138.887 126.706  0.00  0.00    +0.000 OA
ATOM      9  C   UNL     1     152.706 134.673 127.540  0.00  0.00    +0.000 C 
ATOM     10  C   UNL     1     150.310 133.011 126.111  0.00  0.00    +0.000 C 
ATOM     11  C   UNL     1     150.518 134.426 126.036  0.00  0.00    +0.000 C 
ATOM     12  C   UNL     1     152.981 133.258 127.923  0.00  0.00    +0.000 C 
ATOM     13  C   UNL     1     151.526 135.106 126.624  0.00  0.00    +0.000 C 
ATOM     14  C   UNL     1     151.197 132.301 126.727  0.00  0.00    +0.000 C 
ATOM     15  C   UNL     1     152.385 132.139 127.471  0.00  0.00    +0.000 C 
ATOM     16  C   UNL     1     153.563 135.837 127.589  0.00  0.00    +0.000 C 
ATOM     17  C   UNL     1     149.125 132.645 125.314  0.00  0.00    +0.000 C 
ATOM     18  C   UNL     1     152.838 136.958 127.135  0.00  0.00    +0.000 C 
ATOM     19  C   UNL     1     151.743 136.548 126.460  0.00  0.00    +0.000 C 
ATOM     20  C   UNL     1     152.394 134.182 128.912  0.00  0.00    +0.000 C 
ATOM     21  C   UNL     1     148.772 134.014 124.726  0.00  0.00    +0.000 C 
ATOM     22  C   UNL     1     150.864 137.628 126.306  0.00  0.00    +0.000 C 
ATOM     23  C   UNL     1     152.058 133.791 130.327  0.00  0.00    +0.000 C 
ATOM     24  C   UNL     1     151.833 136.417 132.113  0.00  0.00    +0.000 C 
ATOM     25  C   UNL     1     151.635 138.956 127.803  0.00  0.00    +0.000 C 
ATOM     26  C   UNL     1     152.377 132.412 130.919  0.00  0.00    +0.000 C 
ATOM     27  C   UNL     1     151.231 139.514 128.963  0.00  0.00    +0.000 C 
ATOM     28  C   UNL     1     149.933 140.283 129.067  0.00  0.00    +0.000 C 
ATOM     29  C   UNL     1     151.788 139.075 130.198  0.00  0.00    +0.000 C 
ATOM     30  C   UNL     1     152.090 138.465 131.189  0.00  0.00    +0.000 C 
ENDROOT
BRANCH  17  31
ATOM     31  O   UNL     1     149.458 131.687 124.325  0.00  0.00    +0.000 OA
ATOM     32  H   UNL     1     148.712 131.687 123.697  0.00  0.00    +0.000 HD
ENDBRANCH  17  31
BRANCH  17  33
ATOM     33  C   UNL     1     148.056 132.116 126.180  0.00  0.00    +0.000 C 
BRANCH  33  34
ATOM     34  O   UNL     1     147.076 131.634 126.942  0.00  0.00    +0.000 OA
ATOM     35  H   UNL     1     146.320 131.342 126.400  0.00  0.00    +0.000 HD
ENDBRANCH  33  34
ENDBRANCH  17  33
BRANCH  24  36
ATOM     36  C   UNL     1     152.070 135.621 133.112  0.00  0.00    +0.000 C 
BRANCH  36  37
ATOM     37  C   UNL     1     152.299 134.685 134.303  0.00  0.00    +0.000 C 
ATOM     38  C   UNL     1     152.444 133.955 135.245  0.00  0.00    +0.000 C 
BRANCH  38  39
ATOM     39  C   UNL     1     152.601 133.024 136.452  0.00  0.00    +0.000 C 
ATOM     40  C   UNL     1     152.739 132.293 137.394  0.00  0.00    +0.000 C 
BRANCH  40  41
ATOM     41  C   UNL     1     152.923 131.363 138.596  0.00  0.00    +0.000 C 
ATOM     42  C   UNL     1     153.084 130.551 139.641  0.00  0.00    +0.000 C 
ENDBRANCH  40  41
ENDBRANCH  38  39
ENDBRANCH  36  37
ENDBRANCH  24  36
BRANCH  15  43
ATOM     43  O   UNL     1     153.061 130.913 127.487  0.00  0.00    +0.000 OA
BRANCH  43  45
ATOM     44  O   UNL     1     155.372 131.195 127.549  0.00  0.00    +0.000 OA
ATOM     45  C   UNL     1     154.324 130.965 126.963  0.00  0.00    +0.000 C 
BRANCH  45  46
ATOM     46  C   UNL     1     154.322 130.715 125.554  0.00  0.00    +0.000 C 
ATOM     47  C   UNL     1     154.325 130.501 124.377  0.00  0.00    +0.000 C 
ATOM     48  C   UNL     1     154.322 130.241 122.868  0.00  0.00    +0.000 C 
ENDBRANCH  45  46
ENDBRANCH  43  45
ENDBRANCH  15  43
TORSDOF 10
ENDMDL
MODEL 4
REMARK VINA RESULT:      -6.4     29.321     33.696
REMARK  Name = Thapsigargin.pdbqt.pdb
REMARK  10 active torsions:
REMARK  status: ('A' for Active; 'I' for Inactive)
REMARK    1  A    between atoms: O_2  and  C_24
REMARK    2  A    between atoms: C_17  and  O_43
REMARK    3  A    between atoms: C_19  and  C_24
REMARK    4  A    between atoms: C_19  and  O_47
REMARK    5  A    between atoms: C_27  and  C_35
REMARK    6  A    between atoms: C_35  and  C_36
REMARK    7  A    between atoms: C_37  and  C_38
REMARK    8  A    between atoms: C_39  and  C_40
REMARK    9  A    between atoms: C_42  and  O_43
REMARK   10  A    between atoms: C_42  and  C_44
REMARK                            x       y       z     vdW  Elec       q    Type
REMARK                         _______ _______ _______ _____ _____    ______ ____
ROOT
ATOM      1  O   UNL     1     145.190 111.499 114.380  0.00  0.00    +0.000 OA
ATOM      2  O   UNL     1     147.839 114.787 110.037  0.00  0.00    +0.000 OA
ATOM      3  O   UNL     1     149.377 112.754 110.245  0.00  0.00    +0.000 OA
ATOM      4  O   UNL     1     149.438 114.552 114.013  0.00  0.00    +0.000 OA
ATOM      5  O   UNL     1     143.645 109.964 115.076  0.00  0.00    +0.000 OA
ATOM      6  O   UNL     1     148.263 112.486 109.319  0.00  0.00    +0.000 OA
ATOM      7  O   UNL     1     151.636 113.694 110.150  0.00  0.00    +0.000 OA
ATOM      8  O   UNL     1     149.243 112.495 115.404  0.00  0.00    +0.000 OA
ATOM      9  C   UNL     1     146.444 114.456 112.133  0.00  0.00    +0.000 C 
ATOM     10  C   UNL     1     144.128 112.198 112.436  0.00  0.00    +0.000 C 
ATOM     11  C   UNL     1     145.237 112.395 113.320  0.00  0.00    +0.000 C 
ATOM     12  C   UNL     1     145.543 114.716 110.973  0.00  0.00    +0.000 C 
ATOM     13  C   UNL     1     146.189 113.345 113.192  0.00  0.00    +0.000 C 
ATOM     14  C   UNL     1     143.968 113.043 111.471  0.00  0.00    +0.000 C 
ATOM     15  C   UNL     1     144.341 114.171 110.710  0.00  0.00    +0.000 C 
ATOM     16  C   UNL     1     147.459 115.292 112.733  0.00  0.00    +0.000 C 
ATOM     17  C   UNL     1     143.299 111.084 112.928  0.00  0.00    +0.000 C 
ATOM     18  C   UNL     1     148.056 114.592 113.801  0.00  0.00    +0.000 C 
ATOM     19  C   UNL     1     147.268 113.557 114.163  0.00  0.00    +0.000 C 
ATOM     20  C   UNL     1     146.837 114.042 110.756  0.00  0.00    +0.000 C 
ATOM     21  C   UNL     1     144.037 110.762 114.230  0.00  0.00    +0.000 C 
ATOM     22  C   UNL     1     147.999 112.681 114.975  0.00  0.00    +0.000 C 
ATOM     23  C   UNL     1     147.335 113.602 109.405  0.00  0.00    +0.000 C 
ATOM     24  C   UNL     1     150.492 113.207 109.531  0.00  0.00    +0.000 C 
ATOM     25  C   UNL     1     149.994 113.315 114.511  0.00  0.00    +0.000 C 
ATOM     26  C   UNL     1     146.588 113.890 108.096  0.00  0.00    +0.000 C 
ATOM     27  C   UNL     1     151.105 112.816 113.929  0.00  0.00    +0.000 C 
ATOM     28  C   UNL     1     151.713 111.504 114.372  0.00  0.00    +0.000 C 
ATOM     29  C   UNL     1     151.508 113.279 112.644  0.00  0.00    +0.000 C 
ATOM     30  C   UNL     1     151.615 113.510 111.469  0.00  0.00    +0.000 C 
ENDROOT
BRANCH  17  31
ATOM     31  O   UNL     1     141.962 111.505 113.139  0.00  0.00    +0.000 OA
ATOM     32  H   UNL     1     142.014 112.219 113.802  0.00  0.00    +0.000 HD
ENDBRANCH  17  31
BRANCH  17  33
ATOM     33  C   UNL     1     143.321 109.957 111.978  0.00  0.00    +0.000 C 
BRANCH  33  34
ATOM     34  O   UNL     1     143.320 108.930 111.130  0.00  0.00    +0.000 OA
ATOM     35  H   UNL     1     142.850 109.156 110.306  0.00  0.00    +0.000 HD
ENDBRANCH  33  34
ENDBRANCH  17  33
BRANCH  24  36
ATOM     36  C   UNL     1     150.450 113.374 108.243  0.00  0.00    +0.000 C 
BRANCH  36  37
ATOM     37  C   UNL     1     150.350 113.573 106.727  0.00  0.00    +0.000 C 
ATOM     38  C   UNL     1     150.274 113.693 105.535  0.00  0.00    +0.000 C 
BRANCH  38  39
ATOM     39  C   UNL     1     150.179 113.819 104.011  0.00  0.00    +0.000 C 
ATOM     40  C   UNL     1     150.095 113.906 102.817  0.00  0.00    +0.000 C 
BRANCH  40  41
ATOM     41  C   UNL     1     149.981 114.011 101.293  0.00  0.00    +0.000 C 
ATOM     42  C   UNL     1     149.885 114.104  99.967  0.00  0.00    +0.000 C 
ENDBRANCH  40  41
ENDBRANCH  38  39
ENDBRANCH  36  37
ENDBRANCH  24  36
BRANCH  15  43
ATOM     43  O   UNL     1     143.399 114.858 109.935  0.00  0.00    +0.000 OA
BRANCH  43  45
ATOM     44  O   UNL     1     141.353 114.717 111.040  0.00  0.00    +0.000 OA
ATOM     45  C   UNL     1     142.332 115.336 110.646  0.00  0.00    +0.000 C 
BRANCH  45  46
ATOM     46  C   UNL     1     142.457 116.736 110.911  0.00  0.00    +0.000 C 
ATOM     47  C   UNL     1     142.559 117.907 111.137  0.00  0.00    +0.000 C 
ATOM     48  C   UNL     1     142.693 119.407 111.412  0.00  0.00    +0.000 C 
ENDBRANCH  45  46
ENDBRANCH  43  45
ENDBRANCH  15  43
TORSDOF 10
ENDMDL
MODEL 5
REMARK VINA RESULT:      -6.4     17.265     21.635
REMARK  Name = Thapsigargin.pdbqt.pdb
REMARK  10 active torsions:
REMARK  status: ('A' for Active; 'I' for Inactive)
REMARK    1  A    between atoms: O_2  and  C_24
REMARK    2  A    between atoms: C_17  and  O_43
REMARK    3  A    between atoms: C_19  and  C_24
REMARK    4  A    between atoms: C_19  and  O_47
REMARK    5  A    between atoms: C_27  and  C_35
REMARK    6  A    between atoms: C_35  and  C_36
REMARK    7  A    between atoms: C_37  and  C_38
REMARK    8  A    between atoms: C_39  and  C_40
REMARK    9  A    between atoms: C_42  and  O_43
REMARK   10  A    between atoms: C_42  and  C_44
REMARK                            x       y       z     vdW  Elec       q    Type
REMARK                         _______ _______ _______ _____ _____    ______ ____
ROOT
ATOM      1  O   UNL     1     156.068 134.077 122.004  0.00  0.00    +0.000 OA
ATOM      2  O   UNL     1     153.767 130.303 126.147  0.00  0.00    +0.000 OA
ATOM      3  O   UNL     1     156.255 130.365 126.737  0.00  0.00    +0.000 OA
ATOM      4  O   UNL     1     156.103 128.898 122.831  0.00  0.00    +0.000 OA
ATOM      5  O   UNL     1     156.550 136.182 121.254  0.00  0.00    +0.000 OA
ATOM      6  O   UNL     1     155.527 131.470 127.385  0.00  0.00    +0.000 OA
ATOM      7  O   UNL     1     156.821 128.032 127.216  0.00  0.00    +0.000 OA
ATOM      8  O   UNL     1     157.974 130.228 121.867  0.00  0.00    +0.000 OA
ATOM      9  C   UNL     1     153.862 131.428 123.872  0.00  0.00    +0.000 C 
ATOM     10  C   UNL     1     154.323 134.615 123.440  0.00  0.00    +0.000 C 
ATOM     11  C   UNL     1     155.090 133.562 122.845  0.00  0.00    +0.000 C 
ATOM     12  C   UNL     1     152.785 132.055 124.691  0.00  0.00    +0.000 C 
ATOM     13  C   UNL     1     154.883 132.239 123.022  0.00  0.00    +0.000 C 
ATOM     14  C   UNL     1     153.293 134.286 124.149  0.00  0.00    +0.000 C 
ATOM     15  C   UNL     1     152.420 133.350 124.743  0.00  0.00    +0.000 C 
ATOM     16  C   UNL     1     154.004 130.071 123.398  0.00  0.00    +0.000 C 
ATOM     17  C   UNL     1     154.838 135.918 122.982  0.00  0.00    +0.000 C 
ATOM     18  C   UNL     1     155.209 129.962 122.674  0.00  0.00    +0.000 C 
ATOM     19  C   UNL     1     155.647 131.193 122.333  0.00  0.00    +0.000 C 
ATOM     20  C   UNL     1     153.974 131.490 125.357  0.00  0.00    +0.000 C 
ATOM     21  C   UNL     1     155.912 135.444 121.999  0.00  0.00    +0.000 C 
ATOM     22  C   UNL     1     156.983 131.110 121.922  0.00  0.00    +0.000 C 
ATOM     23  C   UNL     1     154.175 131.484 126.850  0.00  0.00    +0.000 C 
ATOM     24  C   UNL     1     156.335 129.273 127.608  0.00  0.00    +0.000 C 
ATOM     25  C   UNL     1     157.512 129.201 122.743  0.00  0.00    +0.000 C 
ATOM     26  C   UNL     1     153.119 131.986 127.844  0.00  0.00    +0.000 C 
ATOM     27  C   UNL     1     158.350 128.698 123.673  0.00  0.00    +0.000 C 
ATOM     28  C   UNL     1     159.829 129.012 123.664  0.00  0.00    +0.000 C 
ATOM     29  C   UNL     1     157.835 128.195 124.901  0.00  0.00    +0.000 C 
ATOM     30  C   UNL     1     157.357 128.060 125.997  0.00  0.00    +0.000 C 
ENDROOT
BRANCH  17  31
ATOM     31  O   UNL     1     153.814 136.674 122.361  0.00  0.00    +0.000 OA
ATOM     32  H   UNL     1     153.314 136.040 121.813  0.00  0.00    +0.000 HD
ENDBRANCH  17  31
BRANCH  17  33
ATOM     33  C   UNL     1     155.407 136.680 124.108  0.00  0.00    +0.000 C 
BRANCH  33  34
ATOM     34  O   UNL     1     155.943 137.369 125.114  0.00  0.00    +0.000 OA
ATOM     35  H   UNL     1     155.252 137.713 125.711  0.00  0.00    +0.000 HD
ENDBRANCH  33  34
ENDBRANCH  17  33
BRANCH  24  36
ATOM     36  C   UNL     1     155.785 129.302 128.784  0.00  0.00    +0.000 C 
BRANCH  36  37
ATOM     37  C   UNL     1     155.108 129.375 130.157  0.00  0.00    +0.000 C 
ATOM     38  C   UNL     1     154.552 129.455 131.218  0.00  0.00    +0.000 C 
BRANCH  38  39
ATOM     39  C   UNL     1     153.823 129.572 132.560  0.00  0.00    +0.000 C 
ATOM     40  C   UNL     1     153.240 129.657 133.606  0.00  0.00    +0.000 C 
BRANCH  40  41
ATOM     41  C   UNL     1     152.490 129.761 134.937  0.00  0.00    +0.000 C 
ATOM     42  C   UNL     1     151.840 129.853 136.097  0.00  0.00    +0.000 C 
ENDBRANCH  40  41
ENDBRANCH  38  39
ENDBRANCH  36  37
ENDBRANCH  24  36
BRANCH  15  43
ATOM     43  O   UNL     1     151.117 133.711 125.104  0.00  0.00    +0.000 OA
BRANCH  43  45
ATOM     44  O   UNL     1     149.477 132.784 123.733  0.00  0.00    +0.000 OA
ATOM     45  C   UNL     1     150.225 133.693 124.067  0.00  0.00    +0.000 C 
BRANCH  45  46
ATOM     46  C   UNL     1     150.241 134.922 123.334  0.00  0.00    +0.000 C 
ATOM     47  C   UNL     1     150.250 135.948 122.718  0.00  0.00    +0.000 C 
ATOM     48  C   UNL     1     150.274 137.264 121.937  0.00  0.00    +0.000 C 
ENDBRANCH  45  46
ENDBRANCH  43  45
ENDBRANCH  15  43
TORSDOF 10
ENDMDL
MODEL 6
REMARK VINA RESULT:      -6.3     30.319     35.416
REMARK  Name = Thapsigargin.pdbqt.pdb
REMARK  10 active torsions:
REMARK  status: ('A' for Active; 'I' for Inactive)
REMARK    1  A    between atoms: O_2  and  C_24
REMARK    2  A    between atoms: C_17  and  O_43
REMARK    3  A    between atoms: C_19  and  C_24
REMARK    4  A    between atoms: C_19  and  O_47
REMARK    5  A    between atoms: C_27  and  C_35
REMARK    6  A    between atoms: C_35  and  C_36
REMARK    7  A    between atoms: C_37  and  C_38
REMARK    8  A    between atoms: C_39  and  C_40
REMARK    9  A    between atoms: C_42  and  O_43
REMARK   10  A    between atoms: C_42  and  C_44
REMARK                            x       y       z     vdW  Elec       q    Type
REMARK                         _______ _______ _______ _____ _____    ______ ____
ROOT
ATOM      1  O   UNL     1     145.112 111.255 105.896  0.00  0.00    +0.000 OA
ATOM      2  O   UNL     1     147.828 115.063 109.747  0.00  0.00    +0.000 OA
ATOM      3  O   UNL     1     146.055 113.932 111.202  0.00  0.00    +0.000 OA
ATOM      4  O   UNL     1     143.913 115.830 108.163  0.00  0.00    +0.000 OA
ATOM      5  O   UNL     1     144.993 109.250 104.804  0.00  0.00    +0.000 OA
ATOM      6  O   UNL     1     147.295 113.138 111.162  0.00  0.00    +0.000 OA
ATOM      7  O   UNL     1     145.107 115.759 112.528  0.00  0.00    +0.000 OA
ATOM      8  O   UNL     1     142.306 113.999 107.647  0.00  0.00    +0.000 OA
ATOM      9  C   UNL     1     147.023 114.299 107.462  0.00  0.00    +0.000 C 
ATOM     10  C   UNL     1     147.396 111.281 106.321  0.00  0.00    +0.000 C 
ATOM     11  C   UNL     1     146.163 112.005 106.407  0.00  0.00    +0.000 C 
ATOM     12  C   UNL     1     148.490 114.056 107.578  0.00  0.00    +0.000 C 
ATOM     13  C   UNL     1     146.021 113.265 106.872  0.00  0.00    +0.000 C 
ATOM     14  C   UNL     1     148.484 111.900 106.640  0.00  0.00    +0.000 C 
ATOM     15  C   UNL     1     149.207 113.021 107.101  0.00  0.00    +0.000 C 
ATOM     16  C   UNL     1     146.275 115.535 107.503  0.00  0.00    +0.000 C 
ATOM     17  C   UNL     1     147.145 109.952 105.733  0.00  0.00    +0.000 C 
ATOM     18  C   UNL     1     144.902 115.244 107.367  0.00  0.00    +0.000 C 
ATOM     19  C   UNL     1     144.749 113.997 106.874  0.00  0.00    +0.000 C 
ATOM     20  C   UNL     1     147.643 114.006 108.785  0.00  0.00    +0.000 C 
ATOM     21  C   UNL     1     145.650 110.079 105.428  0.00  0.00    +0.000 C 
ATOM     22  C   UNL     1     143.421 113.589 107.053  0.00  0.00    +0.000 C 
ATOM     23  C   UNL     1     148.173 113.736 110.169  0.00  0.00    +0.000 C 
ATOM     24  C   UNL     1     146.067 114.777 112.317  0.00  0.00    +0.000 C 
ATOM     25  C   UNL     1     142.791 115.002 108.538  0.00  0.00    +0.000 C 
ATOM     26  C   UNL     1     149.666 113.576 110.484  0.00  0.00    +0.000 C 
ATOM     27  C   UNL     1     142.379 115.001 109.823  0.00  0.00    +0.000 C 
ATOM     28  C   UNL     1     141.239 114.124 110.292  0.00  0.00    +0.000 C 
ATOM     29  C   UNL     1     143.231 115.505 110.847  0.00  0.00    +0.000 C 
ATOM     30  C   UNL     1     144.099 115.677 111.661  0.00  0.00    +0.000 C 
ENDROOT
BRANCH  17  31
ATOM     31  O   UNL     1     147.933 109.757 104.572  0.00  0.00    +0.000 OA
ATOM     32  H   UNL     1     147.849 108.810 104.354  0.00  0.00    +0.000 HD
ENDBRANCH  17  31
BRANCH  17  33
ATOM     33  C   UNL     1     147.428 108.887 106.712  0.00  0.00    +0.000 C 
BRANCH  33  34
ATOM     34  O   UNL     1     147.669 107.935 107.612  0.00  0.00    +0.000 OA
ATOM     35  H   UNL     1     147.079 107.170 107.482  0.00  0.00    +0.000 HD
ENDBRANCH  33  34
ENDBRANCH  17  33
BRANCH  24  36
ATOM     36  C   UNL     1     147.083 114.819 113.126  0.00  0.00    +0.000 C 
BRANCH  36  37
ATOM     37  C   UNL     1     148.249 114.869 114.118  0.00  0.00    +0.000 C 
ATOM     38  C   UNL     1     149.142 114.892 114.921  0.00  0.00    +0.000 C 
BRANCH  38  39
ATOM     39  C   UNL     1     150.264 114.908 115.963  0.00  0.00    +0.000 C 
ATOM     40  C   UNL     1     151.139 114.933 116.785  0.00  0.00    +0.000 C 
BRANCH  40  41
ATOM     41  C   UNL     1     152.250 114.971 117.838  0.00  0.00    +0.000 C 
ATOM     42  C   UNL     1     153.216 115.006 118.756  0.00  0.00    +0.000 C 
ENDBRANCH  40  41
ENDBRANCH  38  39
ENDBRANCH  36  37
ENDBRANCH  24  36
BRANCH  15  43
ATOM     43  O   UNL     1     150.567 113.170 106.807  0.00  0.00    +0.000 OA
BRANCH  43  45
ATOM     44  O   UNL     1     151.793 112.541 104.929  0.00  0.00    +0.000 OA
ATOM     45  C   UNL     1     150.860 113.116 105.472  0.00  0.00    +0.000 C 
BRANCH  45  46
ATOM     46  C   UNL     1     149.912 113.852 104.693  0.00  0.00    +0.000 C 
ATOM     47  C   UNL     1     149.115 114.470 104.047  0.00  0.00    +0.000 C 
ATOM     48  C   UNL     1     148.103 115.253 103.208  0.00  0.00    +0.000 C 
ENDBRANCH  45  46
ENDBRANCH  43  45
ENDBRANCH  15  43
TORSDOF 10
ENDMDL
MODEL 7
REMARK VINA RESULT:      -6.2     29.082     34.578
REMARK  Name = Thapsigargin.pdbqt.pdb
REMARK  10 active torsions:
REMARK  status: ('A' for Active; 'I' for Inactive)
REMARK    1  A    between atoms: O_2  and  C_24
REMARK    2  A    between atoms: C_17  and  O_43
REMARK    3  A    between atoms: C_19  and  C_24
REMARK    4  A    between atoms: C_19  and  O_47
REMARK    5  A    between atoms: C_27  and  C_35
REMARK    6  A    between atoms: C_35  and  C_36
REMARK    7  A    between atoms: C_37  and  C_38
REMARK    8  A    between atoms: C_39  and  C_40
REMARK    9  A    between atoms: C_42  and  O_43
REMARK   10  A    between atoms: C_42  and  C_44
REMARK                            x       y       z     vdW  Elec       q    Type
REMARK                         _______ _______ _______ _____ _____    ______ ____
ROOT
ATOM      1  O   UNL     1     139.075 115.193 110.614  0.00  0.00    +0.000 OA
ATOM      2  O   UNL     1     143.429 112.384 107.474  0.00  0.00    +0.000 OA
ATOM      3  O   UNL     1     142.387 113.954 105.745  0.00  0.00    +0.000 OA
ATOM      4  O   UNL     1     139.274 111.447 106.948  0.00  0.00    +0.000 OA
ATOM      5  O   UNL     1     138.367 116.844 112.026  0.00  0.00    +0.000 OA
ATOM      6  O   UNL     1     143.434 114.639 106.523  0.00  0.00    +0.000 OA
ATOM      7  O   UNL     1     142.226 112.595 103.715  0.00  0.00    +0.000 OA
ATOM      8  O   UNL     1     137.485 113.165 107.174  0.00  0.00    +0.000 OA
ATOM      9  C   UNL     1     141.670 112.565 109.297  0.00  0.00    +0.000 C 
ATOM     10  C   UNL     1     141.315 115.152 111.229  0.00  0.00    +0.000 C 
ATOM     11  C   UNL     1     140.291 114.545 110.433  0.00  0.00    +0.000 C 
ATOM     12  C   UNL     1     143.024 112.748 109.894  0.00  0.00    +0.000 C 
ATOM     13  C   UNL     1     140.445 113.462 109.641  0.00  0.00    +0.000 C 
ATOM     14  C   UNL     1     142.473 114.579 111.263  0.00  0.00    +0.000 C 
ATOM     15  C   UNL     1     143.395 113.579 110.886  0.00  0.00    +0.000 C 
ATOM     16  C   UNL     1     141.095 111.427 108.616  0.00  0.00    +0.000 C 
ATOM     17  C   UNL     1     140.749 116.292 111.973  0.00  0.00    +0.000 C 
ATOM     18  C   UNL     1     139.782 111.747 108.216  0.00  0.00    +0.000 C 
ATOM     19  C   UNL     1     139.350 112.828 108.899  0.00  0.00    +0.000 C 
ATOM     20  C   UNL     1     142.779 113.160 108.499  0.00  0.00    +0.000 C 
ATOM     21  C   UNL     1     139.281 116.173 111.557  0.00  0.00    +0.000 C 
ATOM     22  C   UNL     1     138.205 113.342 108.276  0.00  0.00    +0.000 C 
ATOM     23  C   UNL     1     143.835 113.753 107.604  0.00  0.00    +0.000 C 
ATOM     24  C   UNL     1     142.935 113.432 104.568  0.00  0.00    +0.000 C 
ATOM     25  C   UNL     1     138.372 112.406 106.354  0.00  0.00    +0.000 C 
ATOM     26  C   UNL     1     145.304 113.907 108.020  0.00  0.00    +0.000 C 
ATOM     27  C   UNL     1     138.555 112.767 105.067  0.00  0.00    +0.000 C 
ATOM     28  C   UNL     1     137.674 113.798 104.397  0.00  0.00    +0.000 C 
ATOM     29  C   UNL     1     139.796 112.503 104.421  0.00  0.00    +0.000 C 
ATOM     30  C   UNL     1     140.940 112.502 104.049  0.00  0.00    +0.000 C 
ENDROOT
BRANCH  17  31
ATOM     31  O   UNL     1     140.945 116.131 113.367  0.00  0.00    +0.000 OA
ATOM     32  H   UNL     1     140.304 115.450 113.645  0.00  0.00    +0.000 HD
ENDBRANCH  17  31
BRANCH  17  33
ATOM     33  C   UNL     1     141.356 117.559 111.528  0.00  0.00    +0.000 C 
BRANCH  33  34
ATOM     34  O   UNL     1     141.914 118.693 111.106  0.00  0.00    +0.000 OA
ATOM     35  H   UNL     1     142.337 118.574 110.235  0.00  0.00    +0.000 HD
ENDBRANCH  33  34
ENDBRANCH  17  33
BRANCH  24  36
ATOM     36  C   UNL     1     144.201 113.547 104.299  0.00  0.00    +0.000 C 
BRANCH  36  37
ATOM     37  C   UNL     1     145.703 113.684 104.031  0.00  0.00    +0.000 C 
ATOM     38  C   UNL     1     146.886 113.761 103.842  0.00  0.00    +0.000 C 
BRANCH  38  39
ATOM     39  C   UNL     1     148.399 113.837 103.615  0.00  0.00    +0.000 C 
ATOM     40  C   UNL     1     149.582 113.896 103.422  0.00  0.00    +0.000 C 
BRANCH  40  41
ATOM     41  C   UNL     1     151.091 113.975 103.168  0.00  0.00    +0.000 C 
ATOM     42  C   UNL     1     152.403 114.042 102.950  0.00  0.00    +0.000 C 
ENDBRANCH  40  41
ENDBRANCH  38  39
ENDBRANCH  36  37
ENDBRANCH  24  36
BRANCH  15  43
ATOM     43  O   UNL     1     144.502 113.283 111.689  0.00  0.00    +0.000 OA
BRANCH  43  45
ATOM     44  O   UNL     1     144.846 115.233 112.916  0.00  0.00    +0.000 OA
ATOM     45  C   UNL     1     145.198 114.384 112.109  0.00  0.00    +0.000 C 
BRANCH  45  46
ATOM     46  C   UNL     1     146.476 114.476 111.472  0.00  0.00    +0.000 C 
ATOM     47  C   UNL     1     147.547 114.548 110.943  0.00  0.00    +0.000 C 
ATOM     48  C   UNL     1     148.913 114.654 110.260  0.00  0.00    +0.000 C 
ENDBRANCH  45  46
ENDBRANCH  43  45
ENDBRANCH  15  43
TORSDOF 10
ENDMDL
MODEL 8
REMARK VINA RESULT:      -6.2     15.619     18.851
REMARK  Name = Thapsigargin.pdbqt.pdb
REMARK  10 active torsions:
REMARK  status: ('A' for Active; 'I' for Inactive)
REMARK    1  A    between atoms: O_2  and  C_24
REMARK    2  A    between atoms: C_17  and  O_43
REMARK    3  A    between atoms: C_19  and  C_24
REMARK    4  A    between atoms: C_19  and  O_47
REMARK    5  A    between atoms: C_27  and  C_35
REMARK    6  A    between atoms: C_35  and  C_36
REMARK    7  A    between atoms: C_37  and  C_38
REMARK    8  A    between atoms: C_39  and  C_40
REMARK    9  A    between atoms: C_42  and  O_43
REMARK   10  A    between atoms: C_42  and  C_44
REMARK                            x       y       z     vdW  Elec       q    Type
REMARK                         _______ _______ _______ _____ _____    ______ ____
ROOT
ATOM      1  O   UNL     1     149.597 140.153 126.233  0.00  0.00    +0.000 OA
ATOM      2  O   UNL     1     151.530 135.563 122.784  0.00  0.00    +0.000 OA
ATOM      3  O   UNL     1     153.706 136.637 123.594  0.00  0.00    +0.000 OA
ATOM      4  O   UNL     1     151.737 139.644 121.471  0.00  0.00    +0.000 OA
ATOM      5  O   UNL     1     148.851 140.992 128.224  0.00  0.00    +0.000 OA
ATOM      6  O   UNL     1     153.204 135.652 124.568  0.00  0.00    +0.000 OA
ATOM      7  O   UNL     1     155.141 136.664 121.610  0.00  0.00    +0.000 OA
ATOM      8  O   UNL     1     152.135 141.529 123.049  0.00  0.00    +0.000 OA
ATOM      9  C   UNL     1     149.899 137.383 123.476  0.00  0.00    +0.000 C 
ATOM     10  C   UNL     1     148.986 137.934 126.544  0.00  0.00    +0.000 C 
ATOM     11  C   UNL     1     149.532 138.900 125.638  0.00  0.00    +0.000 C 
ATOM     12  C   UNL     1     149.390 136.059 123.936  0.00  0.00    +0.000 C 
ATOM     13  C   UNL     1     149.898 138.663 124.359  0.00  0.00    +0.000 C 
ATOM     14  C   UNL     1     148.746 136.748 126.090  0.00  0.00    +0.000 C 
ATOM     15  C   UNL     1     148.744 135.762 125.079  0.00  0.00    +0.000 C 
ATOM     16  C   UNL     1     150.148 137.874 122.139  0.00  0.00    +0.000 C 
ATOM     17  C   UNL     1     148.688 138.583 127.834  0.00  0.00    +0.000 C 
ATOM     18  C   UNL     1     150.647 139.190 122.221  0.00  0.00    +0.000 C 
ATOM     19  C   UNL     1     150.384 139.700 123.443  0.00  0.00    +0.000 C 
ATOM     20  C   UNL     1     150.843 136.284 123.826  0.00  0.00    +0.000 C 
ATOM     21  C   UNL     1     149.050 140.029 127.489  0.00  0.00    +0.000 C 
ATOM     22  C   UNL     1     151.157 140.852 123.639  0.00  0.00    +0.000 C 
ATOM     23  C   UNL     1     151.880 135.236 124.136  0.00  0.00    +0.000 C 
ATOM     24  C   UNL     1     154.624 136.028 122.732  0.00  0.00    +0.000 C 
ATOM     25  C   UNL     1     152.634 140.578 122.109  0.00  0.00    +0.000 C 
ATOM     26  C   UNL     1     151.529 133.790 124.514  0.00  0.00    +0.000 C 
ATOM     27  C   UNL     1     153.965 140.377 122.013  0.00  0.00    +0.000 C 
ATOM     28  C   UNL     1     154.958 141.292 122.694  0.00  0.00    +0.000 C 
ATOM     29  C   UNL     1     154.469 139.105 121.620  0.00  0.00    +0.000 C 
ATOM     30  C   UNL     1     154.807 137.953 121.560  0.00  0.00    +0.000 C 
ENDROOT
BRANCH  17  31
ATOM     31  O   UNL     1     147.323 138.419 128.176  0.00  0.00    +0.000 OA
ATOM     32  H   UNL     1     146.819 138.812 127.439  0.00  0.00    +0.000 HD
ENDBRANCH  17  31
BRANCH  17  33
ATOM     33  C   UNL     1     149.540 138.032 128.904  0.00  0.00    +0.000 C 
BRANCH  33  34
ATOM     34  O   UNL     1     150.328 137.543 129.859  0.00  0.00    +0.000 OA
ATOM     35  H   UNL     1     151.057 138.160 130.063  0.00  0.00    +0.000 HD
ENDBRANCH  33  34
ENDBRANCH  17  33
BRANCH  24  36
ATOM     36  C   UNL     1     154.905 134.762 122.824  0.00  0.00    +0.000 C 
BRANCH  36  37
ATOM     37  C   UNL     1     155.187 133.260 122.928  0.00  0.00    +0.000 C 
ATOM     38  C   UNL     1     155.392 132.083 123.042  0.00  0.00    +0.000 C 
BRANCH  38  39
ATOM     39  C   UNL     1     155.639 130.580 123.211  0.00  0.00    +0.000 C 
ATOM     40  C   UNL     1     155.846 129.406 123.350  0.00  0.00    +0.000 C 
BRANCH  40  41
ATOM     41  C   UNL     1     156.115 127.909 123.533  0.00  0.00    +0.000 C 
ATOM     42  C   UNL     1     156.352 126.608 123.693  0.00  0.00    +0.000 C 
ENDBRANCH  40  41
ENDBRANCH  38  39
ENDBRANCH  36  37
ENDBRANCH  24  36
BRANCH  15  43
ATOM     43  O   UNL     1     147.878 134.665 125.148  0.00  0.00    +0.000 OA
BRANCH  43  45
ATOM     44  O   UNL     1     148.708 133.279 123.470  0.00  0.00    +0.000 OA
ATOM     45  C   UNL     1     148.398 133.510 124.630  0.00  0.00    +0.000 C 
BRANCH  45  46
ATOM     46  C   UNL     1     148.557 132.505 125.636  0.00  0.00    +0.000 C 
ATOM     47  C   UNL     1     148.684 131.662 126.476  0.00  0.00    +0.000 C 
ATOM     48  C   UNL     1     148.859 130.592 127.556  0.00  0.00    +0.000 C 
ENDBRANCH  45  46
ENDBRANCH  43  45
ENDBRANCH  15  43
TORSDOF 10
ENDMDL
MODEL 9
REMARK VINA RESULT:      -6.1     12.388     16.557
REMARK  Name = Thapsigargin.pdbqt.pdb
REMARK  10 active torsions:
REMARK  status: ('A' for Active; 'I' for Inactive)
REMARK    1  A    between atoms: O_2  and  C_24
REMARK    2  A    between atoms: C_17  and  O_43
REMARK    3  A    between atoms: C_19  and  C_24
REMARK    4  A    between atoms: C_19  and  O_47
REMARK    5  A    between atoms: C_27  and  C_35
REMARK    6  A    between atoms: C_35  and  C_36
REMARK    7  A    between atoms: C_37  and  C_38
REMARK    8  A    between atoms: C_39  and  C_40
REMARK    9  A    between atoms: C_42  and  O_43
REMARK   10  A    between atoms: C_42  and  C_44
REMARK                            x       y       z     vdW  Elec       q    Type
REMARK                         _______ _______ _______ _____ _____    ______ ____
ROOT
ATOM      1  O   UNL     1     132.456 117.697 135.509  0.00  0.00    +0.000 OA
ATOM      2  O   UNL     1     134.151 122.755 138.381  0.00  0.00    +0.000 OA
ATOM      3  O   UNL     1     132.625 121.605 140.082  0.00  0.00    +0.000 OA
ATOM      4  O   UNL     1     130.214 122.276 136.740  0.00  0.00    +0.000 OA
ATOM      5  O   UNL     1     132.814 115.527 134.885  0.00  0.00    +0.000 OA
ATOM      6  O   UNL     1     134.010 121.115 140.193  0.00  0.00    +0.000 OA
ATOM      7  O   UNL     1     131.259 123.421 140.993  0.00  0.00    +0.000 OA
ATOM      8  O   UNL     1     129.064 120.068 136.668  0.00  0.00    +0.000 OA
ATOM      9  C   UNL     1     133.604 121.354 136.334  0.00  0.00    +0.000 C 
ATOM     10  C   UNL     1     134.664 118.318 135.875  0.00  0.00    +0.000 C 
ATOM     11  C   UNL     1     133.301 118.754 135.823  0.00  0.00    +0.000 C 
ATOM     12  C   UNL     1     135.084 121.472 136.474  0.00  0.00    +0.000 C 
ATOM     13  C   UNL     1     132.871 120.022 136.004  0.00  0.00    +0.000 C 
ATOM     14  C   UNL     1     135.580 119.217 136.031  0.00  0.00    +0.000 C 
ATOM     15  C   UNL     1     136.025 120.543 136.221  0.00  0.00    +0.000 C 
ATOM     16  C   UNL     1     132.602 122.373 136.117  0.00  0.00    +0.000 C 
ATOM     17  C   UNL     1     134.729 116.872 135.598  0.00  0.00    +0.000 C 
ATOM     18  C   UNL     1     131.331 121.764 136.074  0.00  0.00    +0.000 C 
ATOM     19  C   UNL     1     131.471 120.437 135.869  0.00  0.00    +0.000 C 
ATOM     20  C   UNL     1     134.232 121.500 137.678  0.00  0.00    +0.000 C 
ATOM     21  C   UNL     1     133.253 116.596 135.299  0.00  0.00    +0.000 C 
ATOM     22  C   UNL     1     130.259 119.795 136.158  0.00  0.00    +0.000 C 
ATOM     23  C   UNL     1     134.766 121.662 139.077  0.00  0.00    +0.000 C 
ATOM     24  C   UNL     1     132.418 122.654 140.984  0.00  0.00    +0.000 C 
ATOM     25  C   UNL     1     129.290 121.322 137.309  0.00  0.00    +0.000 C 
ATOM     26  C   UNL     1     136.247 121.907 139.392  0.00  0.00    +0.000 C 
ATOM     27  C   UNL     1     128.848 121.510 138.570  0.00  0.00    +0.000 C 
ATOM     28  C   UNL     1     127.915 120.527 139.241  0.00  0.00    +0.000 C 
ATOM     29  C   UNL     1     129.538 122.400 139.443  0.00  0.00    +0.000 C 
ATOM     30  C   UNL     1     130.321 122.932 140.183  0.00  0.00    +0.000 C 
ENDROOT
BRANCH  17  31
ATOM     31  O   UNL     1     135.577 116.608 134.493  0.00  0.00    +0.000 OA
ATOM     32  H   UNL     1     135.425 117.340 133.866  0.00  0.00    +0.000 HD
ENDBRANCH  17  31
BRANCH  17  33
ATOM     33  C   UNL     1     135.209 116.134 136.780  0.00  0.00    +0.000 C 
BRANCH  33  34
ATOM     34  O   UNL     1     135.624 115.452 137.846  0.00  0.00    +0.000 OA
ATOM     35  H   UNL     1     136.467 115.808 138.185  0.00  0.00    +0.000 HD
ENDBRANCH  33  34
ENDBRANCH  17  33
BRANCH  24  36
ATOM     36  C   UNL     1     133.375 123.094 141.745  0.00  0.00    +0.000 C 
BRANCH  36  37
ATOM     37  C   UNL     1     134.517 123.645 142.604  0.00  0.00    +0.000 C 
ATOM     38  C   UNL     1     135.390 124.103 143.289  0.00  0.00    +0.000 C 
BRANCH  38  39
ATOM     39  C   UNL     1     136.486 124.706 144.174  0.00  0.00    +0.000 C 
ATOM     40  C   UNL     1     137.340 125.192 144.863  0.00  0.00    +0.000 C 
BRANCH  40  41
ATOM     41  C   UNL     1     138.426 125.819 145.743  0.00  0.00    +0.000 C 
ATOM     42  C   UNL     1     139.370 126.363 146.510  0.00  0.00    +0.000 C 
ENDBRANCH  40  41
ENDBRANCH  38  39
ENDBRANCH  36  37
ENDBRANCH  24  36
BRANCH  15  43
ATOM     43  O   UNL     1     137.328 120.920 135.877  0.00  0.00    +0.000 OA
BRANCH  43  45
ATOM     44  O   UNL     1     136.793 121.477 133.679  0.00  0.00    +0.000 OA
ATOM     45  C   UNL     1     137.412 121.646 134.720  0.00  0.00    +0.000 C 
BRANCH  45  46
ATOM     46  C   UNL     1     138.369 122.704 134.829  0.00  0.00    +0.000 C 
ATOM     47  C   UNL     1     139.173 123.586 134.925  0.00  0.00    +0.000 C 
ATOM     48  C   UNL     1     140.190 124.724 135.041  0.00  0.00    +0.000 C 
ENDBRANCH  45  46
ENDBRANCH  43  45
ENDBRANCH  15  43
TORSDOF 10
ENDMDL
