MODEL 1
REMARK VINA RESULT:      -6.7      0.000      0.000
REMARK  Name = Thioguanosine.pdbqt.pdb
REMARK  5 active torsions:
REMARK  status: ('A' for Active; 'I' for Inactive)
REMARK    1  A    between atoms: N_2  and  C1*_12
REMARK    2  A    between atoms: C4*_14  and  C5*_17
REMARK    3  A    between atoms: C3*_15  and  O3*_20
REMARK    4  A    between atoms: C2*_16  and  O2*_22
REMARK    5  A    between atoms: C5*_17  and  O5*_18
REMARK                            x       y       z     vdW  Elec       q    Type
REMARK                         _______ _______ _______ _____ _____    ______ ____
ROOT
ATOM      1  S   UNL     1     140.709 124.937 131.901  0.00  0.00    +0.000 S 
ATOM      2  N   UNL     1     137.285 123.095 134.881  0.00  0.00    +0.000 N 
ATOM      3  N   UNL     1     139.574 122.301 135.315  0.00  0.00    +0.000 N 
ATOM      4  N   UNL     1     137.818 124.475 133.167  0.00  0.00    +0.000 NA
ATOM      5  N   UNL     1     141.269 123.131 133.868  0.00  0.00    +0.000 NA
ATOM      6  C   UNL     1     138.639 123.024 134.672  0.00  0.00    +0.000 A 
ATOM      7  C   UNL     1     136.853 124.016 133.939  0.00  0.00    +0.000 A 
ATOM      8  C   UNL     1     138.952 123.846 133.620  0.00  0.00    +0.000 A 
ATOM      9  C   UNL     1     140.346 123.920 133.177  0.00  0.00    +0.000 A 
ATOM     10  C   UNL     1     140.861 122.396 134.862  0.00  0.00    +0.000 A 
ATOM     11  H   UNL     1     139.351 121.658 136.070  0.00  0.00    +0.000 HD
ATOM     12  N   UNL     1     141.737 121.626 135.551  0.00  0.00    +0.000 N 
ATOM     13  H   UNL     1     141.654 121.698 136.557  0.00  0.00    +0.000 HD
ATOM     14  H   UNL     1     142.691 121.822 135.257  0.00  0.00    +0.000 HD
ENDROOT
BRANCH   2  15
ATOM     15  C1* UNL     1     136.472 122.428 135.776  0.00  0.00    +0.000 A 
ATOM     16  O4* UNL     1     135.061 122.449 135.666  0.00  0.00    +0.000 OA
ATOM     17  C4* UNL     1     134.502 121.701 136.715  0.00  0.00    +0.000 A 
ATOM     18  C3* UNL     1     135.575 121.180 137.514  0.00  0.00    +0.000 A 
ATOM     19  C2* UNL     1     136.801 121.622 136.926  0.00  0.00    +0.000 A 
BRANCH  18  20
ATOM     20  O3* UNL     1     135.486 120.989 138.866  0.00  0.00    +0.000 OA
ATOM     21  H3* UNL     1     134.730 121.473 139.248  0.00  0.00    +0.000 HD
ENDBRANCH  18  20
BRANCH  19  22
ATOM     22  O2* UNL     1     137.907 121.844 137.701  0.00  0.00    +0.000 OA
ATOM     23  H2* UNL     1     137.656 121.798 138.645  0.00  0.00    +0.000 HD
ENDBRANCH  19  22
BRANCH  17  24
ATOM     24  C5* UNL     1     133.131 121.733 137.028  0.00  0.00    +0.000 C 
BRANCH  24  25
ATOM     25  O5* UNL     1     131.832 121.778 137.306  0.00  0.00    +0.000 OA
ATOM     26  H5* UNL     1     131.585 122.656 137.648  0.00  0.00    +0.000 HD
ENDBRANCH  24  25
ENDBRANCH  17  24
ENDBRANCH   2  15
TORSDOF 5
ENDMDL
MODEL 2
REMARK VINA RESULT:      -6.4     34.778     37.091
REMARK  Name = Thioguanosine.pdbqt.pdb
REMARK  5 active torsions:
REMARK  status: ('A' for Active; 'I' for Inactive)
REMARK    1  A    between atoms: N_2  and  C1*_12
REMARK    2  A    between atoms: C4*_14  and  C5*_17
REMARK    3  A    between atoms: C3*_15  and  O3*_20
REMARK    4  A    between atoms: C2*_16  and  O2*_22
REMARK    5  A    between atoms: C5*_17  and  O5*_18
REMARK                            x       y       z     vdW  Elec       q    Type
REMARK                         _______ _______ _______ _____ _____    ______ ____
ROOT
ATOM      1  S   UNL     1     140.672 126.658 102.079  0.00  0.00    +0.000 S 
ATOM      2  N   UNL     1     144.821 127.633  99.664  0.00  0.00    +0.000 N 
ATOM      3  N   UNL     1     145.038 127.566 102.115  0.00  0.00    +0.000 N 
ATOM      4  N   UNL     1     142.612 127.138  99.595  0.00  0.00    +0.000 NA
ATOM      5  N   UNL     1     143.043 127.140 103.338  0.00  0.00    +0.000 NA
ATOM      6  C   UNL     1     144.371 127.473 100.951  0.00  0.00    +0.000 A 
ATOM      7  C   UNL     1     143.697 127.393  98.889  0.00  0.00    +0.000 A 
ATOM      8  C   UNL     1     143.029 127.193 100.902  0.00  0.00    +0.000 A 
ATOM      9  C   UNL     1     142.304 127.010 102.161  0.00  0.00    +0.000 A 
ATOM     10  C   UNL     1     144.318 127.394 103.266  0.00  0.00    +0.000 A 
ATOM     11  H   UNL     1     146.024 127.811 102.169  0.00  0.00    +0.000 HD
ATOM     12  N   UNL     1     145.059 127.519 104.393  0.00  0.00    +0.000 N 
ATOM     13  H   UNL     1     145.930 127.005 104.379  0.00  0.00    +0.000 HD
ATOM     14  H   UNL     1     144.508 127.266 105.210  0.00  0.00    +0.000 HD
ENDROOT
BRANCH   2  15
ATOM     15  C1* UNL     1     146.069 127.972  99.178  0.00  0.00    +0.000 A 
ATOM     16  O4* UNL     1     146.233 128.655  97.950  0.00  0.00    +0.000 OA
ATOM     17  C4* UNL     1     147.602 128.851  97.707  0.00  0.00    +0.000 A 
ATOM     18  C3* UNL     1     148.336 128.289  98.806  0.00  0.00    +0.000 A 
ATOM     19  C2* UNL     1     147.384 127.751  99.727  0.00  0.00    +0.000 A 
BRANCH  18  20
ATOM     20  O3* UNL     1     149.571 127.715  98.675  0.00  0.00    +0.000 OA
ATOM     21  H3* UNL     1     149.712 127.011  99.335  0.00  0.00    +0.000 HD
ENDBRANCH  18  20
BRANCH  19  22
ATOM     22  O2* UNL     1     147.696 126.668 100.503  0.00  0.00    +0.000 OA
ATOM     23  H2* UNL     1     147.841 125.889  99.928  0.00  0.00    +0.000 HD
ENDBRANCH  19  22
BRANCH  17  24
ATOM     24  C5* UNL     1     148.103 129.274  96.462  0.00  0.00    +0.000 C 
BRANCH  24  25
ATOM     25  O5* UNL     1     148.597 129.676  95.296  0.00  0.00    +0.000 OA
ATOM     26  H5* UNL     1     148.481 130.637  95.188  0.00  0.00    +0.000 HD
ENDBRANCH  24  25
ENDBRANCH  17  24
ENDBRANCH   2  15
TORSDOF 5
ENDMDL
MODEL 3
REMARK VINA RESULT:      -5.9      2.029      2.166
REMARK  Name = Thioguanosine.pdbqt.pdb
REMARK  5 active torsions:
REMARK  status: ('A' for Active; 'I' for Inactive)
REMARK    1  A    between atoms: N_2  and  C1*_12
REMARK    2  A    between atoms: C4*_14  and  C5*_17
REMARK    3  A    between atoms: C3*_15  and  O3*_20
REMARK    4  A    between atoms: C2*_16  and  O2*_22
REMARK    5  A    between atoms: C5*_17  and  O5*_18
REMARK                            x       y       z     vdW  Elec       q    Type
REMARK                         _______ _______ _______ _____ _____    ______ ____
ROOT
ATOM      1  S   UNL     1     140.452 125.717 131.493  0.00  0.00    +0.000 S 
ATOM      2  N   UNL     1     137.792 122.528 134.091  0.00  0.00    +0.000 N 
ATOM      3  N   UNL     1     139.569 123.670 135.356  0.00  0.00    +0.000 N 
ATOM      4  N   UNL     1     138.179 123.569 132.119  0.00  0.00    +0.000 NA
ATOM      5  N   UNL     1     140.919 125.197 134.130  0.00  0.00    +0.000 NA
ATOM      6  C   UNL     1     138.838 123.400 134.259  0.00  0.00    +0.000 A 
ATOM      7  C   UNL     1     137.428 122.700 132.765  0.00  0.00    +0.000 A 
ATOM      8  C   UNL     1     139.080 124.012 133.056  0.00  0.00    +0.000 A 
ATOM      9  C   UNL     1     140.182 124.973 132.966  0.00  0.00    +0.000 A 
ATOM     10  C   UNL     1     140.592 124.569 135.222  0.00  0.00    +0.000 A 
ATOM     11  H   UNL     1     139.427 123.195 136.244  0.00  0.00    +0.000 HD
ATOM     12  N   UNL     1     141.288 124.772 136.367  0.00  0.00    +0.000 N 
ATOM     13  H   UNL     1     140.711 124.930 137.183  0.00  0.00    +0.000 HD
ATOM     14  H   UNL     1     141.954 125.531 136.247  0.00  0.00    +0.000 HD
ENDROOT
BRANCH   2  15
ATOM     15  C1* UNL     1     137.202 121.644 134.974  0.00  0.00    +0.000 A 
ATOM     16  O4* UNL     1     136.539 120.475 134.530  0.00  0.00    +0.000 OA
ATOM     17  C4* UNL     1     136.029 119.781 135.640  0.00  0.00    +0.000 A 
ATOM     18  C3* UNL     1     136.377 120.514 136.824  0.00  0.00    +0.000 A 
ATOM     19  C2* UNL     1     137.116 121.668 136.413  0.00  0.00    +0.000 A 
BRANCH  18  20
ATOM     20  O3* UNL     1     135.590 120.560 137.943  0.00  0.00    +0.000 OA
ATOM     21  H3* UNL     1     136.076 120.921 138.708  0.00  0.00    +0.000 HD
ENDBRANCH  18  20
BRANCH  19  22
ATOM     22  O2* UNL     1     137.063 122.827 137.138  0.00  0.00    +0.000 OA
ATOM     23  H2* UNL     1     137.957 123.040 137.473  0.00  0.00    +0.000 HD
ENDBRANCH  19  22
BRANCH  17  24
ATOM     24  C5* UNL     1     135.112 118.721 135.521  0.00  0.00    +0.000 C 
BRANCH  24  25
ATOM     25  O5* UNL     1     134.243 117.720 135.431  0.00  0.00    +0.000 OA
ATOM     26  H5* UNL     1     133.486 117.869 136.025  0.00  0.00    +0.000 HD
ENDBRANCH  24  25
ENDBRANCH  17  24
ENDBRANCH   2  15
TORSDOF 5
ENDMDL
MODEL 4
REMARK VINA RESULT:      -5.7     33.347     35.510
REMARK  Name = Thioguanosine.pdbqt.pdb
REMARK  5 active torsions:
REMARK  status: ('A' for Active; 'I' for Inactive)
REMARK    1  A    between atoms: N_2  and  C1*_12
REMARK    2  A    between atoms: C4*_14  and  C5*_17
REMARK    3  A    between atoms: C3*_15  and  O3*_20
REMARK    4  A    between atoms: C2*_16  and  O2*_22
REMARK    5  A    between atoms: C5*_17  and  O5*_18
REMARK                            x       y       z     vdW  Elec       q    Type
REMARK                         _______ _______ _______ _____ _____    ______ ____
ROOT
ATOM      1  S   UNL     1     141.291 124.213  96.828  0.00  0.00    +0.000 S 
ATOM      2  N   UNL     1     143.787 125.344 100.888  0.00  0.00    +0.000 N 
ATOM      3  N   UNL     1     143.028 127.276  99.565  0.00  0.00    +0.000 N 
ATOM      4  N   UNL     1     142.891 123.754  99.548  0.00  0.00    +0.000 NA
ATOM      5  N   UNL     1     141.848 126.781  97.560  0.00  0.00    +0.000 NA
ATOM      6  C   UNL     1     143.156 125.965  99.840  0.00  0.00    +0.000 A 
ATOM      7  C   UNL     1     143.566 123.995 100.654  0.00  0.00    +0.000 A 
ATOM      8  C   UNL     1     142.633 124.996  99.022  0.00  0.00    +0.000 A 
ATOM      9  C   UNL     1     141.931 125.409  97.805  0.00  0.00    +0.000 A 
ATOM     10  C   UNL     1     142.371 127.613  98.414  0.00  0.00    +0.000 A 
ATOM     11  H   UNL     1     143.444 128.004 100.142  0.00  0.00    +0.000 HD
ATOM     12  N   UNL     1     142.299 128.950  98.203  0.00  0.00    +0.000 N 
ATOM     13  H   UNL     1     142.006 129.484  99.010  0.00  0.00    +0.000 HD
ATOM     14  H   UNL     1     141.702 129.152  97.404  0.00  0.00    +0.000 HD
ENDROOT
BRANCH   2  15
ATOM     15  C1* UNL     1     144.508 125.863 101.946  0.00  0.00    +0.000 A 
ATOM     16  O4* UNL     1     144.186 125.562 103.291  0.00  0.00    +0.000 OA
ATOM     17  C4* UNL     1     145.074 126.238 104.143  0.00  0.00    +0.000 A 
ATOM     18  C3* UNL     1     145.992 126.985 103.331  0.00  0.00    +0.000 A 
ATOM     19  C2* UNL     1     145.649 126.745 101.964  0.00  0.00    +0.000 A 
BRANCH  18  20
ATOM     20  O3* UNL     1     146.531 128.185 103.708  0.00  0.00    +0.000 OA
ATOM     21  H3* UNL     1     145.844 128.809 104.008  0.00  0.00    +0.000 HD
ENDBRANCH  18  20
BRANCH  19  22
ATOM     22  O2* UNL     1     145.869 127.701 101.010  0.00  0.00    +0.000 OA
ATOM     23  H2* UNL     1     146.312 127.293 100.239  0.00  0.00    +0.000 HD
ENDBRANCH  19  22
BRANCH  17  24
ATOM     24  C5* UNL     1     144.866 126.345 105.531  0.00  0.00    +0.000 C 
BRANCH  24  25
ATOM     25  O5* UNL     1     144.658 126.426 106.841  0.00  0.00    +0.000 OA
ATOM     26  H5* UNL     1     144.470 127.345 107.102  0.00  0.00    +0.000 HD
ENDBRANCH  24  25
ENDBRANCH  17  24
ENDBRANCH   2  15
TORSDOF 5
ENDMDL
MODEL 5
REMARK VINA RESULT:      -5.5      2.948      3.861
REMARK  Name = Thioguanosine.pdbqt.pdb
REMARK  5 active torsions:
REMARK  status: ('A' for Active; 'I' for Inactive)
REMARK    1  A    between atoms: N_2  and  C1*_12
REMARK    2  A    between atoms: C4*_14  and  C5*_17
REMARK    3  A    between atoms: C3*_15  and  O3*_20
REMARK    4  A    between atoms: C2*_16  and  O2*_22
REMARK    5  A    between atoms: C5*_17  and  O5*_18
REMARK                            x       y       z     vdW  Elec       q    Type
REMARK                         _______ _______ _______ _____ _____    ______ ____
ROOT
ATOM      1  S   UNL     1     139.577 123.855 132.794  0.00  0.00    +0.000 S 
ATOM      2  N   UNL     1     135.279 121.610 133.490  0.00  0.00    +0.000 N 
ATOM      3  N   UNL     1     136.509 122.159 135.551  0.00  0.00    +0.000 N 
ATOM      4  N   UNL     1     136.791 122.491 132.054  0.00  0.00    +0.000 NA
ATOM      5  N   UNL     1     138.623 123.211 135.267  0.00  0.00    +0.000 NA
ATOM      6  C   UNL     1     136.321 122.125 134.219  0.00  0.00    +0.000 A 
ATOM      7  C   UNL     1     135.625 121.888 132.177  0.00  0.00    +0.000 A 
ATOM      8  C   UNL     1     137.242 122.639 133.342  0.00  0.00    +0.000 A 
ATOM      9  C   UNL     1     138.473 123.223 133.879  0.00  0.00    +0.000 A 
ATOM     10  C   UNL     1     137.676 122.708 136.006  0.00  0.00    +0.000 A 
ATOM     11  H   UNL     1     135.853 121.748 136.211  0.00  0.00    +0.000 HD
ATOM     12  N   UNL     1     137.795 122.689 137.356  0.00  0.00    +0.000 N 
ATOM     13  H   UNL     1     136.974 123.012 137.851  0.00  0.00    +0.000 HD
ATOM     14  H   UNL     1     138.617 123.212 137.648  0.00  0.00    +0.000 HD
ENDROOT
BRANCH   2  15
ATOM     15  C1* UNL     1     134.138 120.943 133.892  0.00  0.00    +0.000 A 
ATOM     16  O4* UNL     1     133.579 119.891 133.127  0.00  0.00    +0.000 OA
ATOM     17  C4* UNL     1     132.423 119.415 133.769  0.00  0.00    +0.000 A 
ATOM     18  C3* UNL     1     132.239 120.170 134.976  0.00  0.00    +0.000 A 
ATOM     19  C2* UNL     1     133.310 121.114 135.060  0.00  0.00    +0.000 A 
BRANCH  18  20
ATOM     20  O3* UNL     1     131.010 120.471 135.499  0.00  0.00    +0.000 OA
ATOM     21  H3* UNL     1     131.083 121.068 136.266  0.00  0.00    +0.000 HD
ENDBRANCH  18  20
BRANCH  19  22
ATOM     22  O2* UNL     1     133.131 122.322 135.677  0.00  0.00    +0.000 OA
ATOM     23  H2* UNL     1     132.246 122.673 135.450  0.00  0.00    +0.000 HD
ENDBRANCH  19  22
BRANCH  17  24
ATOM     24  C5* UNL     1     131.507 118.549 133.145  0.00  0.00    +0.000 C 
BRANCH  24  25
ATOM     25  O5* UNL     1     130.627 117.749 132.551  0.00  0.00    +0.000 OA
ATOM     26  H5* UNL     1     130.036 117.342 133.208  0.00  0.00    +0.000 HD
ENDBRANCH  24  25
ENDBRANCH  17  24
ENDBRANCH   2  15
TORSDOF 5
ENDMDL
MODEL 6
REMARK VINA RESULT:      -5.4      2.519      3.565
REMARK  Name = Thioguanosine.pdbqt.pdb
REMARK  5 active torsions:
REMARK  status: ('A' for Active; 'I' for Inactive)
REMARK    1  A    between atoms: N_2  and  C1*_12
REMARK    2  A    between atoms: C4*_14  and  C5*_17
REMARK    3  A    between atoms: C3*_15  and  O3*_20
REMARK    4  A    between atoms: C2*_16  and  O2*_22
REMARK    5  A    between atoms: C5*_17  and  O5*_18
REMARK                            x       y       z     vdW  Elec       q    Type
REMARK                         _______ _______ _______ _____ _____    ______ ____
ROOT
ATOM      1  S   UNL     1     139.508 123.785 132.898  0.00  0.00    +0.000 S 
ATOM      2  N   UNL     1     135.132 121.758 133.756  0.00  0.00    +0.000 N 
ATOM      3  N   UNL     1     136.481 122.204 135.766  0.00  0.00    +0.000 N 
ATOM      4  N   UNL     1     136.623 122.584 132.265  0.00  0.00    +0.000 NA
ATOM      5  N   UNL     1     138.633 123.148 135.402  0.00  0.00    +0.000 NA
ATOM      6  C   UNL     1     136.232 122.204 134.444  0.00  0.00    +0.000 A 
ATOM      7  C   UNL     1     135.433 122.041 132.432  0.00  0.00    +0.000 A 
ATOM      8  C   UNL     1     137.139 122.685 133.534  0.00  0.00    +0.000 A 
ATOM      9  C   UNL     1     138.422 123.194 134.023  0.00  0.00    +0.000 A 
ATOM     10  C   UNL     1     137.695 122.683 136.176  0.00  0.00    +0.000 A 
ATOM     11  H   UNL     1     135.834 121.816 136.449  0.00  0.00    +0.000 HD
ATOM     12  N   UNL     1     137.873 122.633 137.518  0.00  0.00    +0.000 N 
ATOM     13  H   UNL     1     137.093 122.989 138.055  0.00  0.00    +0.000 HD
ATOM     14  H   UNL     1     138.734 123.107 137.780  0.00  0.00    +0.000 HD
ENDROOT
BRANCH   2  15
ATOM     15  C1* UNL     1     133.976 121.145 134.198  0.00  0.00    +0.000 A 
ATOM     16  O4* UNL     1     133.289 121.589 135.353  0.00  0.00    +0.000 OA
ATOM     17  C4* UNL     1     132.166 120.773 135.567  0.00  0.00    +0.000 A 
ATOM     18  C3* UNL     1     132.124 119.787 134.525  0.00  0.00    +0.000 A 
ATOM     19  C2* UNL     1     133.244 120.022 133.666  0.00  0.00    +0.000 A 
BRANCH  18  20
ATOM     20  O3* UNL     1     131.646 118.517 134.704  0.00  0.00    +0.000 OA
ATOM     21  H3* UNL     1     131.056 118.462 135.479  0.00  0.00    +0.000 HD
ENDBRANCH  18  20
BRANCH  19  22
ATOM     22  O2* UNL     1     133.843 118.989 132.999  0.00  0.00    +0.000 OA
ATOM     23  H2* UNL     1     134.664 118.735 133.467  0.00  0.00    +0.000 HD
ENDBRANCH  19  22
BRANCH  17  24
ATOM     24  C5* UNL     1     131.422 120.797 136.761  0.00  0.00    +0.000 C 
BRANCH  24  25
ATOM     25  O5* UNL     1     130.714 120.841 137.884  0.00  0.00    +0.000 OA
ATOM     26  H5* UNL     1     129.982 120.199 137.854  0.00  0.00    +0.000 HD
ENDBRANCH  24  25
ENDBRANCH  17  24
ENDBRANCH   2  15
TORSDOF 5
ENDMDL
MODEL 7
REMARK VINA RESULT:      -5.1     36.621     38.071
REMARK  Name = Thioguanosine.pdbqt.pdb
REMARK  5 active torsions:
REMARK  status: ('A' for Active; 'I' for Inactive)
REMARK    1  A    between atoms: N_2  and  C1*_12
REMARK    2  A    between atoms: C4*_14  and  C5*_17
REMARK    3  A    between atoms: C3*_15  and  O3*_20
REMARK    4  A    between atoms: C2*_16  and  O2*_22
REMARK    5  A    between atoms: C5*_17  and  O5*_18
REMARK                            x       y       z     vdW  Elec       q    Type
REMARK                         _______ _______ _______ _____ _____    ______ ____
ROOT
ATOM      1  S   UNL     1     148.027 128.955  98.714  0.00  0.00    +0.000 S 
ATOM      2  N   UNL     1     144.216 125.878  98.802  0.00  0.00    +0.000 N 
ATOM      3  N   UNL     1     146.126 125.127  97.442  0.00  0.00    +0.000 N 
ATOM      4  N   UNL     1     145.155 127.815  99.504  0.00  0.00    +0.000 NA
ATOM      5  N   UNL     1     147.986 126.605  97.330  0.00  0.00    +0.000 NA
ATOM      6  C   UNL     1     145.471 125.975  98.256  0.00  0.00    +0.000 A 
ATOM      7  C   UNL     1     144.100 127.027  99.569  0.00  0.00    +0.000 A 
ATOM      8  C   UNL     1     146.026 127.159  98.669  0.00  0.00    +0.000 A 
ATOM      9  C   UNL     1     147.364 127.513  98.190  0.00  0.00    +0.000 A 
ATOM     10  C   UNL     1     147.370 125.502  97.014  0.00  0.00    +0.000 A 
ATOM     11  H   UNL     1     145.712 124.264  97.097  0.00  0.00    +0.000 HD
ATOM     12  N   UNL     1     147.953 124.602  96.187  0.00  0.00    +0.000 N 
ATOM     13  H   UNL     1     147.907 123.645  96.512  0.00  0.00    +0.000 HD
ATOM     14  H   UNL     1     148.916 124.868  95.994  0.00  0.00    +0.000 HD
ENDROOT
BRANCH   2  15
ATOM     15  C1* UNL     1     143.238 124.914  98.655  0.00  0.00    +0.000 A 
ATOM     16  O4* UNL     1     143.328 123.901  97.670  0.00  0.00    +0.000 OA
ATOM     17  C4* UNL     1     142.193 123.078  97.746  0.00  0.00    +0.000 A 
ATOM     18  C3* UNL     1     141.357 123.565  98.806  0.00  0.00    +0.000 A 
ATOM     19  C2* UNL     1     142.010 124.701  99.380  0.00  0.00    +0.000 A 
BRANCH  18  20
ATOM     20  O3* UNL     1     139.990 123.491  98.786  0.00  0.00    +0.000 OA
ATOM     21  H3* UNL     1     139.642 123.073  99.595  0.00  0.00    +0.000 HD
ENDBRANCH  18  20
BRANCH  19  22
ATOM     22  O2* UNL     1     141.284 125.720  99.933  0.00  0.00    +0.000 OA
ATOM     23  H2* UNL     1     141.415 125.722 100.902  0.00  0.00    +0.000 HD
ENDBRANCH  19  22
BRANCH  17  24
ATOM     24  C5* UNL     1     141.863 122.140  96.750  0.00  0.00    +0.000 C 
BRANCH  24  25
ATOM     25  O5* UNL     1     141.570 121.241  95.817  0.00  0.00    +0.000 OA
ATOM     26  H5* UNL     1     141.735 121.603  94.928  0.00  0.00    +0.000 HD
ENDBRANCH  24  25
ENDBRANCH  17  24
ENDBRANCH   2  15
TORSDOF 5
ENDMDL
MODEL 8
REMARK VINA RESULT:      -4.9     12.643     13.934
REMARK  Name = Thioguanosine.pdbqt.pdb
REMARK  5 active torsions:
REMARK  status: ('A' for Active; 'I' for Inactive)
REMARK    1  A    between atoms: N_2  and  C1*_12
REMARK    2  A    between atoms: C4*_14  and  C5*_17
REMARK    3  A    between atoms: C3*_15  and  O3*_20
REMARK    4  A    between atoms: C2*_16  and  O2*_22
REMARK    5  A    between atoms: C5*_17  and  O5*_18
REMARK                            x       y       z     vdW  Elec       q    Type
REMARK                         _______ _______ _______ _____ _____    ______ ____
ROOT
ATOM      1  S   UNL     1     138.167 137.750 141.219  0.00  0.00    +0.000 S 
ATOM      2  N   UNL     1     138.490 135.034 137.155  0.00  0.00    +0.000 N 
ATOM      3  N   UNL     1     140.164 136.830 137.339  0.00  0.00    +0.000 N 
ATOM      4  N   UNL     1     137.468 135.440 139.135  0.00  0.00    +0.000 NA
ATOM      5  N   UNL     1     140.024 138.207 139.274  0.00  0.00    +0.000 NA
ATOM      6  C   UNL     1     139.118 136.095 137.758  0.00  0.00    +0.000 A 
ATOM      7  C   UNL     1     137.506 134.673 138.063  0.00  0.00    +0.000 A 
ATOM      8  C   UNL     1     138.481 136.348 138.946  0.00  0.00    +0.000 A 
ATOM      9  C   UNL     1     138.948 137.466 139.769  0.00  0.00    +0.000 A 
ATOM     10  C   UNL     1     140.561 137.868 138.137  0.00  0.00    +0.000 A 
ATOM     11  H   UNL     1     140.621 136.679 136.443  0.00  0.00    +0.000 HD
ATOM     12  N   UNL     1     141.608 138.567 137.637  0.00  0.00    +0.000 N 
ATOM     13  H   UNL     1     142.373 137.993 137.307  0.00  0.00    +0.000 HD
ATOM     14  H   UNL     1     141.940 139.246 138.318  0.00  0.00    +0.000 HD
ENDROOT
BRANCH   2  15
ATOM     15  C1* UNL     1     138.711 134.429 135.934  0.00  0.00    +0.000 A 
ATOM     16  O4* UNL     1     138.978 135.180 134.764  0.00  0.00    +0.000 OA
ATOM     17  C4* UNL     1     139.145 134.304 133.678  0.00  0.00    +0.000 A 
ATOM     18  C3* UNL     1     138.991 132.961 134.160  0.00  0.00    +0.000 A 
ATOM     19  C2* UNL     1     138.731 133.035 135.564  0.00  0.00    +0.000 A 
BRANCH  18  20
ATOM     20  O3* UNL     1     138.458 131.946 133.411  0.00  0.00    +0.000 OA
ATOM     21  H3* UNL     1     137.595 132.196 133.032  0.00  0.00    +0.000 HD
ENDBRANCH  18  20
BRANCH  19  22
ATOM     22  O2* UNL     1     137.964 132.088 136.185  0.00  0.00    +0.000 OA
ATOM     23  H2* UNL     1     137.150 132.507 136.531  0.00  0.00    +0.000 HD
ENDBRANCH  19  22
BRANCH  17  24
ATOM     24  C5* UNL     1     139.174 134.743 132.342  0.00  0.00    +0.000 C 
BRANCH  24  25
ATOM     25  O5* UNL     1     139.215 135.140 131.075  0.00  0.00    +0.000 OA
ATOM     26  H5* UNL     1     140.055 135.594 130.885  0.00  0.00    +0.000 HD
ENDBRANCH  24  25
ENDBRANCH  17  24
ENDBRANCH   2  15
TORSDOF 5
ENDMDL
MODEL 9
REMARK VINA RESULT:      -4.7     12.111     13.388
REMARK  Name = Thioguanosine.pdbqt.pdb
REMARK  5 active torsions:
REMARK  status: ('A' for Active; 'I' for Inactive)
REMARK    1  A    between atoms: N_2  and  C1*_12
REMARK    2  A    between atoms: C4*_14  and  C5*_17
REMARK    3  A    between atoms: C3*_15  and  O3*_20
REMARK    4  A    between atoms: C2*_16  and  O2*_22
REMARK    5  A    between atoms: C5*_17  and  O5*_18
REMARK                            x       y       z     vdW  Elec       q    Type
REMARK                         _______ _______ _______ _____ _____    ______ ____
ROOT
ATOM      1  S   UNL     1     137.997 137.509 141.032  0.00  0.00    +0.000 S 
ATOM      2  N   UNL     1     138.601 134.501 137.214  0.00  0.00    +0.000 N 
ATOM      3  N   UNL     1     140.167 136.399 137.297  0.00  0.00    +0.000 N 
ATOM      4  N   UNL     1     137.495 135.004 139.124  0.00  0.00    +0.000 NA
ATOM      5  N   UNL     1     139.888 137.915 139.108  0.00  0.00    +0.000 NA
ATOM      6  C   UNL     1     139.149 135.641 137.745  0.00  0.00    +0.000 A 
ATOM      7  C   UNL     1     137.610 134.157 138.120  0.00  0.00    +0.000 A 
ATOM      8  C   UNL     1     138.462 135.951 138.891  0.00  0.00    +0.000 A 
ATOM      9  C   UNL     1     138.840 137.155 139.633  0.00  0.00    +0.000 A 
ATOM     10  C   UNL     1     140.480 137.518 138.019  0.00  0.00    +0.000 A 
ATOM     11  H   UNL     1     140.660 136.203 136.430  0.00  0.00    +0.000 HD
ATOM     12  N   UNL     1     141.503 138.233 137.493  0.00  0.00    +0.000 N 
ATOM     13  H   UNL     1     142.308 137.680 137.232  0.00  0.00    +0.000 HD
ATOM     14  H   UNL     1     141.774 138.983 138.125  0.00  0.00    +0.000 HD
ENDROOT
BRANCH   2  15
ATOM     15  C1* UNL     1     138.895 133.813 136.052  0.00  0.00    +0.000 A 
ATOM     16  O4* UNL     1     138.953 132.400 136.013  0.00  0.00    +0.000 OA
ATOM     17  C4* UNL     1     139.284 131.984 134.713  0.00  0.00    +0.000 A 
ATOM     18  C3* UNL     1     139.435 133.154 133.895  0.00  0.00    +0.000 A 
ATOM     19  C2* UNL     1     139.183 134.293 134.722  0.00  0.00    +0.000 A 
BRANCH  18  20
ATOM     20  O3* UNL     1     140.319 133.239 132.853  0.00  0.00    +0.000 OA
ATOM     21  H3* UNL     1     140.886 134.029 132.928  0.00  0.00    +0.000 HD
ENDBRANCH  18  20
BRANCH  19  22
ATOM     22  O2* UNL     1     139.806 135.486 134.478  0.00  0.00    +0.000 OA
ATOM     23  H2* UNL     1     139.556 136.129 135.172  0.00  0.00    +0.000 HD
ENDBRANCH  19  22
BRANCH  17  24
ATOM     24  C5* UNL     1     139.661 130.664 134.408  0.00  0.00    +0.000 C 
BRANCH  24  25
ATOM     25  O5* UNL     1     140.027 129.424 134.100  0.00  0.00    +0.000 OA
ATOM     26  H5* UNL     1     139.483 129.076 133.372  0.00  0.00    +0.000 HD
ENDBRANCH  24  25
ENDBRANCH  17  24
ENDBRANCH   2  15
TORSDOF 5
ENDMDL
