MODEL 1
REMARK VINA RESULT:      -6.7      0.000      0.000
REMARK  Name = Trichostatin_A.pdbqt.pdb
REMARK  6 active torsions:
REMARK  status: ('A' for Active; 'I' for Inactive)
REMARK    1  A    between atoms: C_1  and  C_15
REMARK    2  A    between atoms: C_4  and  C_6
REMARK    3  A    between atoms: C_7  and  C_10
REMARK    4  A    between atoms: N_9  and  O_12
REMARK    5  A    between atoms: C_15  and  C_16
REMARK    6  A    between atoms: C_17  and  N_22
REMARK                            x       y       z     vdW  Elec       q    Type
REMARK                         _______ _______ _______ _____ _____    ______ ____
ROOT
ATOM      1  C   UNL     1     145.233 126.587 104.220  0.00  0.00    +0.000 C 
ATOM      2  C   UNL     1     144.878 126.087 105.605  0.00  0.00    +0.000 C 
ATOM      3  C   UNL     1     144.150 126.747 103.323  0.00  0.00    +0.000 C 
ATOM      4  C   UNL     1     143.198 126.904 102.464  0.00  0.00    +0.000 C 
ATOM      5  C   UNL     1     142.597 128.263 102.268  0.00  0.00    +0.000 C 
ENDROOT
BRANCH   4   6
ATOM      6  C   UNL     1     142.863 125.855 101.576  0.00  0.00    +0.000 C 
ATOM      7  C   UNL     1     142.579 124.966 100.819  0.00  0.00    +0.000 C 
BRANCH   7  10
ATOM      8  O   UNL     1     141.090 123.757  99.528  0.00  0.00    +0.000 OA
ATOM      9  N   UNL     1     143.275 123.083  99.538  0.00  0.00    +0.000 N 
ATOM     10  C   UNL     1     142.245 123.898  99.915  0.00  0.00    +0.000 C 
ATOM     11  H   UNL     1     144.233 123.181  99.854  0.00  0.00    +0.000 HD
BRANCH   9  12
ATOM     12  O   UNL     1     142.981 122.019  98.660  0.00  0.00    +0.000 OA
ATOM     13  H   UNL     1     143.820 121.909  98.162  0.00  0.00    +0.000 HD
ENDBRANCH   9  12
ENDBRANCH   7  10
ENDBRANCH   4   6
BRANCH   1  15
ATOM     14  O   UNL     1     147.596 126.484 104.447  0.00  0.00    +0.000 OA
ATOM     15  C   UNL     1     146.633 126.652 103.699  0.00  0.00    +0.000 C 
BRANCH  15  16
ATOM     16  C   UNL     1     146.883 126.906 102.266  0.00  0.00    +0.000 A 
ATOM     17  C   UNL     1     147.209 127.301  99.482  0.00  0.00    +0.000 A 
ATOM     18  C   UNL     1     146.893 128.194 101.738  0.00  0.00    +0.000 A 
ATOM     19  C   UNL     1     147.006 125.812 101.413  0.00  0.00    +0.000 A 
ATOM     20  C   UNL     1     147.066 128.382 100.367  0.00  0.00    +0.000 A 
ATOM     21  C   UNL     1     147.180 126.014 100.043  0.00  0.00    +0.000 A 
BRANCH  17  22
ATOM     22  N   UNL     1     147.403 127.500  98.093  0.00  0.00    +0.000 N 
ATOM     23  C   UNL     1     146.577 128.438  97.350  0.00  0.00    +0.000 C 
ATOM     24  C   UNL     1     148.094 126.510  97.283  0.00  0.00    +0.000 C 
ENDBRANCH  17  22
ENDBRANCH  15  16
ENDBRANCH   1  15
TORSDOF 6
ENDMDL
MODEL 2
REMARK VINA RESULT:      -6.2     31.658     35.091
REMARK  Name = Trichostatin_A.pdbqt.pdb
REMARK  6 active torsions:
REMARK  status: ('A' for Active; 'I' for Inactive)
REMARK    1  A    between atoms: C_1  and  C_15
REMARK    2  A    between atoms: C_4  and  C_6
REMARK    3  A    between atoms: C_7  and  C_10
REMARK    4  A    between atoms: N_9  and  O_12
REMARK    5  A    between atoms: C_15  and  C_16
REMARK    6  A    between atoms: C_17  and  N_22
REMARK                            x       y       z     vdW  Elec       q    Type
REMARK                         _______ _______ _______ _____ _____    ______ ____
ROOT
ATOM      1  C   UNL     1     138.294 123.703 134.033  0.00  0.00    +0.000 C 
ATOM      2  C   UNL     1     138.675 122.957 135.296  0.00  0.00    +0.000 C 
ATOM      3  C   UNL     1     139.277 124.579 133.513  0.00  0.00    +0.000 C 
ATOM      4  C   UNL     1     140.136 125.397 133.001  0.00  0.00    +0.000 C 
ATOM      5  C   UNL     1     141.015 124.936 131.879  0.00  0.00    +0.000 C 
ENDROOT
BRANCH   4   6
ATOM      6  C   UNL     1     140.111 126.766 133.354  0.00  0.00    +0.000 C 
ATOM      7  C   UNL     1     140.086 127.930 133.653  0.00  0.00    +0.000 C 
BRANCH   7  10
ATOM      8  O   UNL     1     140.773 129.736 134.922  0.00  0.00    +0.000 OA
ATOM      9  N   UNL     1     139.199 130.113 133.306  0.00  0.00    +0.000 N 
ATOM     10  C   UNL     1     140.057 129.322 134.018  0.00  0.00    +0.000 C 
ATOM     11  H   UNL     1     138.595 129.785 132.562  0.00  0.00    +0.000 HD
BRANCH   9  12
ATOM     12  O   UNL     1     139.138 131.481 133.644  0.00  0.00    +0.000 OA
ATOM     13  H   UNL     1     138.593 131.480 134.461  0.00  0.00    +0.000 HD
ENDBRANCH   9  12
ENDBRANCH   7  10
ENDBRANCH   4   6
BRANCH   1  15
ATOM     14  O   UNL     1     136.657 124.320 132.427  0.00  0.00    +0.000 OA
ATOM     15  C   UNL     1     136.901 123.762 133.497  0.00  0.00    +0.000 C 
BRANCH  15  16
ATOM     16  C   UNL     1     135.789 123.137 134.241  0.00  0.00    +0.000 A 
ATOM     17  C   UNL     1     133.548 122.071 135.603  0.00  0.00    +0.000 A 
ATOM     18  C   UNL     1     135.338 121.853 133.949  0.00  0.00    +0.000 A 
ATOM     19  C   UNL     1     135.113 123.904 135.187  0.00  0.00    +0.000 A 
ATOM     20  C   UNL     1     134.241 121.330 134.633  0.00  0.00    +0.000 A 
ATOM     21  C   UNL     1     134.017 123.369 135.864  0.00  0.00    +0.000 A 
BRANCH  17  22
ATOM     22  N   UNL     1     132.445 121.526 136.306  0.00  0.00    +0.000 N 
ATOM     23  C   UNL     1     132.375 121.595 137.757  0.00  0.00    +0.000 C 
ATOM     24  C   UNL     1     131.587 120.525 135.694  0.00  0.00    +0.000 C 
ENDBRANCH  17  22
ENDBRANCH  15  16
ENDBRANCH   1  15
TORSDOF 6
ENDMDL
MODEL 3
REMARK VINA RESULT:      -6.0      3.379      6.647
REMARK  Name = Trichostatin_A.pdbqt.pdb
REMARK  6 active torsions:
REMARK  status: ('A' for Active; 'I' for Inactive)
REMARK    1  A    between atoms: C_1  and  C_15
REMARK    2  A    between atoms: C_4  and  C_6
REMARK    3  A    between atoms: C_7  and  C_10
REMARK    4  A    between atoms: N_9  and  O_12
REMARK    5  A    between atoms: C_15  and  C_16
REMARK    6  A    between atoms: C_17  and  N_22
REMARK                            x       y       z     vdW  Elec       q    Type
REMARK                         _______ _______ _______ _____ _____    ______ ____
ROOT
ATOM      1  C   UNL     1     141.843 125.664  97.769  0.00  0.00    +0.000 C 
ATOM      2  C   UNL     1     141.360 125.163  96.424  0.00  0.00    +0.000 C 
ATOM      3  C   UNL     1     142.313 126.999  97.800  0.00  0.00    +0.000 C 
ATOM      4  C   UNL     1     142.758 128.209  97.880  0.00  0.00    +0.000 C 
ATOM      5  C   UNL     1     141.846 129.301  98.349  0.00  0.00    +0.000 C 
ENDROOT
BRANCH   4   6
ATOM      6  C   UNL     1     144.139 128.469  97.723  0.00  0.00    +0.000 C 
ATOM      7  C   UNL     1     145.312 128.692  97.585  0.00  0.00    +0.000 C 
BRANCH   7  10
ATOM      8  O   UNL     1     147.459 128.111  96.951  0.00  0.00    +0.000 OA
ATOM      9  N   UNL     1     147.141 130.198  97.830  0.00  0.00    +0.000 N 
ATOM     10  C   UNL     1     146.717 128.963  97.425  0.00  0.00    +0.000 C 
ATOM     11  H   UNL     1     146.543 130.911  98.230  0.00  0.00    +0.000 HD
BRANCH   9  12
ATOM     12  O   UNL     1     148.514 130.494  97.696  0.00  0.00    +0.000 OA
ATOM     13  H   UNL     1     148.861 130.329  98.599  0.00  0.00    +0.000 HD
ENDBRANCH   9  12
ENDBRANCH   7  10
ENDBRANCH   4   6
BRANCH   1  15
ATOM     14  O   UNL     1     141.696 123.606  98.947  0.00  0.00    +0.000 OA
ATOM     15  C   UNL     1     142.092 124.772  98.942  0.00  0.00    +0.000 C 
BRANCH  15  16
ATOM     16  C   UNL     1     142.833 125.275 100.117  0.00  0.00    +0.000 A 
ATOM     17  C   UNL     1     144.146 126.129 102.473  0.00  0.00    +0.000 A 
ATOM     18  C   UNL     1     144.196 125.048 100.279  0.00  0.00    +0.000 A 
ATOM     19  C   UNL     1     142.113 125.898 101.134  0.00  0.00    +0.000 A 
ATOM     20  C   UNL     1     144.840 125.483 101.437  0.00  0.00    +0.000 A 
ATOM     21  C   UNL     1     142.769 126.329 102.287  0.00  0.00    +0.000 A 
BRANCH  17  22
ATOM     22  N   UNL     1     144.811 126.584 103.640  0.00  0.00    +0.000 N 
ATOM     23  C   UNL     1     144.506 126.016 104.943  0.00  0.00    +0.000 C 
ATOM     24  C   UNL     1     145.470 127.880 103.670  0.00  0.00    +0.000 C 
ENDBRANCH  17  22
ENDBRANCH  15  16
ENDBRANCH   1  15
TORSDOF 6
ENDMDL
MODEL 4
REMARK VINA RESULT:      -5.9     32.415     35.385
REMARK  Name = Trichostatin_A.pdbqt.pdb
REMARK  6 active torsions:
REMARK  status: ('A' for Active; 'I' for Inactive)
REMARK    1  A    between atoms: C_1  and  C_15
REMARK    2  A    between atoms: C_4  and  C_6
REMARK    3  A    between atoms: C_7  and  C_10
REMARK    4  A    between atoms: N_9  and  O_12
REMARK    5  A    between atoms: C_15  and  C_16
REMARK    6  A    between atoms: C_17  and  N_22
REMARK                            x       y       z     vdW  Elec       q    Type
REMARK                         _______ _______ _______ _____ _____    ______ ____
ROOT
ATOM      1  C   UNL     1     133.677 122.281 135.714  0.00  0.00    +0.000 C 
ATOM      2  C   UNL     1     132.289 122.579 136.243  0.00  0.00    +0.000 C 
ATOM      3  C   UNL     1     133.763 121.248 134.750  0.00  0.00    +0.000 C 
ATOM      4  C   UNL     1     133.898 120.309 133.873  0.00  0.00    +0.000 C 
ATOM      5  C   UNL     1     133.950 120.661 132.418  0.00  0.00    +0.000 C 
ENDROOT
BRANCH   4   6
ATOM      6  C   UNL     1     134.194 118.989 134.286  0.00  0.00    +0.000 C 
ATOM      7  C   UNL     1     134.448 117.869 134.638  0.00  0.00    +0.000 C 
BRANCH   7  10
ATOM      8  O   UNL     1     133.936 115.627 134.880  0.00  0.00    +0.000 OA
ATOM      9  N   UNL     1     135.959 116.344 135.670  0.00  0.00    +0.000 N 
ATOM     10  C   UNL     1     134.747 116.527 135.064  0.00  0.00    +0.000 C 
ATOM     11  H   UNL     1     136.637 117.077 135.837  0.00  0.00    +0.000 HD
BRANCH   9  12
ATOM     12  O   UNL     1     136.280 115.042 136.109  0.00  0.00    +0.000 OA
ATOM     13  H   UNL     1     136.393 114.549 135.268  0.00  0.00    +0.000 HD
ENDBRANCH   9  12
ENDBRANCH   7  10
ENDBRANCH   4   6
BRANCH   1  15
ATOM     14  O   UNL     1     135.005 122.992 137.551  0.00  0.00    +0.000 OA
ATOM     15  C   UNL     1     134.929 122.812 136.335  0.00  0.00    +0.000 C 
BRANCH  15  16
ATOM     16  C   UNL     1     136.105 123.118 135.496  0.00  0.00    +0.000 A 
ATOM     17  C   UNL     1     138.326 123.884 133.919  0.00  0.00    +0.000 A 
ATOM     18  C   UNL     1     137.388 122.720 135.856  0.00  0.00    +0.000 A 
ATOM     19  C   UNL     1     135.923 123.920 134.372  0.00  0.00    +0.000 A 
ATOM     20  C   UNL     1     138.478 123.091 135.067  0.00  0.00    +0.000 A 
ATOM     21  C   UNL     1     137.020 124.283 133.591  0.00  0.00    +0.000 A 
BRANCH  17  22
ATOM     22  N   UNL     1     139.435 124.242 133.113  0.00  0.00    +0.000 N 
ATOM     23  C   UNL     1     139.252 124.980 131.873  0.00  0.00    +0.000 C 
ATOM     24  C   UNL     1     140.705 123.545 133.234  0.00  0.00    +0.000 C 
ENDBRANCH  17  22
ENDBRANCH  15  16
ENDBRANCH   1  15
TORSDOF 6
ENDMDL
MODEL 5
REMARK VINA RESULT:      -5.4      4.465      6.215
REMARK  Name = Trichostatin_A.pdbqt.pdb
REMARK  6 active torsions:
REMARK  status: ('A' for Active; 'I' for Inactive)
REMARK    1  A    between atoms: C_1  and  C_15
REMARK    2  A    between atoms: C_4  and  C_6
REMARK    3  A    between atoms: C_7  and  C_10
REMARK    4  A    between atoms: N_9  and  O_12
REMARK    5  A    between atoms: C_15  and  C_16
REMARK    6  A    between atoms: C_17  and  N_22
REMARK                            x       y       z     vdW  Elec       q    Type
REMARK                         _______ _______ _______ _____ _____    ______ ____
ROOT
ATOM      1  C   UNL     1     142.164 124.030  98.742  0.00  0.00    +0.000 C 
ATOM      2  C   UNL     1     140.972 123.616  99.581  0.00  0.00    +0.000 C 
ATOM      3  C   UNL     1     142.259 125.410  98.442  0.00  0.00    +0.000 C 
ATOM      4  C   UNL     1     142.389 126.659  98.134  0.00  0.00    +0.000 C 
ATOM      5  C   UNL     1     143.285 127.532  98.959  0.00  0.00    +0.000 C 
ENDROOT
BRANCH   4   6
ATOM      6  C   UNL     1     141.855 127.150  96.920  0.00  0.00    +0.000 C 
ATOM      7  C   UNL     1     141.400 127.570  95.890  0.00  0.00    +0.000 C 
BRANCH   7  10
ATOM      8  O   UNL     1     141.598 128.257  93.692  0.00  0.00    +0.000 OA
ATOM      9  N   UNL     1     139.519 128.324  94.640  0.00  0.00    +0.000 N 
ATOM     10  C   UNL     1     140.862 128.074  94.655  0.00  0.00    +0.000 C 
ATOM     11  H   UNL     1     138.897 128.186  95.429  0.00  0.00    +0.000 HD
BRANCH   9  12
ATOM     12  O   UNL     1     138.959 128.829  93.447  0.00  0.00    +0.000 OA
ATOM     13  H   UNL     1     138.024 128.537  93.505  0.00  0.00    +0.000 HD
ENDBRANCH   9  12
ENDBRANCH   7  10
ENDBRANCH   4   6
BRANCH   1  15
ATOM     14  O   UNL     1     142.707 121.885  97.879  0.00  0.00    +0.000 OA
ATOM     15  C   UNL     1     143.044 123.061  98.023  0.00  0.00    +0.000 C 
BRANCH  15  16
ATOM     16  C   UNL     1     144.336 123.503  97.459  0.00  0.00    +0.000 A 
ATOM     17  C   UNL     1     146.722 124.496  96.307  0.00  0.00    +0.000 A 
ATOM     18  C   UNL     1     145.410 123.856  98.271  0.00  0.00    +0.000 A 
ATOM     19  C   UNL     1     144.432 123.668  96.080  0.00  0.00    +0.000 A 
ATOM     20  C   UNL     1     146.587 124.333  97.695  0.00  0.00    +0.000 A 
ATOM     21  C   UNL     1     145.616 124.145  95.517  0.00  0.00    +0.000 A 
BRANCH  17  22
ATOM     22  N   UNL     1     147.928 124.964  95.728  0.00  0.00    +0.000 N 
ATOM     23  C   UNL     1     149.027 124.053  95.451  0.00  0.00    +0.000 C 
ATOM     24  C   UNL     1     148.293 126.370  95.790  0.00  0.00    +0.000 C 
ENDBRANCH  17  22
ENDBRANCH  15  16
ENDBRANCH   1  15
TORSDOF 6
ENDMDL
MODEL 6
REMARK VINA RESULT:      -5.2     33.623     36.223
REMARK  Name = Trichostatin_A.pdbqt.pdb
REMARK  6 active torsions:
REMARK  status: ('A' for Active; 'I' for Inactive)
REMARK    1  A    between atoms: C_1  and  C_15
REMARK    2  A    between atoms: C_4  and  C_6
REMARK    3  A    between atoms: C_7  and  C_10
REMARK    4  A    between atoms: N_9  and  O_12
REMARK    5  A    between atoms: C_15  and  C_16
REMARK    6  A    between atoms: C_17  and  N_22
REMARK                            x       y       z     vdW  Elec       q    Type
REMARK                         _______ _______ _______ _____ _____    ______ ____
ROOT
ATOM      1  C   UNL     1     132.261 121.049 136.007  0.00  0.00    +0.000 C 
ATOM      2  C   UNL     1     130.813 120.856 136.409  0.00  0.00    +0.000 C 
ATOM      3  C   UNL     1     132.717 120.245 134.934  0.00  0.00    +0.000 C 
ATOM      4  C   UNL     1     133.185 119.531 133.965  0.00  0.00    +0.000 C 
ATOM      5  C   UNL     1     133.234 120.106 132.582  0.00  0.00    +0.000 C 
ENDROOT
BRANCH   4   6
ATOM      6  C   UNL     1     133.829 118.302 134.236  0.00  0.00    +0.000 C 
ATOM      7  C   UNL     1     134.379 117.258 134.467  0.00  0.00    +0.000 C 
BRANCH   7  10
ATOM      8  O   UNL     1     134.832 115.033 134.034  0.00  0.00    +0.000 OA
ATOM      9  N   UNL     1     135.860 115.993 135.837  0.00  0.00    +0.000 N 
ATOM     10  C   UNL     1     135.033 116.008 134.749  0.00  0.00    +0.000 C 
ATOM     11  H   UNL     1     136.031 116.787 136.442  0.00  0.00    +0.000 HD
BRANCH   9  12
ATOM     12  O   UNL     1     136.510 114.780 136.148  0.00  0.00    +0.000 OA
ATOM     13  H   UNL     1     136.000 114.120 135.632  0.00  0.00    +0.000 HD
ENDBRANCH   9  12
ENDBRANCH   7  10
ENDBRANCH   4   6
BRANCH   1  15
ATOM     14  O   UNL     1     133.083 121.967 138.037  0.00  0.00    +0.000 OA
ATOM     15  C   UNL     1     133.252 121.808 136.828  0.00  0.00    +0.000 C 
BRANCH  15  16
ATOM     16  C   UNL     1     134.464 122.372 136.200  0.00  0.00    +0.000 A 
ATOM     17  C   UNL     1     136.806 123.294 134.907  0.00  0.00    +0.000 A 
ATOM     18  C   UNL     1     134.408 123.479 135.358  0.00  0.00    +0.000 A 
ATOM     19  C   UNL     1     135.672 121.704 136.380  0.00  0.00    +0.000 A 
ATOM     20  C   UNL     1     135.569 123.935 134.734  0.00  0.00    +0.000 A 
ATOM     21  C   UNL     1     136.826 122.171 135.750  0.00  0.00    +0.000 A 
BRANCH  17  22
ATOM     22  N   UNL     1     137.985 123.774 134.283  0.00  0.00    +0.000 N 
ATOM     23  C   UNL     1     139.277 123.660 134.939  0.00  0.00    +0.000 C 
ATOM     24  C   UNL     1     137.919 124.758 133.215  0.00  0.00    +0.000 C 
ENDBRANCH  17  22
ENDBRANCH  15  16
ENDBRANCH   1  15
TORSDOF 6
ENDMDL
MODEL 7
REMARK VINA RESULT:      -5.2      5.935     10.259
REMARK  Name = Trichostatin_A.pdbqt.pdb
REMARK  6 active torsions:
REMARK  status: ('A' for Active; 'I' for Inactive)
REMARK    1  A    between atoms: C_1  and  C_15
REMARK    2  A    between atoms: C_4  and  C_6
REMARK    3  A    between atoms: C_7  and  C_10
REMARK    4  A    between atoms: N_9  and  O_12
REMARK    5  A    between atoms: C_15  and  C_16
REMARK    6  A    between atoms: C_17  and  N_22
REMARK                            x       y       z     vdW  Elec       q    Type
REMARK                         _______ _______ _______ _____ _____    ______ ____
ROOT
ATOM      1  C   UNL     1     149.315 123.006  91.766  0.00  0.00    +0.000 C 
ATOM      2  C   UNL     1     150.565 122.456  91.110  0.00  0.00    +0.000 C 
ATOM      3  C   UNL     1     148.955 124.327  91.403  0.00  0.00    +0.000 C 
ATOM      4  C   UNL     1     148.588 125.530  91.111  0.00  0.00    +0.000 C 
ATOM      5  C   UNL     1     147.542 125.748  90.061  0.00  0.00    +0.000 C 
ENDROOT
BRANCH   4   6
ATOM      6  C   UNL     1     149.016 126.617  91.909  0.00  0.00    +0.000 C 
ATOM      7  C   UNL     1     149.377 127.542  92.587  0.00  0.00    +0.000 C 
BRANCH   7  10
ATOM      8  O   UNL     1     150.899 129.169  93.202  0.00  0.00    +0.000 OA
ATOM      9  N   UNL     1     148.946 129.042  94.385  0.00  0.00    +0.000 N 
ATOM     10  C   UNL     1     149.810 128.644  93.404  0.00  0.00    +0.000 C 
ATOM     11  H   UNL     1     148.046 128.615  94.570  0.00  0.00    +0.000 HD
BRANCH   9  12
ATOM     12  O   UNL     1     149.344 130.114  95.211  0.00  0.00    +0.000 OA
ATOM     13  H   UNL     1     150.028 129.706  95.785  0.00  0.00    +0.000 HD
ENDBRANCH   9  12
ENDBRANCH   7  10
ENDBRANCH   4   6
BRANCH   1  15
ATOM     14  O   UNL     1     148.491 121.132  92.971  0.00  0.00    +0.000 OA
ATOM     15  C   UNL     1     148.636 122.354  92.927  0.00  0.00    +0.000 C 
BRANCH  15  16
ATOM     16  C   UNL     1     148.136 123.169  94.052  0.00  0.00    +0.000 A 
ATOM     17  C   UNL     1     147.107 124.578  96.280  0.00  0.00    +0.000 A 
ATOM     18  C   UNL     1     148.998 123.836  94.917  0.00  0.00    +0.000 A 
ATOM     19  C   UNL     1     146.767 123.175  94.306  0.00  0.00    +0.000 A 
ATOM     20  C   UNL     1     148.483 124.538  96.007  0.00  0.00    +0.000 A 
ATOM     21  C   UNL     1     146.264 123.883  95.398  0.00  0.00    +0.000 A 
BRANCH  17  22
ATOM     22  N   UNL     1     146.589 125.309  97.379  0.00  0.00    +0.000 N 
ATOM     23  C   UNL     1     147.359 126.378  97.994  0.00  0.00    +0.000 C 
ATOM     24  C   UNL     1     145.516 124.770  98.199  0.00  0.00    +0.000 C 
ENDBRANCH  17  22
ENDBRANCH  15  16
ENDBRANCH   1  15
TORSDOF 6
ENDMDL
MODEL 8
REMARK VINA RESULT:      -5.1     12.776     14.575
REMARK  Name = Trichostatin_A.pdbqt.pdb
REMARK  6 active torsions:
REMARK  status: ('A' for Active; 'I' for Inactive)
REMARK    1  A    between atoms: C_1  and  C_15
REMARK    2  A    between atoms: C_4  and  C_6
REMARK    3  A    between atoms: C_7  and  C_10
REMARK    4  A    between atoms: N_9  and  O_12
REMARK    5  A    between atoms: C_15  and  C_16
REMARK    6  A    between atoms: C_17  and  N_22
REMARK                            x       y       z     vdW  Elec       q    Type
REMARK                         _______ _______ _______ _____ _____    ______ ____
ROOT
ATOM      1  C   UNL     1     148.526 113.857 110.231  0.00  0.00    +0.000 C 
ATOM      2  C   UNL     1     148.394 112.392 109.869  0.00  0.00    +0.000 C 
ATOM      3  C   UNL     1     147.854 114.266 111.408  0.00  0.00    +0.000 C 
ATOM      4  C   UNL     1     147.255 114.693 112.470  0.00  0.00    +0.000 C 
ATOM      5  C   UNL     1     148.020 114.810 113.753  0.00  0.00    +0.000 C 
ENDROOT
BRANCH   4   6
ATOM      6  C   UNL     1     145.950 115.231 112.381  0.00  0.00    +0.000 C 
ATOM      7  C   UNL     1     144.840 115.686 112.302  0.00  0.00    +0.000 C 
BRANCH   7  10
ATOM      8  O   UNL     1     142.556 115.488 112.009  0.00  0.00    +0.000 OA
ATOM      9  N   UNL     1     143.401 117.582 112.373  0.00  0.00    +0.000 N 
ATOM     10  C   UNL     1     143.510 116.229 112.215  0.00  0.00    +0.000 C 
ATOM     11  H   UNL     1     144.179 118.209 112.537  0.00  0.00    +0.000 HD
BRANCH   9  12
ATOM     12  O   UNL     1     142.112 118.149 112.284  0.00  0.00    +0.000 OA
ATOM     13  H   UNL     1     142.250 118.912 111.683  0.00  0.00    +0.000 HD
ENDBRANCH   9  12
ENDBRANCH   7  10
ENDBRANCH   4   6
BRANCH   1  15
ATOM     14  O   UNL     1     149.603 115.915 109.734  0.00  0.00    +0.000 OA
ATOM     15  C   UNL     1     149.073 114.892 109.301  0.00  0.00    +0.000 C 
BRANCH  15  16
ATOM     16  C   UNL     1     148.997 114.695 107.840  0.00  0.00    +0.000 A 
ATOM     17  C   UNL     1     148.860 114.501 105.020  0.00  0.00    +0.000 A 
ATOM     18  C   UNL     1     149.986 114.014 107.137  0.00  0.00    +0.000 A 
ATOM     19  C   UNL     1     147.955 115.305 107.145  0.00  0.00    +0.000 A 
ATOM     20  C   UNL     1     149.906 113.911 105.748  0.00  0.00    +0.000 A 
ATOM     21  C   UNL     1     147.886 115.194 105.756  0.00  0.00    +0.000 A 
BRANCH  17  22
ATOM     22  N   UNL     1     148.776 114.377 103.610  0.00  0.00    +0.000 N 
ATOM     23  C   UNL     1     147.666 114.960 102.873  0.00  0.00    +0.000 C 
ATOM     24  C   UNL     1     149.507 113.337 102.904  0.00  0.00    +0.000 C 
ENDBRANCH  17  22
ENDBRANCH  15  16
ENDBRANCH   1  15
TORSDOF 6
ENDMDL
MODEL 9
REMARK VINA RESULT:      -5.1      5.012      6.812
REMARK  Name = Trichostatin_A.pdbqt.pdb
REMARK  6 active torsions:
REMARK  status: ('A' for Active; 'I' for Inactive)
REMARK    1  A    between atoms: C_1  and  C_15
REMARK    2  A    between atoms: C_4  and  C_6
REMARK    3  A    between atoms: C_7  and  C_10
REMARK    4  A    between atoms: N_9  and  O_12
REMARK    5  A    between atoms: C_15  and  C_16
REMARK    6  A    between atoms: C_17  and  N_22
REMARK                            x       y       z     vdW  Elec       q    Type
REMARK                         _______ _______ _______ _____ _____    ______ ____
ROOT
ATOM      1  C   UNL     1     141.883 123.982  97.503  0.00  0.00    +0.000 C 
ATOM      2  C   UNL     1     140.444 123.549  97.311  0.00  0.00    +0.000 C 
ATOM      3  C   UNL     1     142.147 125.358  97.305  0.00  0.00    +0.000 C 
ATOM      4  C   UNL     1     142.442 126.604  97.130  0.00  0.00    +0.000 C 
ATOM      5  C   UNL     1     142.522 127.517  98.316  0.00  0.00    +0.000 C 
ENDROOT
BRANCH   4   6
ATOM      6  C   UNL     1     142.882 127.058  95.865  0.00  0.00    +0.000 C 
ATOM      7  C   UNL     1     143.255 127.448  94.791  0.00  0.00    +0.000 C 
BRANCH   7  10
ATOM      8  O   UNL     1     142.980 128.612  92.813  0.00  0.00    +0.000 OA
ATOM      9  N   UNL     1     144.964 127.521  93.135  0.00  0.00    +0.000 N 
ATOM     10  C   UNL     1     143.708 127.911  93.507  0.00  0.00    +0.000 C 
ATOM     11  H   UNL     1     145.576 126.936  93.693  0.00  0.00    +0.000 HD
BRANCH   9  12
ATOM     12  O   UNL     1     145.437 127.949  91.877  0.00  0.00    +0.000 OA
ATOM     13  H   UNL     1     144.640 128.352  91.470  0.00  0.00    +0.000 HD
ENDBRANCH   9  12
ENDBRANCH   7  10
ENDBRANCH   4   6
BRANCH   1  15
ATOM     14  O   UNL     1     142.896 121.949  98.201  0.00  0.00    +0.000 OA
ATOM     15  C   UNL     1     143.025 123.024  97.614  0.00  0.00    +0.000 C 
BRANCH  15  16
ATOM     16  C   UNL     1     144.332 123.350  97.008  0.00  0.00    +0.000 A 
ATOM     17  C   UNL     1     146.748 124.089  95.733  0.00  0.00    +0.000 A 
ATOM     18  C   UNL     1     145.350 123.957  97.737  0.00  0.00    +0.000 A 
ATOM     19  C   UNL     1     144.498 123.134  95.643  0.00  0.00    +0.000 A 
ATOM     20  C   UNL     1     146.543 124.308  97.105  0.00  0.00    +0.000 A 
ATOM     21  C   UNL     1     145.697 123.489  95.022  0.00  0.00    +0.000 A 
BRANCH  17  22
ATOM     22  N   UNL     1     147.970 124.431  95.102  0.00  0.00    +0.000 N 
ATOM     23  C   UNL     1     149.072 124.997  95.864  0.00  0.00    +0.000 C 
ATOM     24  C   UNL     1     148.036 124.649  93.666  0.00  0.00    +0.000 C 
ENDBRANCH  17  22
ENDBRANCH  15  16
ENDBRANCH   1  15
TORSDOF 6
ENDMDL
