MODEL 1
REMARK VINA RESULT:      -6.8      0.000      0.000
REMARK  Name = Trifluridine.pdbqt.pdb
REMARK  5 active torsions:
REMARK  status: ('A' for Active; 'I' for Inactive)
REMARK    1  A    between atoms: N_3  and  C1*_10
REMARK    2  A    between atoms: C_7  and  C_20
REMARK    3  A    between atoms: C4*_12  and  C5*_15
REMARK    4  A    between atoms: C3*_13  and  O3*_18
REMARK    5  A    between atoms: C5*_15  and  O5*_16
REMARK                            x       y       z     vdW  Elec       q    Type
REMARK                         _______ _______ _______ _____ _____    ______ ____
ROOT
ATOM      1  O   UNL     1     140.387 124.464 131.792  0.00  0.00    +0.000 OA
ATOM      2  O   UNL     1     135.917 123.855 132.634  0.00  0.00    +0.000 OA
ATOM      3  N   UNL     1     139.769 123.418 133.826  0.00  0.00    +0.000 N 
ATOM      4  N   UNL     1     138.167 124.123 132.266  0.00  0.00    +0.000 N 
ATOM      5  C   UNL     1     138.679 123.026 134.514  0.00  0.00    +0.000 A 
ATOM      6  C   UNL     1     139.545 124.033 132.573  0.00  0.00    +0.000 A 
ATOM      7  C   UNL     1     137.402 123.069 134.324  0.00  0.00    +0.000 A 
ATOM      8  C   UNL     1     137.066 123.703 133.024  0.00  0.00    +0.000 A 
ATOM      9  H   UNL     1     137.953 124.558 131.380  0.00  0.00    +0.000 HD
ENDROOT
BRANCH   3  10
ATOM     10  C1* UNL     1     141.006 123.213 134.366  0.00  0.00    +0.000 A 
ATOM     11  O4* UNL     1     141.496 123.991 135.421  0.00  0.00    +0.000 OA
ATOM     12  C4* UNL     1     142.788 123.530 135.702  0.00  0.00    +0.000 A 
ATOM     13  C3* UNL     1     143.106 122.445 134.808  0.00  0.00    +0.000 A 
ATOM     14  C2* UNL     1     141.982 122.273 133.979  0.00  0.00    +0.000 A 
BRANCH  13  15
ATOM     15  O3* UNL     1     144.393 122.214 134.412  0.00  0.00    +0.000 OA
ATOM     16  H3* UNL     1     144.956 122.988 134.586  0.00  0.00    +0.000 HD
ENDBRANCH  13  15
BRANCH  12  17
ATOM     17  C5* UNL     1     143.663 124.215 136.567  0.00  0.00    +0.000 C 
BRANCH  17  18
ATOM     18  O5* UNL     1     144.491 124.864 137.380  0.00  0.00    +0.000 OA
ATOM     19  H5* UNL     1     144.219 125.794 137.463  0.00  0.00    +0.000 HD
ENDBRANCH  17  18
ENDBRANCH  12  17
ENDBRANCH   3  10
BRANCH   7  20
ATOM     20  C   UNL     1     136.301 122.620 135.187  0.00  0.00    +0.000 C 
ATOM     21  F   UNL     1     135.542 121.658 134.606  0.00  0.00    +0.000 F 
ATOM     22  F   UNL     1     136.762 122.084 136.351  0.00  0.00    +0.000 F 
ATOM     23  F   UNL     1     135.473 123.634 135.543  0.00  0.00    +0.000 F 
ENDBRANCH   7  20
TORSDOF 5
ENDMDL
MODEL 2
REMARK VINA RESULT:      -6.4      4.005      6.337
REMARK  Name = Trifluridine.pdbqt.pdb
REMARK  5 active torsions:
REMARK  status: ('A' for Active; 'I' for Inactive)
REMARK    1  A    between atoms: N_3  and  C1*_10
REMARK    2  A    between atoms: C_7  and  C_20
REMARK    3  A    between atoms: C4*_12  and  C5*_15
REMARK    4  A    between atoms: C3*_13  and  O3*_18
REMARK    5  A    between atoms: C5*_15  and  O5*_16
REMARK                            x       y       z     vdW  Elec       q    Type
REMARK                         _______ _______ _______ _____ _____    ______ ____
ROOT
ATOM      1  O   UNL     1     140.178 124.566 135.689  0.00  0.00    +0.000 OA
ATOM      2  O   UNL     1     141.592 127.927 132.902  0.00  0.00    +0.000 OA
ATOM      3  N   UNL     1     138.951 124.953 133.700  0.00  0.00    +0.000 N 
ATOM      4  N   UNL     1     140.841 126.227 134.250  0.00  0.00    +0.000 N 
ATOM      5  C   UNL     1     138.939 125.752 132.615  0.00  0.00    +0.000 A 
ATOM      6  C   UNL     1     139.984 125.171 134.641  0.00  0.00    +0.000 A 
ATOM      7  C   UNL     1     139.662 126.730 132.180  0.00  0.00    +0.000 A 
ATOM      8  C   UNL     1     140.779 127.036 133.108  0.00  0.00    +0.000 A 
ATOM      9  H   UNL     1     141.596 126.425 134.892  0.00  0.00    +0.000 HD
ENDROOT
BRANCH   3  10
ATOM     10  C1* UNL     1     137.984 123.999 133.835  0.00  0.00    +0.000 A 
ATOM     11  O4* UNL     1     138.289 122.673 134.163  0.00  0.00    +0.000 OA
ATOM     12  C4* UNL     1     137.076 121.971 134.192  0.00  0.00    +0.000 A 
ATOM     13  C3* UNL     1     136.000 122.878 133.879  0.00  0.00    +0.000 A 
ATOM     14  C2* UNL     1     136.594 124.133 133.652  0.00  0.00    +0.000 A 
BRANCH  13  15
ATOM     15  O3* UNL     1     134.872 122.438 133.248  0.00  0.00    +0.000 OA
ATOM     16  H3* UNL     1     135.070 121.688 132.661  0.00  0.00    +0.000 HD
ENDBRANCH  13  15
BRANCH  12  17
ATOM     17  C5* UNL     1     137.018 120.567 134.284  0.00  0.00    +0.000 C 
BRANCH  17  18
ATOM     18  O5* UNL     1     136.965 119.242 134.375  0.00  0.00    +0.000 OA
ATOM     19  H5* UNL     1     137.010 118.842 133.491  0.00  0.00    +0.000 HD
ENDBRANCH  17  18
ENDBRANCH  12  17
ENDBRANCH   3  10
BRANCH   7  20
ATOM     20  C   UNL     1     139.516 127.548 130.968  0.00  0.00    +0.000 C 
ATOM     21  F   UNL     1     140.656 127.600 130.234  0.00  0.00    +0.000 F 
ATOM     22  F   UNL     1     138.556 127.053 130.140  0.00  0.00    +0.000 F 
ATOM     23  F   UNL     1     139.151 128.825 131.245  0.00  0.00    +0.000 F 
ENDBRANCH   7  20
TORSDOF 5
ENDMDL
MODEL 3
REMARK VINA RESULT:      -6.3     31.864     33.571
REMARK  Name = Trifluridine.pdbqt.pdb
REMARK  5 active torsions:
REMARK  status: ('A' for Active; 'I' for Inactive)
REMARK    1  A    between atoms: N_3  and  C1*_10
REMARK    2  A    between atoms: C_7  and  C_20
REMARK    3  A    between atoms: C4*_12  and  C5*_15
REMARK    4  A    between atoms: C3*_13  and  O3*_18
REMARK    5  A    between atoms: C5*_15  and  O5*_16
REMARK                            x       y       z     vdW  Elec       q    Type
REMARK                         _______ _______ _______ _____ _____    ______ ____
ROOT
ATOM      1  O   UNL     1     140.676 126.472 101.907  0.00  0.00    +0.000 OA
ATOM      2  O   UNL     1     140.817 123.618  98.315  0.00  0.00    +0.000 OA
ATOM      3  N   UNL     1     142.765 125.524 101.320  0.00  0.00    +0.000 N 
ATOM      4  N   UNL     1     140.812 125.044 100.114  0.00  0.00    +0.000 N 
ATOM      5  C   UNL     1     143.322 124.689 100.420  0.00  0.00    +0.000 A 
ATOM      6  C   UNL     1     141.376 125.757 101.199  0.00  0.00    +0.000 A 
ATOM      7  C   UNL     1     142.896 123.998  99.414  0.00  0.00    +0.000 A 
ATOM      8  C   UNL     1     141.438 124.179  99.208  0.00  0.00    +0.000 A 
ATOM      9  H   UNL     1     139.819 125.176  99.986  0.00  0.00    +0.000 HD
ENDROOT
BRANCH   3  10
ATOM     10  C1* UNL     1     143.553 126.083 102.284  0.00  0.00    +0.000 A 
ATOM     11  O4* UNL     1     143.768 125.462 103.520  0.00  0.00    +0.000 OA
ATOM     12  C4* UNL     1     144.591 126.315 104.266  0.00  0.00    +0.000 A 
ATOM     13  C3* UNL     1     144.896 127.483 103.480  0.00  0.00    +0.000 A 
ATOM     14  C2* UNL     1     144.229 127.318 102.252  0.00  0.00    +0.000 A 
BRANCH  13  15
ATOM     15  O3* UNL     1     145.119 128.693 104.074  0.00  0.00    +0.000 OA
ATOM     16  H3* UNL     1     144.868 128.671 105.014  0.00  0.00    +0.000 HD
ENDBRANCH  13  15
BRANCH  12  17
ATOM     17  C5* UNL     1     144.846 126.111 105.637  0.00  0.00    +0.000 C 
BRANCH  17  18
ATOM     18  O5* UNL     1     145.090 125.916 106.929  0.00  0.00    +0.000 OA
ATOM     19  H5* UNL     1     145.977 125.539 107.050  0.00  0.00    +0.000 HD
ENDBRANCH  17  18
ENDBRANCH  12  17
ENDBRANCH   3  10
BRANCH   7  20
ATOM     20  C   UNL     1     143.622 123.089  98.517  0.00  0.00    +0.000 C 
ATOM     21  F   UNL     1     144.871 122.804  98.962  0.00  0.00    +0.000 F 
ATOM     22  F   UNL     1     142.984 121.892  98.391  0.00  0.00    +0.000 F 
ATOM     23  F   UNL     1     143.741 123.585  97.260  0.00  0.00    +0.000 F 
ENDBRANCH   7  20
TORSDOF 5
ENDMDL
MODEL 4
REMARK VINA RESULT:      -6.1     32.036     34.013
REMARK  Name = Trifluridine.pdbqt.pdb
REMARK  5 active torsions:
REMARK  status: ('A' for Active; 'I' for Inactive)
REMARK    1  A    between atoms: N_3  and  C1*_10
REMARK    2  A    between atoms: C_7  and  C_20
REMARK    3  A    between atoms: C4*_12  and  C5*_15
REMARK    4  A    between atoms: C3*_13  and  O3*_18
REMARK    5  A    between atoms: C5*_15  and  O5*_16
REMARK                            x       y       z     vdW  Elec       q    Type
REMARK                         _______ _______ _______ _____ _____    ______ ____
ROOT
ATOM      1  O   UNL     1     141.546 126.515 102.430  0.00  0.00    +0.000 OA
ATOM      2  O   UNL     1     145.474 127.803 104.423  0.00  0.00    +0.000 OA
ATOM      3  N   UNL     1     143.568 125.610 101.592  0.00  0.00    +0.000 N 
ATOM      4  N   UNL     1     143.543 127.115 103.391  0.00  0.00    +0.000 N 
ATOM      5  C   UNL     1     144.900 125.651 101.799  0.00  0.00    +0.000 A 
ATOM      6  C   UNL     1     142.766 126.403 102.446  0.00  0.00    +0.000 A 
ATOM      7  C   UNL     1     145.689 126.262 102.618  0.00  0.00    +0.000 A 
ATOM      8  C   UNL     1     144.933 127.126 103.560  0.00  0.00    +0.000 A 
ATOM      9  H   UNL     1     143.016 127.699 104.025  0.00  0.00    +0.000 HD
ENDROOT
BRANCH   3  10
ATOM     10  C1* UNL     1     143.074 124.829 100.588  0.00  0.00    +0.000 A 
ATOM     11  O4* UNL     1     141.757 124.950 100.132  0.00  0.00    +0.000 OA
ATOM     12  C4* UNL     1     141.583 123.989  99.128  0.00  0.00    +0.000 A 
ATOM     13  C3* UNL     1     142.815 123.261  98.955  0.00  0.00    +0.000 A 
ATOM     14  C2* UNL     1     143.725 123.797  99.883  0.00  0.00    +0.000 A 
BRANCH  13  15
ATOM     15  O3* UNL     1     142.809 121.955  98.554  0.00  0.00    +0.000 OA
ATOM     16  H3* UNL     1     143.285 121.392  99.190  0.00  0.00    +0.000 HD
ENDBRANCH  13  15
BRANCH  12  17
ATOM     17  C5* UNL     1     140.320 123.683  98.586  0.00  0.00    +0.000 C 
BRANCH  17  18
ATOM     18  O5* UNL     1     139.125 123.397  98.077  0.00  0.00    +0.000 OA
ATOM     19  H5* UNL     1     138.594 124.207  97.993  0.00  0.00    +0.000 HD
ENDBRANCH  17  18
ENDBRANCH  12  17
ENDBRANCH   3  10
BRANCH   7  20
ATOM     20  C   UNL     1     147.155 126.236 102.717  0.00  0.00    +0.000 C 
ATOM     21  F   UNL     1     147.719 127.432 102.412  0.00  0.00    +0.000 F 
ATOM     22  F   UNL     1     147.568 125.936 103.979  0.00  0.00    +0.000 F 
ATOM     23  F   UNL     1     147.713 125.303 101.907  0.00  0.00    +0.000 F 
ENDBRANCH   7  20
TORSDOF 5
ENDMDL
MODEL 5
REMARK VINA RESULT:      -6.1      3.516      6.688
REMARK  Name = Trifluridine.pdbqt.pdb
REMARK  5 active torsions:
REMARK  status: ('A' for Active; 'I' for Inactive)
REMARK    1  A    between atoms: N_3  and  C1*_10
REMARK    2  A    between atoms: C_7  and  C_20
REMARK    3  A    between atoms: C4*_12  and  C5*_15
REMARK    4  A    between atoms: C3*_13  and  O3*_18
REMARK    5  A    between atoms: C5*_15  and  O5*_16
REMARK                            x       y       z     vdW  Elec       q    Type
REMARK                         _______ _______ _______ _____ _____    ______ ____
ROOT
ATOM      1  O   UNL     1     138.540 122.027 136.086  0.00  0.00    +0.000 OA
ATOM      2  O   UNL     1     141.387 125.505 135.158  0.00  0.00    +0.000 OA
ATOM      3  N   UNL     1     138.021 123.431 134.251  0.00  0.00    +0.000 N 
ATOM      4  N   UNL     1     139.930 123.778 135.567  0.00  0.00    +0.000 N 
ATOM      5  C   UNL     1     138.486 124.511 133.593  0.00  0.00    +0.000 A 
ATOM      6  C   UNL     1     138.781 122.980 135.354  0.00  0.00    +0.000 A 
ATOM      7  C   UNL     1     139.505 125.297 133.712  0.00  0.00    +0.000 A 
ATOM      8  C   UNL     1     140.367 124.902 134.853  0.00  0.00    +0.000 A 
ATOM      9  H   UNL     1     140.508 123.498 136.347  0.00  0.00    +0.000 HD
ENDROOT
BRANCH   3  10
ATOM     10  C1* UNL     1     136.862 122.845 133.831  0.00  0.00    +0.000 A 
ATOM     11  O4* UNL     1     135.795 122.601 134.703  0.00  0.00    +0.000 OA
ATOM     12  C4* UNL     1     134.792 121.972 133.954  0.00  0.00    +0.000 A 
ATOM     13  C3* UNL     1     135.242 121.827 132.592  0.00  0.00    +0.000 A 
ATOM     14  C2* UNL     1     136.539 122.370 132.545  0.00  0.00    +0.000 A 
BRANCH  13  15
ATOM     15  O3* UNL     1     134.820 120.782 131.820  0.00  0.00    +0.000 OA
ATOM     16  H3* UNL     1     133.983 120.416 132.155  0.00  0.00    +0.000 HD
ENDBRANCH  13  15
BRANCH  12  17
ATOM     17  C5* UNL     1     133.654 121.393 134.549  0.00  0.00    +0.000 C 
BRANCH  17  18
ATOM     18  O5* UNL     1     132.584 120.843 135.114  0.00  0.00    +0.000 OA
ATOM     19  H5* UNL     1     132.348 121.324 135.926  0.00  0.00    +0.000 HD
ENDBRANCH  17  18
ENDBRANCH  12  17
ENDBRANCH   3  10
BRANCH   7  20
ATOM     20  C   UNL     1     139.884 126.479 132.926  0.00  0.00    +0.000 C 
ATOM     21  F   UNL     1     141.047 126.304 132.250  0.00  0.00    +0.000 F 
ATOM     22  F   UNL     1     138.945 126.782 131.988  0.00  0.00    +0.000 F 
ATOM     23  F   UNL     1     140.021 127.590 133.692  0.00  0.00    +0.000 F 
ENDBRANCH   7  20
TORSDOF 5
ENDMDL
MODEL 6
REMARK VINA RESULT:      -6.0     32.046     33.732
REMARK  Name = Trifluridine.pdbqt.pdb
REMARK  5 active torsions:
REMARK  status: ('A' for Active; 'I' for Inactive)
REMARK    1  A    between atoms: N_3  and  C1*_10
REMARK    2  A    between atoms: C_7  and  C_20
REMARK    3  A    between atoms: C4*_12  and  C5*_15
REMARK    4  A    between atoms: C3*_13  and  O3*_18
REMARK    5  A    between atoms: C5*_15  and  O5*_16
REMARK                            x       y       z     vdW  Elec       q    Type
REMARK                         _______ _______ _______ _____ _____    ______ ____
ROOT
ATOM      1  O   UNL     1     146.602 123.738 100.180  0.00  0.00    +0.000 OA
ATOM      2  O   UNL     1     142.834 122.492  97.876  0.00  0.00    +0.000 OA
ATOM      3  N   UNL     1     144.528 124.664 100.853  0.00  0.00    +0.000 N 
ATOM      4  N   UNL     1     144.681 123.146  99.072  0.00  0.00    +0.000 N 
ATOM      5  C   UNL     1     143.217 124.635 100.541  0.00  0.00    +0.000 A 
ATOM      6  C   UNL     1     145.387 123.857 100.071  0.00  0.00    +0.000 A 
ATOM      7  C   UNL     1     142.490 124.033  99.660  0.00  0.00    +0.000 A 
ATOM      8  C   UNL     1     143.310 123.158  98.785  0.00  0.00    +0.000 A 
ATOM      9  H   UNL     1     145.251 122.556  98.483  0.00  0.00    +0.000 HD
ENDROOT
BRANCH   3  10
ATOM     10  C1* UNL     1     144.951 125.457 101.880  0.00  0.00    +0.000 A 
ATOM     11  O4* UNL     1     144.620 125.186 103.213  0.00  0.00    +0.000 OA
ATOM     12  C4* UNL     1     145.190 126.204 103.989  0.00  0.00    +0.000 A 
ATOM     13  C3* UNL     1     145.889 127.121 103.124  0.00  0.00    +0.000 A 
ATOM     14  C2* UNL     1     145.717 126.637 101.814  0.00  0.00    +0.000 A 
BRANCH  13  15
ATOM     15  O3* UNL     1     146.000 128.444 103.444  0.00  0.00    +0.000 OA
ATOM     16  H3* UNL     1     145.937 128.577 104.406  0.00  0.00    +0.000 HD
ENDBRANCH  13  15
BRANCH  12  17
ATOM     17  C5* UNL     1     144.888 126.371 105.355  0.00  0.00    +0.000 C 
BRANCH  17  18
ATOM     18  O5* UNL     1     144.608 126.525 106.645  0.00  0.00    +0.000 OA
ATOM     19  H5* UNL     1     144.243 127.411 106.806  0.00  0.00    +0.000 HD
ENDBRANCH  17  18
ENDBRANCH  12  17
ENDBRANCH   3  10
BRANCH   7  20
ATOM     20  C   UNL     1     141.045 124.116  99.409  0.00  0.00    +0.000 C 
ATOM     21  F   UNL     1     140.432 125.036 100.195  0.00  0.00    +0.000 F 
ATOM     22  F   UNL     1     140.778 124.480  98.125  0.00  0.00    +0.000 F 
ATOM     23  F   UNL     1     140.415 122.930  99.602  0.00  0.00    +0.000 F 
ENDBRANCH   7  20
TORSDOF 5
ENDMDL
MODEL 7
REMARK VINA RESULT:      -5.8     33.129     34.836
REMARK  Name = Trifluridine.pdbqt.pdb
REMARK  5 active torsions:
REMARK  status: ('A' for Active; 'I' for Inactive)
REMARK    1  A    between atoms: N_3  and  C1*_10
REMARK    2  A    between atoms: C_7  and  C_20
REMARK    3  A    between atoms: C4*_12  and  C5*_15
REMARK    4  A    between atoms: C3*_13  and  O3*_18
REMARK    5  A    between atoms: C5*_15  and  O5*_16
REMARK                            x       y       z     vdW  Elec       q    Type
REMARK                         _______ _______ _______ _____ _____    ______ ____
ROOT
ATOM      1  O   UNL     1     143.497 128.555  98.528  0.00  0.00    +0.000 OA
ATOM      2  O   UNL     1     141.153 125.369  96.202  0.00  0.00    +0.000 OA
ATOM      3  N   UNL     1     142.838 126.595  99.682  0.00  0.00    +0.000 N 
ATOM      4  N   UNL     1     142.330 126.921  97.416  0.00  0.00    +0.000 N 
ATOM      5  C   UNL     1     142.182 125.434  99.486  0.00  0.00    +0.000 A 
ATOM      6  C   UNL     1     142.950 127.459  98.569  0.00  0.00    +0.000 A 
ATOM      7  C   UNL     1     141.588 124.865  98.490  0.00  0.00    +0.000 A 
ATOM      8  C   UNL     1     141.652 125.704  97.267  0.00  0.00    +0.000 A 
ATOM      9  H   UNL     1     142.381 127.503  96.592  0.00  0.00    +0.000 HD
ENDROOT
BRANCH   3  10
ATOM     10  C1* UNL     1     143.342 126.874 100.919  0.00  0.00    +0.000 A 
ATOM     11  O4* UNL     1     144.629 127.394 101.097  0.00  0.00    +0.000 OA
ATOM     12  C4* UNL     1     144.826 127.530 102.477  0.00  0.00    +0.000 A 
ATOM     13  C3* UNL     1     143.640 127.090 103.168  0.00  0.00    +0.000 A 
ATOM     14  C2* UNL     1     142.734 126.677 102.175  0.00  0.00    +0.000 A 
BRANCH  13  15
ATOM     15  O3* UNL     1     143.717 126.535 104.414  0.00  0.00    +0.000 OA
ATOM     16  H3* UNL     1     144.196 127.120 105.028  0.00  0.00    +0.000 HD
ENDBRANCH  13  15
BRANCH  12  17
ATOM     17  C5* UNL     1     146.084 127.830 103.035  0.00  0.00    +0.000 C 
BRANCH  17  18
ATOM     18  O5* UNL     1     147.271 128.118 103.560  0.00  0.00    +0.000 OA
ATOM     19  H5* UNL     1     147.170 128.754 104.288  0.00  0.00    +0.000 HD
ENDBRANCH  17  18
ENDBRANCH  12  17
ENDBRANCH   3  10
BRANCH   7  20
ATOM     20  C   UNL     1     140.875 123.582  98.420  0.00  0.00    +0.000 C 
ATOM     21  F   UNL     1     139.610 123.714  97.948  0.00  0.00    +0.000 F 
ATOM     22  F   UNL     1     141.499 122.706  97.586  0.00  0.00    +0.000 F 
ATOM     23  F   UNL     1     140.798 122.965  99.625  0.00  0.00    +0.000 F 
ENDBRANCH   7  20
TORSDOF 5
ENDMDL
MODEL 8
REMARK VINA RESULT:      -5.7      3.563      7.076
REMARK  Name = Trifluridine.pdbqt.pdb
REMARK  5 active torsions:
REMARK  status: ('A' for Active; 'I' for Inactive)
REMARK    1  A    between atoms: N_3  and  C1*_10
REMARK    2  A    between atoms: C_7  and  C_20
REMARK    3  A    between atoms: C4*_12  and  C5*_15
REMARK    4  A    between atoms: C3*_13  and  O3*_18
REMARK    5  A    between atoms: C5*_15  and  O5*_16
REMARK                            x       y       z     vdW  Elec       q    Type
REMARK                         _______ _______ _______ _____ _____    ______ ____
ROOT
ATOM      1  O   UNL     1     137.579 121.201 137.001  0.00  0.00    +0.000 OA
ATOM      2  O   UNL     1     140.923 123.572 134.937  0.00  0.00    +0.000 OA
ATOM      3  N   UNL     1     137.039 122.406 135.034  0.00  0.00    +0.000 N 
ATOM      4  N   UNL     1     139.211 122.399 135.918  0.00  0.00    +0.000 N 
ATOM      5  C   UNL     1     137.603 123.204 134.107  0.00  0.00    +0.000 A 
ATOM      6  C   UNL     1     137.884 121.929 136.064  0.00  0.00    +0.000 A 
ATOM      7  C   UNL     1     138.783 123.685 133.895  0.00  0.00    +0.000 A 
ATOM      8  C   UNL     1     139.747 123.238 134.933  0.00  0.00    +0.000 A 
ATOM      9  H   UNL     1     139.856 122.088 136.632  0.00  0.00    +0.000 HD
ENDROOT
BRANCH   3  10
ATOM     10  C1* UNL     1     135.710 122.110 134.939  0.00  0.00    +0.000 A 
ATOM     11  O4* UNL     1     134.776 122.579 135.870  0.00  0.00    +0.000 OA
ATOM     12  C4* UNL     1     133.529 122.069 135.487  0.00  0.00    +0.000 A 
ATOM     13  C3* UNL     1     133.691 121.272 134.297  0.00  0.00    +0.000 A 
ATOM     14  C2* UNL     1     135.061 121.307 133.982  0.00  0.00    +0.000 A 
BRANCH  13  15
ATOM     15  O3* UNL     1     132.873 120.207 134.047  0.00  0.00    +0.000 OA
ATOM     16  H3* UNL     1     132.060 120.489 133.593  0.00  0.00    +0.000 HD
ENDBRANCH  13  15
BRANCH  12  17
ATOM     17  C5* UNL     1     132.389 122.163 136.310  0.00  0.00    +0.000 C 
BRANCH  17  18
ATOM     18  O5* UNL     1     131.311 122.256 137.082  0.00  0.00    +0.000 OA
ATOM     19  H5* UNL     1     130.976 123.168 137.083  0.00  0.00    +0.000 HD
ENDBRANCH  17  18
ENDBRANCH  12  17
ENDBRANCH   3  10
BRANCH   7  20
ATOM     20  C   UNL     1     139.263 124.585 132.837  0.00  0.00    +0.000 C 
ATOM     21  F   UNL     1     139.811 125.723 133.331  0.00  0.00    +0.000 F 
ATOM     22  F   UNL     1     140.231 123.998 132.080  0.00  0.00    +0.000 F 
ATOM     23  F   UNL     1     138.279 124.946 131.977  0.00  0.00    +0.000 F 
ENDBRANCH   7  20
TORSDOF 5
ENDMDL
MODEL 9
REMARK VINA RESULT:      -5.7     32.452     34.493
REMARK  Name = Trifluridine.pdbqt.pdb
REMARK  5 active torsions:
REMARK  status: ('A' for Active; 'I' for Inactive)
REMARK    1  A    between atoms: N_3  and  C1*_10
REMARK    2  A    between atoms: C_7  and  C_20
REMARK    3  A    between atoms: C4*_12  and  C5*_15
REMARK    4  A    between atoms: C3*_13  and  O3*_18
REMARK    5  A    between atoms: C5*_15  and  O5*_16
REMARK                            x       y       z     vdW  Elec       q    Type
REMARK                         _______ _______ _______ _____ _____    ______ ____
ROOT
ATOM      1  O   UNL     1     141.338 127.265 102.873  0.00  0.00    +0.000 OA
ATOM      2  O   UNL     1     145.380 126.509 104.910  0.00  0.00    +0.000 OA
ATOM      3  N   UNL     1     143.303 127.508 101.572  0.00  0.00    +0.000 N 
ATOM      4  N   UNL     1     143.389 126.892 103.833  0.00  0.00    +0.000 N 
ATOM      5  C   UNL     1     144.643 127.410 101.671  0.00  0.00    +0.000 A 
ATOM      6  C   UNL     1     142.556 127.232 102.741  0.00  0.00    +0.000 A 
ATOM      7  C   UNL     1     145.482 127.116 102.608  0.00  0.00    +0.000 A 
ATOM      8  C   UNL     1     144.787 126.810 103.884  0.00  0.00    +0.000 A 
ATOM      9  H   UNL     1     142.903 126.687 104.695  0.00  0.00    +0.000 HD
ENDROOT
BRANCH   3  10
ATOM     10  C1* UNL     1     142.747 127.868 100.378  0.00  0.00    +0.000 A 
ATOM     11  O4* UNL     1     142.605 126.961  99.322  0.00  0.00    +0.000 OA
ATOM     12  C4* UNL     1     142.030 127.664  98.256  0.00  0.00    +0.000 A 
ATOM     13  C3* UNL     1     141.810 129.031  98.658  0.00  0.00    +0.000 A 
ATOM     14  C2* UNL     1     142.274 129.133  99.981  0.00  0.00    +0.000 A 
BRANCH  13  15
ATOM     15  O3* UNL     1     141.858 130.048  97.747  0.00  0.00    +0.000 OA
ATOM     16  H3* UNL     1     141.947 130.910  98.191  0.00  0.00    +0.000 HD
ENDBRANCH  13  15
BRANCH  12  17
ATOM     17  C5* UNL     1     141.932 127.123  96.959  0.00  0.00    +0.000 C 
BRANCH  17  18
ATOM     18  O5* UNL     1     141.834 126.614  95.735  0.00  0.00    +0.000 OA
ATOM     19  H5* UNL     1     141.128 125.947  95.705  0.00  0.00    +0.000 HD
ENDBRANCH  17  18
ENDBRANCH  12  17
ENDBRANCH   3  10
BRANCH   7  20
ATOM     20  C   UNL     1     146.950 127.072 102.585  0.00  0.00    +0.000 C 
ATOM     21  F   UNL     1     147.462 127.413 101.376  0.00  0.00    +0.000 F 
ATOM     22  F   UNL     1     147.493 127.941 103.482  0.00  0.00    +0.000 F 
ATOM     23  F   UNL     1     147.439 125.848 102.905  0.00  0.00    +0.000 F 
ENDBRANCH   7  20
TORSDOF 5
ENDMDL
