MODEL 1
REMARK VINA RESULT:      -7.8      0.000      0.000
REMARK  Name = Troglitazone.pdbqt.pdb
REMARK  4 active torsions:
REMARK  status: ('A' for Active; 'I' for Inactive)
REMARK    1  A    between atoms: C_1  and  O_2
REMARK    2  A    between atoms: C_1  and  C_18
REMARK    3  A    between atoms: O_2  and  C_3
REMARK    4  A    between atoms: C_26  and  O_32
REMARK                            x       y       z     vdW  Elec       q    Type
REMARK                         _______ _______ _______ _____ _____    ______ ____
ROOT
ATOM      1  C   UNL     1     133.111 120.552 137.820  0.00  0.00    +0.000 C 
ENDROOT
BRANCH   1   2
ATOM      2  C   UNL     1     133.904 120.109 136.661  0.00  0.00    +0.000 C 
ATOM      3  O   UNL     1     135.059 121.018 136.554  0.00  0.00    +0.000 OA
ATOM      4  C   UNL     1     135.640 121.390 135.335  0.00  0.00    +0.000 A 
ATOM      5  C   UNL     1     134.972 121.311 134.077  0.00  0.00    +0.000 A 
ATOM      6  C   UNL     1     136.943 121.926 135.389  0.00  0.00    +0.000 A 
ATOM      7  C   UNL     1     133.661 120.772 134.143  0.00  0.00    +0.000 C 
ATOM      8  C   UNL     1     135.592 121.727 132.893  0.00  0.00    +0.000 A 
ATOM      9  C   UNL     1     133.147 120.194 135.419  0.00  0.00    +0.000 C 
ATOM     10  C   UNL     1     136.896 122.242 132.956  0.00  0.00    +0.000 A 
ATOM     11  C   UNL     1     134.860 121.633 131.571  0.00  0.00    +0.000 C 
ATOM     12  C   UNL     1     137.568 122.343 134.192  0.00  0.00    +0.000 A 
ATOM     13  C   UNL     1     138.977 122.934 134.141  0.00  0.00    +0.000 C 
ATOM     14  C   UNL     1     137.630 122.053 136.743  0.00  0.00    +0.000 C 
ATOM     15  C   UNL     1     134.475 118.685 136.871  0.00  0.00    +0.000 C 
BRANCH  10  16
ATOM     16  O   UNL     1     137.531 122.663 131.799  0.00  0.00    +0.000 OA
ATOM     17  H   UNL     1     138.386 123.076 132.051  0.00  0.00    +0.000 HD
ENDBRANCH  10  16
ENDBRANCH   1   2
BRANCH   1  18
ATOM     18  O   UNL     1     132.398 120.945 138.876  0.00  0.00    +0.000 OA
BRANCH  18  19
ATOM     19  C   UNL     1     133.053 121.805 139.722  0.00  0.00    +0.000 C 
ATOM     20  C   UNL     1     134.365 122.248 139.539  0.00  0.00    +0.000 C 
ATOM     21  C   UNL     1     134.942 123.128 140.451  0.00  0.00    +0.000 C 
ATOM     22  C   UNL     1     134.208 123.568 141.549  0.00  0.00    +0.000 C 
ATOM     23  C   UNL     1     132.899 123.130 141.738  0.00  0.00    +0.000 C 
ATOM     24  C   UNL     1     132.322 122.250 140.824  0.00  0.00    +0.000 C 
ATOM     25  C   UNL     1     134.796 124.469 142.481  0.00  0.00    +0.000 C 
ATOM     26  C   UNL     1     135.376 125.357 143.415  0.00  0.00    +0.000 C 
ATOM     27  S   UNL     1     136.405 126.678 143.011  0.00  0.00    +0.000 S 
ATOM     28  C   UNL     1     136.583 127.142 144.691  0.00  0.00    +0.000 C 
ATOM     29  O   UNL     1     137.244 128.091 145.076  0.00  0.00    +0.000 OA
ATOM     30  N   UNL     1     135.876 126.294 145.480  0.00  0.00    +0.000 N 
ATOM     31  C   UNL     1     135.177 125.291 144.878  0.00  0.00    +0.000 C 
ATOM     32  H   UNL     1     135.860 126.413 146.481  0.00  0.00    +0.000 HD
ATOM     33  O   UNL     1     134.490 124.470 145.462  0.00  0.00    +0.000 OA
ENDBRANCH  18  19
ENDBRANCH   1  18
TORSDOF 4
ENDMDL
MODEL 2
REMARK VINA RESULT:      -7.5     37.872     43.346
REMARK  Name = Troglitazone.pdbqt.pdb
REMARK  4 active torsions:
REMARK  status: ('A' for Active; 'I' for Inactive)
REMARK    1  A    between atoms: C_1  and  O_2
REMARK    2  A    between atoms: C_1  and  C_18
REMARK    3  A    between atoms: O_2  and  C_3
REMARK    4  A    between atoms: C_26  and  O_32
REMARK                            x       y       z     vdW  Elec       q    Type
REMARK                         _______ _______ _______ _____ _____    ______ ____
ROOT
ATOM      1  C   UNL     1     145.514 124.511  97.093  0.00  0.00    +0.000 C 
ENDROOT
BRANCH   1   2
ATOM      2  C   UNL     1     145.624 124.551  98.561  0.00  0.00    +0.000 C 
ATOM      3  O   UNL     1     144.378 125.148  99.073  0.00  0.00    +0.000 OA
ATOM      4  C   UNL     1     144.318 125.950 100.219  0.00  0.00    +0.000 A 
ATOM      5  C   UNL     1     145.441 126.634 100.773  0.00  0.00    +0.000 A 
ATOM      6  C   UNL     1     143.049 126.123 100.810  0.00  0.00    +0.000 A 
ATOM      7  C   UNL     1     146.663 126.401 100.089  0.00  0.00    +0.000 C 
ATOM      8  C   UNL     1     145.316 127.449 101.904  0.00  0.00    +0.000 A 
ATOM      9  C   UNL     1     146.736 125.383  99.002  0.00  0.00    +0.000 C 
ATOM     10  C   UNL     1     144.051 127.598 102.494  0.00  0.00    +0.000 A 
ATOM     11  C   UNL     1     146.525 128.163 102.471  0.00  0.00    +0.000 C 
ATOM     12  C   UNL     1     142.925 126.943 101.953  0.00  0.00    +0.000 A 
ATOM     13  C   UNL     1     141.598 127.194 102.669  0.00  0.00    +0.000 C 
ATOM     14  C   UNL     1     141.846 125.429 100.182  0.00  0.00    +0.000 C 
ATOM     15  C   UNL     1     145.718 123.128  99.165  0.00  0.00    +0.000 C 
BRANCH  10  16
ATOM     16  O   UNL     1     143.900 128.401 103.613  0.00  0.00    +0.000 OA
ATOM     17  H   UNL     1     143.880 129.337 103.318  0.00  0.00    +0.000 HD
ENDBRANCH  10  16
ENDBRANCH   1   2
BRANCH   1  18
ATOM     18  O   UNL     1     145.418 124.485  95.763  0.00  0.00    +0.000 OA
BRANCH  18  19
ATOM     19  C   UNL     1     145.076 123.264  95.237  0.00  0.00    +0.000 C 
ATOM     20  C   UNL     1     145.776 122.619  94.215  0.00  0.00    +0.000 C 
ATOM     21  C   UNL     1     145.354 121.375  93.751  0.00  0.00    +0.000 C 
ATOM     22  C   UNL     1     144.230 120.773  94.310  0.00  0.00    +0.000 C 
ATOM     23  C   UNL     1     143.527 121.411  95.330  0.00  0.00    +0.000 C 
ATOM     24  C   UNL     1     143.952 122.655  95.793  0.00  0.00    +0.000 C 
ATOM     25  C   UNL     1     143.798 119.501  93.838  0.00  0.00    +0.000 C 
ATOM     26  C   UNL     1     143.359 118.242  93.369  0.00  0.00    +0.000 C 
ATOM     27  S   UNL     1     144.394 116.936  92.937  0.00  0.00    +0.000 S 
ATOM     28  C   UNL     1     143.037 115.906  92.530  0.00  0.00    +0.000 C 
ATOM     29  O   UNL     1     143.140 114.757  92.135  0.00  0.00    +0.000 OA
ATOM     30  N   UNL     1     141.874 116.577  92.726  0.00  0.00    +0.000 N 
ATOM     31  C   UNL     1     141.943 117.857  93.191  0.00  0.00    +0.000 C 
ATOM     32  H   UNL     1     140.986 116.135  92.546  0.00  0.00    +0.000 HD
ATOM     33  O   UNL     1     140.981 118.568  93.425  0.00  0.00    +0.000 OA
ENDBRANCH  18  19
ENDBRANCH   1  18
TORSDOF 4
ENDMDL
MODEL 3
REMARK VINA RESULT:      -7.2     23.181     26.048
REMARK  Name = Troglitazone.pdbqt.pdb
REMARK  4 active torsions:
REMARK  status: ('A' for Active; 'I' for Inactive)
REMARK    1  A    between atoms: C_1  and  O_2
REMARK    2  A    between atoms: C_1  and  C_18
REMARK    3  A    between atoms: O_2  and  C_3
REMARK    4  A    between atoms: C_26  and  O_32
REMARK                            x       y       z     vdW  Elec       q    Type
REMARK                         _______ _______ _______ _____ _____    ______ ____
ROOT
ATOM      1  C   UNL     1     136.709 115.182 113.440  0.00  0.00    +0.000 C 
ENDROOT
BRANCH   1   2
ATOM      2  C   UNL     1     137.778 115.257 112.430  0.00  0.00    +0.000 C 
ATOM      3  O   UNL     1     139.007 114.746 113.062  0.00  0.00    +0.000 OA
ATOM      4  C   UNL     1     140.288 115.226 112.762  0.00  0.00    +0.000 A 
ATOM      5  C   UNL     1     140.544 116.500 112.175  0.00  0.00    +0.000 A 
ATOM      6  C   UNL     1     141.376 114.406 113.127  0.00  0.00    +0.000 A 
ATOM      7  C   UNL     1     139.378 117.247 111.865  0.00  0.00    +0.000 C 
ATOM      8  C   UNL     1     141.849 116.942 111.927  0.00  0.00    +0.000 A 
ATOM      9  C   UNL     1     138.028 116.628 112.003  0.00  0.00    +0.000 C 
ATOM     10  C   UNL     1     142.924 116.109 112.277  0.00  0.00    +0.000 A 
ATOM     11  C   UNL     1     142.093 118.299 111.302  0.00  0.00    +0.000 C 
ATOM     12  C   UNL     1     142.692 114.852 112.873  0.00  0.00    +0.000 A 
ATOM     13  C   UNL     1     143.938 114.040 113.226  0.00  0.00    +0.000 C 
ATOM     14  C   UNL     1     141.094 113.068 113.800  0.00  0.00    +0.000 C 
ATOM     15  C   UNL     1     137.484 114.339 111.218  0.00  0.00    +0.000 C 
BRANCH  10  16
ATOM     16  O   UNL     1     144.225 116.523 112.044  0.00  0.00    +0.000 OA
ATOM     17  H   UNL     1     144.682 116.598 112.910  0.00  0.00    +0.000 HD
ENDBRANCH  10  16
ENDBRANCH   1   2
BRANCH   1  18
ATOM     18  O   UNL     1     135.737 115.124 114.351  0.00  0.00    +0.000 OA
BRANCH  18  19
ATOM     19  C   UNL     1     134.927 116.232 114.397  0.00  0.00    +0.000 C 
ATOM     20  C   UNL     1     134.645 117.050 113.301  0.00  0.00    +0.000 C 
ATOM     21  C   UNL     1     133.804 118.151 113.445  0.00  0.00    +0.000 C 
ATOM     22  C   UNL     1     133.243 118.435 114.687  0.00  0.00    +0.000 C 
ATOM     23  C   UNL     1     133.520 117.623 115.784  0.00  0.00    +0.000 C 
ATOM     24  C   UNL     1     134.361 116.522 115.638  0.00  0.00    +0.000 C 
ATOM     25  C   UNL     1     132.381 119.559 114.836  0.00  0.00    +0.000 C 
ATOM     26  C   UNL     1     131.532 120.678 114.992  0.00  0.00    +0.000 C 
ATOM     27  S   UNL     1     130.354 121.189 113.845  0.00  0.00    +0.000 S 
ATOM     28  C   UNL     1     129.852 122.529 114.856  0.00  0.00    +0.000 C 
ATOM     29  O   UNL     1     128.971 123.319 114.562  0.00  0.00    +0.000 OA
ATOM     30  N   UNL     1     130.583 122.543 115.998  0.00  0.00    +0.000 N 
ATOM     31  C   UNL     1     131.521 121.569 116.171  0.00  0.00    +0.000 C 
ATOM     32  H   UNL     1     130.426 123.247 116.703  0.00  0.00    +0.000 HD
ATOM     33  O   UNL     1     132.235 121.454 117.153  0.00  0.00    +0.000 OA
ENDBRANCH  18  19
ENDBRANCH   1  18
TORSDOF 4
ENDMDL
MODEL 4
REMARK VINA RESULT:      -7.1     38.259     43.711
REMARK  Name = Troglitazone.pdbqt.pdb
REMARK  4 active torsions:
REMARK  status: ('A' for Active; 'I' for Inactive)
REMARK    1  A    between atoms: C_1  and  O_2
REMARK    2  A    between atoms: C_1  and  C_18
REMARK    3  A    between atoms: O_2  and  C_3
REMARK    4  A    between atoms: C_26  and  O_32
REMARK                            x       y       z     vdW  Elec       q    Type
REMARK                         _______ _______ _______ _____ _____    ______ ____
ROOT
ATOM      1  C   UNL     1     146.527 126.443  96.664  0.00  0.00    +0.000 C 
ENDROOT
BRANCH   1   2
ATOM      2  C   UNL     1     146.357 125.923  98.031  0.00  0.00    +0.000 C 
ATOM      3  O   UNL     1     145.014 126.325  98.483  0.00  0.00    +0.000 OA
ATOM      4  C   UNL     1     144.706 126.637  99.813  0.00  0.00    +0.000 A 
ATOM      5  C   UNL     1     145.676 127.024 100.785  0.00  0.00    +0.000 A 
ATOM      6  C   UNL     1     143.342 126.617 100.172  0.00  0.00    +0.000 A 
ATOM      7  C   UNL     1     147.013 127.026 100.310  0.00  0.00    +0.000 C 
ATOM      8  C   UNL     1     145.306 127.356 102.094  0.00  0.00    +0.000 A 
ATOM      9  C   UNL     1     147.332 126.490  98.954  0.00  0.00    +0.000 C 
ATOM     10  C   UNL     1     143.948 127.315 102.445  0.00  0.00    +0.000 A 
ATOM     11  C   UNL     1     146.356 127.763 103.106  0.00  0.00    +0.000 C 
ATOM     12  C   UNL     1     142.972 126.950 101.494  0.00  0.00    +0.000 A 
ATOM     13  C   UNL     1     141.525 126.957 101.986  0.00  0.00    +0.000 C 
ATOM     14  C   UNL     1     142.309 126.252  99.114  0.00  0.00    +0.000 C 
ATOM     15  C   UNL     1     146.394 124.375  98.062  0.00  0.00    +0.000 C 
BRANCH  10  16
ATOM     16  O   UNL     1     143.556 127.641 103.733  0.00  0.00    +0.000 OA
ATOM     17  H   UNL     1     144.341 127.981 104.215  0.00  0.00    +0.000 HD
ENDBRANCH  10  16
ENDBRANCH   1   2
BRANCH   1  18
ATOM     18  O   UNL     1     146.676 126.905  95.421  0.00  0.00    +0.000 OA
BRANCH  18  19
ATOM     19  C   UNL     1     145.500 127.152  94.757  0.00  0.00    +0.000 C 
ATOM     20  C   UNL     1     145.330 127.029  93.377  0.00  0.00    +0.000 C 
ATOM     21  C   UNL     1     144.094 127.294  92.794  0.00  0.00    +0.000 C 
ATOM     22  C   UNL     1     143.022 127.685  93.593  0.00  0.00    +0.000 C 
ATOM     23  C   UNL     1     143.184 127.810  94.971  0.00  0.00    +0.000 C 
ATOM     24  C   UNL     1     144.422 127.542  95.552  0.00  0.00    +0.000 C 
ATOM     25  C   UNL     1     141.756 127.956  93.000  0.00  0.00    +0.000 C 
ATOM     26  C   UNL     1     140.500 128.235  92.417  0.00  0.00    +0.000 C 
ATOM     27  S   UNL     1     139.790 127.337  91.129  0.00  0.00    +0.000 S 
ATOM     28  C   UNL     1     138.361 128.352  91.120  0.00  0.00    +0.000 C 
ATOM     29  O   UNL     1     137.414 128.197  90.368  0.00  0.00    +0.000 OA
ATOM     30  N   UNL     1     138.474 129.316  92.067  0.00  0.00    +0.000 N 
ATOM     31  C   UNL     1     139.602 129.332  92.834  0.00  0.00    +0.000 C 
ATOM     32  H   UNL     1     137.739 129.991  92.208  0.00  0.00    +0.000 HD
ATOM     33  O   UNL     1     139.827 130.130  93.729  0.00  0.00    +0.000 OA
ENDBRANCH  18  19
ENDBRANCH   1  18
TORSDOF 4
ENDMDL
MODEL 5
REMARK VINA RESULT:      -7.1      3.701     10.980
REMARK  Name = Troglitazone.pdbqt.pdb
REMARK  4 active torsions:
REMARK  status: ('A' for Active; 'I' for Inactive)
REMARK    1  A    between atoms: C_1  and  O_2
REMARK    2  A    between atoms: C_1  and  C_18
REMARK    3  A    between atoms: O_2  and  C_3
REMARK    4  A    between atoms: C_26  and  O_32
REMARK                            x       y       z     vdW  Elec       q    Type
REMARK                         _______ _______ _______ _____ _____    ______ ____
ROOT
ATOM      1  C   UNL     1     135.235 124.907 143.677  0.00  0.00    +0.000 C 
ENDROOT
BRANCH   1   2
ATOM      2  C   UNL     1     136.052 126.082 144.026  0.00  0.00    +0.000 C 
ATOM      3  O   UNL     1     137.234 125.587 144.752  0.00  0.00    +0.000 OA
ATOM      4  C   UNL     1     137.864 126.297 145.781  0.00  0.00    +0.000 A 
ATOM      5  C   UNL     1     137.234 127.330 146.537  0.00  0.00    +0.000 A 
ATOM      6  C   UNL     1     139.180 125.910 146.109  0.00  0.00    +0.000 A 
ATOM      7  C   UNL     1     135.907 127.625 146.132  0.00  0.00    +0.000 C 
ATOM      8  C   UNL     1     137.903 127.985 147.578  0.00  0.00    +0.000 A 
ATOM      9  C   UNL     1     135.337 127.000 144.903  0.00  0.00    +0.000 C 
ATOM     10  C   UNL     1     139.219 127.604 147.883  0.00  0.00    +0.000 A 
ATOM     11  C   UNL     1     137.211 129.078 148.365  0.00  0.00    +0.000 C 
ATOM     12  C   UNL     1     139.854 126.574 147.158  0.00  0.00    +0.000 A 
ATOM     13  C   UNL     1     141.280 126.233 147.591  0.00  0.00    +0.000 C 
ATOM     14  C   UNL     1     139.826 124.771 145.330  0.00  0.00    +0.000 C 
ATOM     15  C   UNL     1     136.574 126.810 142.763  0.00  0.00    +0.000 C 
BRANCH  10  16
ATOM     16  O   UNL     1     139.902 128.235 148.910  0.00  0.00    +0.000 OA
ATOM     17  H   UNL     1     139.280 128.361 149.660  0.00  0.00    +0.000 HD
ENDBRANCH  10  16
ENDBRANCH   1   2
BRANCH   1  18
ATOM     18  O   UNL     1     134.504 123.837 143.363  0.00  0.00    +0.000 OA
BRANCH  18  19
ATOM     19  C   UNL     1     134.629 123.419 142.061  0.00  0.00    +0.000 C 
ATOM     20  C   UNL     1     133.659 122.692 141.367  0.00  0.00    +0.000 C 
ATOM     21  C   UNL     1     133.876 122.318 140.043  0.00  0.00    +0.000 C 
ATOM     22  C   UNL     1     135.064 122.671 139.410  0.00  0.00    +0.000 C 
ATOM     23  C   UNL     1     136.036 123.396 140.097  0.00  0.00    +0.000 C 
ATOM     24  C   UNL     1     135.817 123.770 141.421  0.00  0.00    +0.000 C 
ATOM     25  C   UNL     1     135.287 122.292 138.056  0.00  0.00    +0.000 C 
ATOM     26  C   UNL     1     135.518 121.911 136.715  0.00  0.00    +0.000 C 
ATOM     27  S   UNL     1     134.330 121.923 135.468  0.00  0.00    +0.000 S 
ATOM     28  C   UNL     1     135.478 121.351 134.274  0.00  0.00    +0.000 C 
ATOM     29  O   UNL     1     135.209 121.155 133.101  0.00  0.00    +0.000 OA
ATOM     30  N   UNL     1     136.692 121.170 134.853  0.00  0.00    +0.000 N 
ATOM     31  C   UNL     1     136.818 121.456 136.180  0.00  0.00    +0.000 C 
ATOM     32  H   UNL     1     137.478 120.847 134.312  0.00  0.00    +0.000 HD
ATOM     33  O   UNL     1     137.851 121.353 136.821  0.00  0.00    +0.000 OA
ENDBRANCH  18  19
ENDBRANCH   1  18
TORSDOF 4
ENDMDL
MODEL 6
REMARK VINA RESULT:      -6.9      3.552      9.561
REMARK  Name = Troglitazone.pdbqt.pdb
REMARK  4 active torsions:
REMARK  status: ('A' for Active; 'I' for Inactive)
REMARK    1  A    between atoms: C_1  and  O_2
REMARK    2  A    between atoms: C_1  and  C_18
REMARK    3  A    between atoms: O_2  and  C_3
REMARK    4  A    between atoms: C_26  and  O_32
REMARK                            x       y       z     vdW  Elec       q    Type
REMARK                         _______ _______ _______ _____ _____    ______ ____
ROOT
ATOM      1  C   UNL     1     134.081 121.496 140.564  0.00  0.00    +0.000 C 
ENDROOT
BRANCH   1   2
ATOM      2  C   UNL     1     133.697 122.411 141.652  0.00  0.00    +0.000 C 
ATOM      3  O   UNL     1     134.790 123.388 141.803  0.00  0.00    +0.000 OA
ATOM      4  C   UNL     1     135.160 123.951 143.031  0.00  0.00    +0.000 A 
ATOM      5  C   UNL     1     134.858 123.369 144.297  0.00  0.00    +0.000 A 
ATOM      6  C   UNL     1     135.928 125.133 142.982  0.00  0.00    +0.000 A 
ATOM      7  C   UNL     1     134.096 122.174 144.226  0.00  0.00    +0.000 C 
ATOM      8  C   UNL     1     135.282 123.961 145.493  0.00  0.00    +0.000 A 
ATOM      9  C   UNL     1     133.540 121.711 142.921  0.00  0.00    +0.000 C 
ATOM     10  C   UNL     1     136.029 125.147 145.434  0.00  0.00    +0.000 A 
ATOM     11  C   UNL     1     134.947 123.322 146.824  0.00  0.00    +0.000 C 
ATOM     12  C   UNL     1     136.352 125.730 144.190  0.00  0.00    +0.000 A 
ATOM     13  C   UNL     1     137.184 127.011 144.248  0.00  0.00    +0.000 C 
ATOM     14  C   UNL     1     136.289 125.720 141.623  0.00  0.00    +0.000 C 
ATOM     15  C   UNL     1     132.423 123.216 141.297  0.00  0.00    +0.000 C 
BRANCH  10  16
ATOM     16  O   UNL     1     136.462 125.752 146.602  0.00  0.00    +0.000 OA
ATOM     17  H   UNL     1     136.195 125.184 147.358  0.00  0.00    +0.000 HD
ENDBRANCH  10  16
ENDBRANCH   1   2
BRANCH   1  18
ATOM     18  O   UNL     1     134.429 120.676 139.571  0.00  0.00    +0.000 OA
BRANCH  18  19
ATOM     19  C   UNL     1     135.174 121.262 138.578  0.00  0.00    +0.000 C 
ATOM     20  C   UNL     1     136.159 122.228 138.794  0.00  0.00    +0.000 C 
ATOM     21  C   UNL     1     136.868 122.760 137.720  0.00  0.00    +0.000 C 
ATOM     22  C   UNL     1     136.593 122.326 136.426  0.00  0.00    +0.000 C 
ATOM     23  C   UNL     1     135.612 121.363 136.203  0.00  0.00    +0.000 C 
ATOM     24  C   UNL     1     134.904 120.831 137.279  0.00  0.00    +0.000 C 
ATOM     25  C   UNL     1     137.319 122.867 135.327  0.00  0.00    +0.000 C 
ATOM     26  C   UNL     1     138.029 123.406 134.230  0.00  0.00    +0.000 C 
ATOM     27  S   UNL     1     139.713 123.768 134.229  0.00  0.00    +0.000 S 
ATOM     28  C   UNL     1     139.660 124.329 132.570  0.00  0.00    +0.000 C 
ATOM     29  O   UNL     1     140.627 124.740 131.952  0.00  0.00    +0.000 OA
ATOM     30  N   UNL     1     138.395 124.229 132.090  0.00  0.00    +0.000 N 
ATOM     31  C   UNL     1     137.433 123.728 132.917  0.00  0.00    +0.000 C 
ATOM     32  H   UNL     1     138.178 124.503 131.145  0.00  0.00    +0.000 HD
ATOM     33  O   UNL     1     136.263 123.570 132.612  0.00  0.00    +0.000 OA
ENDBRANCH  18  19
ENDBRANCH   1  18
TORSDOF 4
ENDMDL
MODEL 7
REMARK VINA RESULT:      -6.9     37.882     44.022
REMARK  Name = Troglitazone.pdbqt.pdb
REMARK  4 active torsions:
REMARK  status: ('A' for Active; 'I' for Inactive)
REMARK    1  A    between atoms: C_1  and  O_2
REMARK    2  A    between atoms: C_1  and  C_18
REMARK    3  A    between atoms: O_2  and  C_3
REMARK    4  A    between atoms: C_26  and  O_32
REMARK                            x       y       z     vdW  Elec       q    Type
REMARK                         _______ _______ _______ _____ _____    ______ ____
ROOT
ATOM      1  C   UNL     1     142.441 123.106  97.368  0.00  0.00    +0.000 C 
ENDROOT
BRANCH   1   2
ATOM      2  C   UNL     1     142.164 124.428  97.954  0.00  0.00    +0.000 C 
ATOM      3  O   UNL     1     143.335 124.794  98.770  0.00  0.00    +0.000 OA
ATOM      4  C   UNL     1     143.253 125.547  99.947  0.00  0.00    +0.000 A 
ATOM      5  C   UNL     1     142.065 125.682 100.725  0.00  0.00    +0.000 A 
ATOM      6  C   UNL     1     144.444 126.151 100.402  0.00  0.00    +0.000 A 
ATOM      7  C   UNL     1     140.932 125.021 100.183  0.00  0.00    +0.000 C 
ATOM      8  C   UNL     1     142.049 126.423 101.913  0.00  0.00    +0.000 A 
ATOM      9  C   UNL     1     140.997 124.404  98.826  0.00  0.00    +0.000 C 
ATOM     10  C   UNL     1     143.236 127.034 102.346  0.00  0.00    +0.000 A 
ATOM     11  C   UNL     1     140.774 126.550 102.719  0.00  0.00    +0.000 C 
ATOM     12  C   UNL     1     144.425 126.899 101.599  0.00  0.00    +0.000 A 
ATOM     13  C   UNL     1     145.659 127.594 102.176  0.00  0.00    +0.000 C 
ATOM     14  C   UNL     1     145.720 125.959  99.591  0.00  0.00    +0.000 C 
ATOM     15  C   UNL     1     142.022 125.517  96.862  0.00  0.00    +0.000 C 
BRANCH  10  16
ATOM     16  O   UNL     1     143.247 127.770 103.519  0.00  0.00    +0.000 OA
ATOM     17  H   UNL     1     143.348 128.719 103.284  0.00  0.00    +0.000 HD
ENDBRANCH  10  16
ENDBRANCH   1   2
BRANCH   1  18
ATOM     18  O   UNL     1     142.693 121.904  96.847  0.00  0.00    +0.000 OA
BRANCH  18  19
ATOM     19  C   UNL     1     143.636 121.898  95.849  0.00  0.00    +0.000 C 
ATOM     20  C   UNL     1     144.565 122.918  95.633  0.00  0.00    +0.000 C 
ATOM     21  C   UNL     1     145.488 122.819  94.595  0.00  0.00    +0.000 C 
ATOM     22  C   UNL     1     145.484 121.697  93.770  0.00  0.00    +0.000 C 
ATOM     23  C   UNL     1     144.559 120.676  93.980  0.00  0.00    +0.000 C 
ATOM     24  C   UNL     1     143.637 120.777  95.019  0.00  0.00    +0.000 C 
ATOM     25  C   UNL     1     146.428 121.593  92.709  0.00  0.00    +0.000 C 
ATOM     26  C   UNL     1     147.357 121.486  91.650  0.00  0.00    +0.000 C 
ATOM     27  S   UNL     1     149.008 121.969  91.734  0.00  0.00    +0.000 S 
ATOM     28  C   UNL     1     149.308 121.473  90.081  0.00  0.00    +0.000 C 
ATOM     29  O   UNL     1     150.387 121.565  89.521  0.00  0.00    +0.000 OA
ATOM     30  N   UNL     1     148.170 120.977  89.535  0.00  0.00    +0.000 N 
ATOM     31  C   UNL     1     147.051 120.933  90.314  0.00  0.00    +0.000 C 
ATOM     32  H   UNL     1     148.157 120.637  88.586  0.00  0.00    +0.000 HD
ATOM     33  O   UNL     1     145.969 120.500  89.957  0.00  0.00    +0.000 OA
ENDBRANCH  18  19
ENDBRANCH   1  18
TORSDOF 4
ENDMDL
MODEL 8
REMARK VINA RESULT:      -6.8     14.594     17.601
REMARK  Name = Troglitazone.pdbqt.pdb
REMARK  4 active torsions:
REMARK  status: ('A' for Active; 'I' for Inactive)
REMARK    1  A    between atoms: C_1  and  O_2
REMARK    2  A    between atoms: C_1  and  C_18
REMARK    3  A    between atoms: O_2  and  C_3
REMARK    4  A    between atoms: C_26  and  O_32
REMARK                            x       y       z     vdW  Elec       q    Type
REMARK                         _______ _______ _______ _____ _____    ______ ____
ROOT
ATOM      1  C   UNL     1     152.915 127.731 140.753  0.00  0.00    +0.000 C 
ENDROOT
BRANCH   1   2
ATOM      2  C   UNL     1     152.772 128.231 139.374  0.00  0.00    +0.000 C 
ATOM      3  O   UNL     1     153.381 129.572 139.334  0.00  0.00    +0.000 OA
ATOM      4  C   UNL     1     152.912 130.609 138.518  0.00  0.00    +0.000 A 
ATOM      5  C   UNL     1     151.595 130.663 137.976  0.00  0.00    +0.000 A 
ATOM      6  C   UNL     1     153.798 131.682 138.283  0.00  0.00    +0.000 A 
ATOM      7  C   UNL     1     150.786 129.541 138.290  0.00  0.00    +0.000 C 
ATOM      8  C   UNL     1     151.171 131.743 137.192  0.00  0.00    +0.000 A 
ATOM      9  C   UNL     1     151.374 128.358 138.983  0.00  0.00    +0.000 C 
ATOM     10  C   UNL     1     152.066 132.795 136.948  0.00  0.00    +0.000 A 
ATOM     11  C   UNL     1     149.766 131.775 136.628  0.00  0.00    +0.000 C 
ATOM     12  C   UNL     1     153.369 132.769 137.489  0.00  0.00    +0.000 A 
ATOM     13  C   UNL     1     154.250 133.977 137.171  0.00  0.00    +0.000 C 
ATOM     14  C   UNL     1     155.187 131.639 138.908  0.00  0.00    +0.000 C 
ATOM     15  C   UNL     1     153.556 127.354 138.366  0.00  0.00    +0.000 C 
BRANCH  10  16
ATOM     16  O   UNL     1     151.671 133.876 136.177  0.00  0.00    +0.000 OA
ATOM     17  H   UNL     1     151.487 134.631 136.779  0.00  0.00    +0.000 HD
ENDBRANCH  10  16
ENDBRANCH   1   2
BRANCH   1  18
ATOM     18  O   UNL     1     153.049 127.270 141.997  0.00  0.00    +0.000 OA
BRANCH  18  19
ATOM     19  C   UNL     1     151.866 126.994 142.636  0.00  0.00    +0.000 C 
ATOM     20  C   UNL     1     151.042 125.906 142.340  0.00  0.00    +0.000 C 
ATOM     21  C   UNL     1     149.861 125.706 143.051  0.00  0.00    +0.000 C 
ATOM     22  C   UNL     1     149.502 126.594 144.060  0.00  0.00    +0.000 C 
ATOM     23  C   UNL     1     150.319 127.682 144.361  0.00  0.00    +0.000 C 
ATOM     24  C   UNL     1     151.501 127.880 143.650  0.00  0.00    +0.000 C 
ATOM     25  C   UNL     1     148.296 126.391 144.790  0.00  0.00    +0.000 C 
ATOM     26  C   UNL     1     147.096 126.199 145.511  0.00  0.00    +0.000 C 
ATOM     27  S   UNL     1     146.490 124.671 146.027  0.00  0.00    +0.000 S 
ATOM     28  C   UNL     1     145.090 125.406 146.783  0.00  0.00    +0.000 C 
ATOM     29  O   UNL     1     144.221 124.785 147.371  0.00  0.00    +0.000 OA
ATOM     30  N   UNL     1     145.129 126.752 146.615  0.00  0.00    +0.000 N 
ATOM     31  C   UNL     1     146.188 127.283 145.941  0.00  0.00    +0.000 C 
ATOM     32  H   UNL     1     144.402 127.340 146.990  0.00  0.00    +0.000 HD
ATOM     33  O   UNL     1     146.357 128.473 145.732  0.00  0.00    +0.000 OA
ENDBRANCH  18  19
ENDBRANCH   1  18
TORSDOF 4
ENDMDL
MODEL 9
REMARK VINA RESULT:      -6.8     38.780     43.911
REMARK  Name = Troglitazone.pdbqt.pdb
REMARK  4 active torsions:
REMARK  status: ('A' for Active; 'I' for Inactive)
REMARK    1  A    between atoms: C_1  and  O_2
REMARK    2  A    between atoms: C_1  and  C_18
REMARK    3  A    between atoms: O_2  and  C_3
REMARK    4  A    between atoms: C_26  and  O_32
REMARK                            x       y       z     vdW  Elec       q    Type
REMARK                         _______ _______ _______ _____ _____    ______ ____
ROOT
ATOM      1  C   UNL     1     147.161 126.456  98.713  0.00  0.00    +0.000 C 
ENDROOT
BRANCH   1   2
ATOM      2  C   UNL     1     146.275 126.090  99.832  0.00  0.00    +0.000 C 
ATOM      3  O   UNL     1     145.126 125.371  99.256  0.00  0.00    +0.000 OA
ATOM      4  C   UNL     1     143.829 125.441  99.780  0.00  0.00    +0.000 A 
ATOM      5  C   UNL     1     143.364 126.497 100.618  0.00  0.00    +0.000 A 
ATOM      6  C   UNL     1     142.931 124.424  99.392  0.00  0.00    +0.000 A 
ATOM      7  C   UNL     1     144.346 127.472 100.930  0.00  0.00    +0.000 C 
ATOM      8  C   UNL     1     142.045 126.531 101.087  0.00  0.00    +0.000 A 
ATOM      9  C   UNL     1     145.769 127.264 100.531  0.00  0.00    +0.000 C 
ATOM     10  C   UNL     1     141.166 125.504 100.710  0.00  0.00    +0.000 A 
ATOM     11  C   UNL     1     141.578 127.664 101.977  0.00  0.00    +0.000 C 
ATOM     12  C   UNL     1     141.602 124.459  99.869  0.00  0.00    +0.000 A 
ATOM     13  C   UNL     1     140.552 123.407  99.511  0.00  0.00    +0.000 C 
ATOM     14  C   UNL     1     143.423 123.328  98.455  0.00  0.00    +0.000 C 
ATOM     15  C   UNL     1     146.969 125.113 100.812  0.00  0.00    +0.000 C 
BRANCH  10  16
ATOM     16  O   UNL     1     139.855 125.516 101.159  0.00  0.00    +0.000 OA
ATOM     17  H   UNL     1     139.661 126.411 101.515  0.00  0.00    +0.000 HD
ENDBRANCH  10  16
ENDBRANCH   1   2
BRANCH   1  18
ATOM     18  O   UNL     1     147.955 126.788  97.694  0.00  0.00    +0.000 OA
BRANCH  18  19
ATOM     19  C   UNL     1     148.034 125.844  96.700  0.00  0.00    +0.000 C 
ATOM     20  C   UNL     1     149.229 125.364  96.159  0.00  0.00    +0.000 C 
ATOM     21  C   UNL     1     149.208 124.399  95.155  0.00  0.00    +0.000 C 
ATOM     22  C   UNL     1     147.989 123.912  94.689  0.00  0.00    +0.000 C 
ATOM     23  C   UNL     1     146.794 124.387  95.224  0.00  0.00    +0.000 C 
ATOM     24  C   UNL     1     146.817 125.352  96.229  0.00  0.00    +0.000 C 
ATOM     25  C   UNL     1     147.965 122.924  93.664  0.00  0.00    +0.000 C 
ATOM     26  C   UNL     1     147.933 121.950  92.641  0.00  0.00    +0.000 C 
ATOM     27  S   UNL     1     149.022 120.621  92.512  0.00  0.00    +0.000 S 
ATOM     28  C   UNL     1     148.237 120.033  91.060  0.00  0.00    +0.000 C 
ATOM     29  O   UNL     1     148.579 119.033  90.451  0.00  0.00    +0.000 OA
ATOM     30  N   UNL     1     147.206 120.850  90.730  0.00  0.00    +0.000 N 
ATOM     31  C   UNL     1     146.953 121.920  91.535  0.00  0.00    +0.000 C 
ATOM     32  H   UNL     1     146.636 120.661  89.920  0.00  0.00    +0.000 HD
ATOM     33  O   UNL     1     146.052 122.724  91.366  0.00  0.00    +0.000 OA
ENDBRANCH  18  19
ENDBRANCH   1  18
TORSDOF 4
ENDMDL
