MODEL 1
REMARK VINA RESULT:      -7.0      0.000      0.000
REMARK  Name = 
REMARK  19 active torsions:
REMARK  status: ('A' for Active; 'I' for Inactive)
REMARK    1  A    between atoms: O_1  and  C_20
REMARK    2  A    between atoms: O_1  and  C_36
REMARK    3  A    between atoms: O_2  and  C_18
REMARK    4  A    between atoms: O_3  and  C_28
REMARK    5  A    between atoms: O_3  and  C_42
REMARK    6  A    between atoms: O_5  and  C_34
REMARK    7  A    between atoms: O_5  and  C_50
REMARK    8  A    between atoms: O_7  and  C_40
REMARK    9  A    between atoms: O_7  and  C_56
REMARK   10  A    between atoms: O_9  and  C_46
REMARK   11  A    between atoms: N_11  and  C_30
REMARK   12  A    between atoms: C_17  and  C_23
REMARK   13  A    between atoms: C_18  and  C_28
REMARK   14  A    between atoms: C_23  and  C_32
REMARK   15  A    between atoms: C_33  and  C_35
REMARK   16  A    between atoms: C_35  and  C_40
REMARK   17  A    between atoms: C_36  and  C_41
REMARK   18  A    between atoms: C_46  and  C_53
REMARK   19  A    between atoms: C_53  and  C_57
REMARK                            x       y       z     vdW  Elec       q    Type
REMARK                         _______ _______ _______ _____ _____    ______ ____
ROOT
ATOM      1  N   UNL     1     147.037 126.208  96.219  0.00  0.00    +0.000 NA
ATOM      2  N   UNL     1     143.678 123.090  97.551  0.00  0.00    +0.000 N 
ATOM      3  C   UNL     1     145.374 124.714  96.882  0.00  0.00    +0.000 C 
ATOM      4  C   UNL     1     145.589 126.190  96.501  0.00  0.00    +0.000 C 
ATOM      5  C   UNL     1     144.033 124.538  97.622  0.00  0.00    +0.000 C 
ATOM      6  C   UNL     1     145.043 127.222  97.593  0.00  0.00    +0.000 C 
ATOM      7  C   UNL     1     143.913 125.259  98.975  0.00  0.00    +0.000 C 
ATOM      8  C   UNL     1     146.691 124.278  97.553  0.00  0.00    +0.000 C 
ATOM      9  C   UNL     1     144.790 126.554  99.016  0.00  0.00    +0.000 C 
ATOM     10  C   UNL     1     145.097 123.711  95.779  0.00  0.00    +0.000 A 
ATOM     11  C   UNL     1     147.703 125.367  97.206  0.00  0.00    +0.000 C 
ATOM     12  C   UNL     1     144.163 122.775  96.244  0.00  0.00    +0.000 A 
ATOM     13  C   UNL     1     146.011 128.390  97.795  0.00  0.00    +0.000 C 
ATOM     14  C   UNL     1     147.615 127.536  96.082  0.00  0.00    +0.000 C 
ATOM     15  C   UNL     1     147.151 128.524  97.102  0.00  0.00    +0.000 C 
ATOM     16  C   UNL     1     145.668 123.617  94.514  0.00  0.00    +0.000 A 
ATOM     17  C   UNL     1     142.281 122.725  97.784  0.00  0.00    +0.000 C 
ATOM     18  C   UNL     1     143.821 121.700  95.447  0.00  0.00    +0.000 A 
ATOM     19  C   UNL     1     145.336 122.535  93.675  0.00  0.00    +0.000 A 
ATOM     20  C   UNL     1     144.408 121.575  94.177  0.00  0.00    +0.000 A 
ENDROOT
BRANCH  19  23
ATOM     21  N   UNL     1     148.153 122.378  88.516  0.00  0.00    +0.000 NA
ATOM     22  N   UNL     1     147.004 120.256  93.204  0.00  0.00    +0.000 N 
ATOM     23  C   UNL     1     145.974 122.364  92.239  0.00  0.00    +0.000 C 
ATOM     24  C   UNL     1     147.157 123.410  92.000  0.00  0.00    +0.000 C 
ATOM     25  C   UNL     1     146.587 120.932  92.069  0.00  0.00    +0.000 A 
ATOM     26  C   UNL     1     148.092 123.143  90.809  0.00  0.00    +0.000 C 
ATOM     27  C   UNL     1     149.297 124.078  90.715  0.00  0.00    +0.000 C 
ATOM     28  C   UNL     1     147.404 123.197  89.453  0.00  0.00    +0.000 C 
ATOM     29  C   UNL     1     146.940 120.117  90.979  0.00  0.00    +0.000 A 
ATOM     30  C   UNL     1     150.211 123.717  89.506  0.00  0.00    +0.000 C 
ATOM     31  C   UNL     1     149.529 122.891  88.340  0.00  0.00    +0.000 C 
ATOM     32  C   UNL     1     146.825 120.341  89.479  0.00  0.00    +0.000 C 
ATOM     33  C   UNL     1     148.113 120.924  88.822  0.00  0.00    +0.000 C 
ATOM     34  C   UNL     1     147.531 118.917  91.525  0.00  0.00    +0.000 A 
ATOM     35  C   UNL     1     147.551 119.040  92.906  0.00  0.00    +0.000 A 
ATOM     36  C   UNL     1     148.067 117.740  90.955  0.00  0.00    +0.000 A 
ATOM     37  C   UNL     1     148.067 118.054  93.757  0.00  0.00    +0.000 A 
ATOM     38  C   UNL     1     148.587 116.741  91.786  0.00  0.00    +0.000 A 
ATOM     39  C   UNL     1     148.586 116.898  93.168  0.00  0.00    +0.000 A 
ATOM     40  H   UNL     1     146.900 120.603  94.148  0.00  0.00    +0.000 HD
BRANCH  23  42
ATOM     41  O   UNL     1     144.187 121.803  90.575  0.00  0.00    +0.000 OA
ATOM     42  C   UNL     1     144.801 122.630  91.238  0.00  0.00    +0.000 C 
BRANCH  42  43
ATOM     43  O   UNL     1     144.504 123.972  91.211  0.00  0.00    +0.000 OA
ATOM     44  C   UNL     1     143.399 124.304  90.371  0.00  0.00    +0.000 C 
ENDBRANCH  42  43
ENDBRANCH  23  42
BRANCH  30  45
ATOM     45  O   UNL     1     150.623 124.989  88.946  0.00  0.00    +0.000 OA
ATOM     46  H   UNL     1     151.584 125.067  89.079  0.00  0.00    +0.000 HD
ENDBRANCH  30  45
BRANCH  30  47
ATOM     47  C   UNL     1     151.538 123.071  89.970  0.00  0.00    +0.000 C 
ATOM     48  C   UNL     1     151.453 121.647  90.493  0.00  0.00    +0.000 C 
ENDBRANCH  30  47
ENDBRANCH  19  23
BRANCH   7  49
ATOM     49  O   UNL     1     142.522 125.712  99.054  0.00  0.00    +0.000 OA
ATOM     50  H   UNL     1     142.371 125.954  99.991  0.00  0.00    +0.000 HD
ENDBRANCH   7  49
BRANCH   7  52
ATOM     51  O   UNL     1     145.080 123.483 100.260  0.00  0.00    +0.000 OA
ATOM     52  C   UNL     1     144.190 124.318 100.174  0.00  0.00    +0.000 C 
BRANCH  52  53
ATOM     53  O   UNL     1     143.321 124.608 101.198  0.00  0.00    +0.000 OA
ATOM     54  C   UNL     1     143.965 124.921 102.434  0.00  0.00    +0.000 C 
ENDBRANCH  52  53
ENDBRANCH   7  52
BRANCH  20  55
ATOM     55  O   UNL     1     144.057 120.546  93.341  0.00  0.00    +0.000 OA
ATOM     56  C   UNL     1     143.547 119.385  93.990  0.00  0.00    +0.000 C 
ENDBRANCH  20  55
BRANCH   6  57
ATOM     57  C   UNL     1     143.693 127.856  97.092  0.00  0.00    +0.000 C 
ATOM     58  C   UNL     1     143.343 127.641  95.618  0.00  0.00    +0.000 C 
ENDBRANCH   6  57
BRANCH   9  59
ATOM     59  O   UNL     1     146.075 126.322  99.641  0.00  0.00    +0.000 OA
BRANCH  59  61
ATOM     60  O   UNL     1     145.660 127.854 101.293  0.00  0.00    +0.000 OA
ATOM     61  C   UNL     1     146.293 126.906 100.850  0.00  0.00    +0.000 C 
ATOM     62  C   UNL     1     147.398 126.200 101.573  0.00  0.00    +0.000 C 
ENDBRANCH  59  61
ENDBRANCH   9  59
TORSDOF 12
ENDMDL
MODEL 2
REMARK VINA RESULT:      -6.9      4.117      6.617
REMARK  Name = 
REMARK  19 active torsions:
REMARK  status: ('A' for Active; 'I' for Inactive)
REMARK    1  A    between atoms: O_1  and  C_20
REMARK    2  A    between atoms: O_1  and  C_36
REMARK    3  A    between atoms: O_2  and  C_18
REMARK    4  A    between atoms: O_3  and  C_28
REMARK    5  A    between atoms: O_3  and  C_42
REMARK    6  A    between atoms: O_5  and  C_34
REMARK    7  A    between atoms: O_5  and  C_50
REMARK    8  A    between atoms: O_7  and  C_40
REMARK    9  A    between atoms: O_7  and  C_56
REMARK   10  A    between atoms: O_9  and  C_46
REMARK   11  A    between atoms: N_11  and  C_30
REMARK   12  A    between atoms: C_17  and  C_23
REMARK   13  A    between atoms: C_18  and  C_28
REMARK   14  A    between atoms: C_23  and  C_32
REMARK   15  A    between atoms: C_33  and  C_35
REMARK   16  A    between atoms: C_35  and  C_40
REMARK   17  A    between atoms: C_36  and  C_41
REMARK   18  A    between atoms: C_46  and  C_53
REMARK   19  A    between atoms: C_53  and  C_57
REMARK                            x       y       z     vdW  Elec       q    Type
REMARK                         _______ _______ _______ _____ _____    ______ ____
ROOT
ATOM      1  N   UNL     1     144.688 124.866  96.284  0.00  0.00    +0.000 NA
ATOM      2  N   UNL     1     141.801 128.354  97.794  0.00  0.00    +0.000 N 
ATOM      3  C   UNL     1     143.305 126.580  97.048  0.00  0.00    +0.000 C 
ATOM      4  C   UNL     1     144.781 126.150  97.004  0.00  0.00    +0.000 C 
ATOM      5  C   UNL     1     143.094 127.676  98.111  0.00  0.00    +0.000 C 
ATOM      6  C   UNL     1     145.489 126.135  98.437  0.00  0.00    +0.000 C 
ATOM      7  C   UNL     1     143.369 127.262  99.566  0.00  0.00    +0.000 C 
ATOM      8  C   UNL     1     142.506 125.264  97.123  0.00  0.00    +0.000 C 
ATOM      9  C   UNL     1     144.455 126.139  99.648  0.00  0.00    +0.000 C 
ATOM     10  C   UNL     1     142.741 127.362  95.877  0.00  0.00    +0.000 A 
ATOM     11  C   UNL     1     143.500 124.165  96.755  0.00  0.00    +0.000 C 
ATOM     12  C   UNL     1     141.844 128.322  96.366  0.00  0.00    +0.000 A 
ATOM     13  C   UNL     1     146.393 124.911  98.605  0.00  0.00    +0.000 C 
ATOM     14  C   UNL     1     145.901 124.062  96.308  0.00  0.00    +0.000 C 
ATOM     15  C   UNL     1     146.578 124.000  97.639  0.00  0.00    +0.000 C 
ATOM     16  C   UNL     1     142.966 127.190  94.515  0.00  0.00    +0.000 A 
ATOM     17  C   UNL     1     141.577 129.681  98.365  0.00  0.00    +0.000 C 
ATOM     18  C   UNL     1     141.125 129.099  95.477  0.00  0.00    +0.000 A 
ATOM     19  C   UNL     1     142.253 127.970  93.584  0.00  0.00    +0.000 A 
ATOM     20  C   UNL     1     141.321 128.919  94.098  0.00  0.00    +0.000 A 
ENDROOT
BRANCH  19  23
ATOM     21  N   UNL     1     142.925 128.004  87.742  0.00  0.00    +0.000 NA
ATOM     22  N   UNL     1     144.900 127.490  92.603  0.00  0.00    +0.000 N 
ATOM     23  C   UNL     1     142.450 127.798  92.024  0.00  0.00    +0.000 C 
ATOM     24  C   UNL     1     142.309 129.195  91.263  0.00  0.00    +0.000 C 
ATOM     25  C   UNL     1     143.879 127.242  91.701  0.00  0.00    +0.000 A 
ATOM     26  C   UNL     1     142.812 129.250  89.812  0.00  0.00    +0.000 C 
ATOM     27  C   UNL     1     142.801 130.641  89.179  0.00  0.00    +0.000 C 
ATOM     28  C   UNL     1     142.054 128.341  88.855  0.00  0.00    +0.000 C 
ATOM     29  C   UNL     1     144.474 126.583  90.610  0.00  0.00    +0.000 A 
ATOM     30  C   UNL     1     143.360 130.615  87.725  0.00  0.00    +0.000 C 
ATOM     31  C   UNL     1     143.322 129.213  86.989  0.00  0.00    +0.000 C 
ATOM     32  C   UNL     1     143.899 126.126  89.279  0.00  0.00    +0.000 C 
ATOM     33  C   UNL     1     144.083 127.152  88.121  0.00  0.00    +0.000 C 
ATOM     34  C   UNL     1     145.871 126.410  90.935  0.00  0.00    +0.000 A 
ATOM     35  C   UNL     1     146.096 126.983  92.178  0.00  0.00    +0.000 A 
ATOM     36  C   UNL     1     146.969 125.826  90.265  0.00  0.00    +0.000 A 
ATOM     37  C   UNL     1     147.352 127.001  92.798  0.00  0.00    +0.000 A 
ATOM     38  C   UNL     1     148.233 125.832  90.866  0.00  0.00    +0.000 A 
ATOM     39  C   UNL     1     148.419 126.412  92.116  0.00  0.00    +0.000 A 
ATOM     40  H   UNL     1     144.782 127.969  93.486  0.00  0.00    +0.000 HD
BRANCH  23  42
ATOM     41  O   UNL     1     141.360 125.592  91.552  0.00  0.00    +0.000 OA
ATOM     42  C   UNL     1     141.317 126.816  91.577  0.00  0.00    +0.000 C 
BRANCH  42  43
ATOM     43  O   UNL     1     140.194 127.527  91.224  0.00  0.00    +0.000 OA
ATOM     44  C   UNL     1     138.974 126.808  91.402  0.00  0.00    +0.000 C 
ENDBRANCH  42  43
ENDBRANCH  23  42
BRANCH  30  45
ATOM     45  O   UNL     1     142.509 131.516  86.974  0.00  0.00    +0.000 OA
ATOM     46  H   UNL     1     143.036 131.863  86.232  0.00  0.00    +0.000 HD
ENDBRANCH  30  45
BRANCH  30  47
ATOM     47  C   UNL     1     144.758 131.272  87.642  0.00  0.00    +0.000 C 
ATOM     48  C   UNL     1     145.220 131.712  86.264  0.00  0.00    +0.000 C 
ENDBRANCH  30  47
ENDBRANCH  19  23
BRANCH   7  49
ATOM     49  O   UNL     1     143.960 128.441 100.202  0.00  0.00    +0.000 OA
ATOM     50  H   UNL     1     143.212 128.943 100.587  0.00  0.00    +0.000 HD
ENDBRANCH   7  49
BRANCH   7  52
ATOM     51  O   UNL     1     141.265 126.027 100.027  0.00  0.00    +0.000 OA
ATOM     52  C   UNL     1     142.074 126.892 100.331  0.00  0.00    +0.000 C 
BRANCH  52  53
ATOM     53  O   UNL     1     141.991 127.636 101.483  0.00  0.00    +0.000 OA
ATOM     54  C   UNL     1     141.273 126.994 102.538  0.00  0.00    +0.000 C 
ENDBRANCH  52  53
ENDBRANCH   7  52
BRANCH  20  55
ATOM     55  O   UNL     1     140.660 129.705  93.189  0.00  0.00    +0.000 OA
ATOM     56  C   UNL     1     139.396 130.200  93.621  0.00  0.00    +0.000 C 
ENDBRANCH  20  55
BRANCH   6  57
ATOM     57  C   UNL     1     146.426 127.391  98.578  0.00  0.00    +0.000 C 
ATOM     58  C   UNL     1     147.445 127.358  99.718  0.00  0.00    +0.000 C 
ENDBRANCH   6  57
BRANCH   9  59
ATOM     59  O   UNL     1     143.866 124.819  99.744  0.00  0.00    +0.000 OA
BRANCH  59  61
ATOM     60  O   UNL     1     144.492 122.837 100.707  0.00  0.00    +0.000 OA
ATOM     61  C   UNL     1     144.263 124.036 100.783  0.00  0.00    +0.000 C 
ATOM     62  C   UNL     1     144.411 124.860 102.023  0.00  0.00    +0.000 C 
ENDBRANCH  59  61
ENDBRANCH   9  59
TORSDOF 12
ENDMDL
MODEL 3
REMARK VINA RESULT:      -6.8      2.279      3.296
REMARK  Name = 
REMARK  19 active torsions:
REMARK  status: ('A' for Active; 'I' for Inactive)
REMARK    1  A    between atoms: O_1  and  C_20
REMARK    2  A    between atoms: O_1  and  C_36
REMARK    3  A    between atoms: O_2  and  C_18
REMARK    4  A    between atoms: O_3  and  C_28
REMARK    5  A    between atoms: O_3  and  C_42
REMARK    6  A    between atoms: O_5  and  C_34
REMARK    7  A    between atoms: O_5  and  C_50
REMARK    8  A    between atoms: O_7  and  C_40
REMARK    9  A    between atoms: O_7  and  C_56
REMARK   10  A    between atoms: O_9  and  C_46
REMARK   11  A    between atoms: N_11  and  C_30
REMARK   12  A    between atoms: C_17  and  C_23
REMARK   13  A    between atoms: C_18  and  C_28
REMARK   14  A    between atoms: C_23  and  C_32
REMARK   15  A    between atoms: C_33  and  C_35
REMARK   16  A    between atoms: C_35  and  C_40
REMARK   17  A    between atoms: C_36  and  C_41
REMARK   18  A    between atoms: C_46  and  C_53
REMARK   19  A    between atoms: C_53  and  C_57
REMARK                            x       y       z     vdW  Elec       q    Type
REMARK                         _______ _______ _______ _____ _____    ______ ____
ROOT
ATOM      1  N   UNL     1     146.936 125.772  98.456  0.00  0.00    +0.000 NA
ATOM      2  N   UNL     1     142.530 126.023  96.639  0.00  0.00    +0.000 N 
ATOM      3  C   UNL     1     144.781 125.931  97.580  0.00  0.00    +0.000 C 
ATOM      4  C   UNL     1     145.981 126.799  98.001  0.00  0.00    +0.000 C 
ATOM      5  C   UNL     1     143.507 126.792  97.467  0.00  0.00    +0.000 C 
ATOM      6  C   UNL     1     145.605 127.958  99.035  0.00  0.00    +0.000 C 
ATOM      7  C   UNL     1     143.016 127.441  98.771  0.00  0.00    +0.000 C 
ATOM      8  C   UNL     1     144.813 124.718  98.530  0.00  0.00    +0.000 C 
ATOM      9  C   UNL     1     144.201 127.729  99.751  0.00  0.00    +0.000 C 
ATOM     10  C   UNL     1     144.744 125.377  96.170  0.00  0.00    +0.000 A 
ATOM     11  C   UNL     1     146.193 124.749  99.182  0.00  0.00    +0.000 C 
ATOM     12  C   UNL     1     143.420 125.402  95.710  0.00  0.00    +0.000 A 
ATOM     13  C   UNL     1     146.665 128.101 100.129  0.00  0.00    +0.000 C 
ATOM     14  C   UNL     1     148.092 126.288  99.172  0.00  0.00    +0.000 C 
ATOM     15  C   UNL     1     147.778 127.356 100.170  0.00  0.00    +0.000 C 
ATOM     16  C   UNL     1     145.780 124.851  95.405  0.00  0.00    +0.000 A 
ATOM     17  C   UNL     1     141.433 126.768  96.024  0.00  0.00    +0.000 C 
ATOM     18  C   UNL     1     143.116 124.855  94.478  0.00  0.00    +0.000 A 
ATOM     19  C   UNL     1     145.504 124.291  94.142  0.00  0.00    +0.000 A 
ATOM     20  C   UNL     1     144.146 124.297  93.704  0.00  0.00    +0.000 A 
ENDROOT
BRANCH  19  23
ATOM     21  N   UNL     1     150.105 121.919  91.354  0.00  0.00    +0.000 NA
ATOM     22  N   UNL     1     145.282 121.523  93.446  0.00  0.00    +0.000 N 
ATOM     23  C   UNL     1     146.638 123.657  93.242  0.00  0.00    +0.000 C 
ATOM     24  C   UNL     1     147.988 123.449  94.069  0.00  0.00    +0.000 C 
ATOM     25  C   UNL     1     146.204 122.248  92.711  0.00  0.00    +0.000 A 
ATOM     26  C   UNL     1     149.054 122.535  93.442  0.00  0.00    +0.000 C 
ATOM     27  C   UNL     1     150.256 122.242  94.338  0.00  0.00    +0.000 C 
ATOM     28  C   UNL     1     149.619 123.049  92.126  0.00  0.00    +0.000 C 
ATOM     29  C   UNL     1     146.598 121.414  91.648  0.00  0.00    +0.000 A 
ATOM     30  C   UNL     1     151.269 121.281  93.644  0.00  0.00    +0.000 C 
ATOM     31  C   UNL     1     151.196 121.217  92.064  0.00  0.00    +0.000 C 
ATOM     32  C   UNL     1     147.635 121.605  90.553  0.00  0.00    +0.000 C 
ATOM     33  C   UNL     1     149.032 121.001  90.890  0.00  0.00    +0.000 C 
ATOM     34  C   UNL     1     145.830 120.196  91.764  0.00  0.00    +0.000 A 
ATOM     35  C   UNL     1     145.026 120.301  92.889  0.00  0.00    +0.000 A 
ATOM     36  C   UNL     1     145.766 119.001  91.013  0.00  0.00    +0.000 A 
ATOM     37  C   UNL     1     144.152 119.289  93.306  0.00  0.00    +0.000 A 
ATOM     38  C   UNL     1     144.899 117.976  91.410  0.00  0.00    +0.000 A 
ATOM     39  C   UNL     1     144.104 118.121  92.542  0.00  0.00    +0.000 A 
ATOM     40  H   UNL     1     144.829 121.857  94.287  0.00  0.00    +0.000 HD
BRANCH  23  42
ATOM     41  O   UNL     1     146.579 124.544  90.900  0.00  0.00    +0.000 OA
ATOM     42  C   UNL     1     146.861 124.685  92.083  0.00  0.00    +0.000 C 
BRANCH  42  43
ATOM     43  O   UNL     1     147.414 125.841  92.583  0.00  0.00    +0.000 OA
ATOM     44  C   UNL     1     148.301 126.497  91.678  0.00  0.00    +0.000 C 
ENDBRANCH  42  43
ENDBRANCH  23  42
BRANCH  30  45
ATOM     45  O   UNL     1     152.580 121.793  93.992  0.00  0.00    +0.000 OA
ATOM     46  H   UNL     1     152.446 122.612  94.502  0.00  0.00    +0.000 HD
ENDBRANCH  30  45
BRANCH  30  47
ATOM     47  C   UNL     1     151.242 119.872  94.281  0.00  0.00    +0.000 C 
ATOM     48  C   UNL     1     150.545 118.781  93.485  0.00  0.00    +0.000 C 
ENDBRANCH  30  47
ENDBRANCH  19  23
BRANCH   7  49
ATOM     49  O   UNL     1     142.487 128.749  98.381  0.00  0.00    +0.000 OA
ATOM     50  H   UNL     1     142.087 129.131  99.190  0.00  0.00    +0.000 HD
ENDBRANCH   7  49
BRANCH   7  52
ATOM     51  O   UNL     1     141.637 125.443  99.295  0.00  0.00    +0.000 OA
ATOM     52  C   UNL     1     141.876 126.633  99.441  0.00  0.00    +0.000 C 
BRANCH  52  53
ATOM     53  O   UNL     1     141.190 127.442 100.315  0.00  0.00    +0.000 OA
ATOM     54  C   UNL     1     140.587 126.740 101.404  0.00  0.00    +0.000 C 
ENDBRANCH  52  53
ENDBRANCH   7  52
BRANCH  20  55
ATOM     55  O   UNL     1     143.888 123.788  92.456  0.00  0.00    +0.000 OA
ATOM     56  C   UNL     1     143.206 124.670  91.570  0.00  0.00    +0.000 C 
ENDBRANCH  20  55
BRANCH   6  57
ATOM     57  C   UNL     1     145.563 129.342  98.286  0.00  0.00    +0.000 C 
ATOM     58  C   UNL     1     146.859 129.791  97.610  0.00  0.00    +0.000 C 
ENDBRANCH   6  57
BRANCH   9  59
ATOM     59  O   UNL     1     144.361 126.680 100.735  0.00  0.00    +0.000 OA
BRANCH  59  61
ATOM     60  O   UNL     1     143.689 128.008 102.477  0.00  0.00    +0.000 OA
ATOM     61  C   UNL     1     144.302 127.041 102.045  0.00  0.00    +0.000 C 
ATOM     62  C   UNL     1     145.067 126.066 102.884  0.00  0.00    +0.000 C 
ENDBRANCH  59  61
ENDBRANCH   9  59
TORSDOF 12
ENDMDL
MODEL 4
REMARK VINA RESULT:      -6.7      3.658      7.783
REMARK  Name = 
REMARK  19 active torsions:
REMARK  status: ('A' for Active; 'I' for Inactive)
REMARK    1  A    between atoms: O_1  and  C_20
REMARK    2  A    between atoms: O_1  and  C_36
REMARK    3  A    between atoms: O_2  and  C_18
REMARK    4  A    between atoms: O_3  and  C_28
REMARK    5  A    between atoms: O_3  and  C_42
REMARK    6  A    between atoms: O_5  and  C_34
REMARK    7  A    between atoms: O_5  and  C_50
REMARK    8  A    between atoms: O_7  and  C_40
REMARK    9  A    between atoms: O_7  and  C_56
REMARK   10  A    between atoms: O_9  and  C_46
REMARK   11  A    between atoms: N_11  and  C_30
REMARK   12  A    between atoms: C_17  and  C_23
REMARK   13  A    between atoms: C_18  and  C_28
REMARK   14  A    between atoms: C_23  and  C_32
REMARK   15  A    between atoms: C_33  and  C_35
REMARK   16  A    between atoms: C_35  and  C_40
REMARK   17  A    between atoms: C_36  and  C_41
REMARK   18  A    between atoms: C_46  and  C_53
REMARK   19  A    between atoms: C_53  and  C_57
REMARK                            x       y       z     vdW  Elec       q    Type
REMARK                         _______ _______ _______ _____ _____    ______ ____
ROOT
ATOM      1  N   UNL     1     141.548 125.299  96.513  0.00  0.00    +0.000 NA
ATOM      2  N   UNL     1     146.104 126.725  96.541  0.00  0.00    +0.000 N 
ATOM      3  C   UNL     1     143.782 125.967  96.552  0.00  0.00    +0.000 C 
ATOM      4  C   UNL     1     142.881 124.752  96.831  0.00  0.00    +0.000 C 
ATOM      5  C   UNL     1     145.163 125.777  97.210  0.00  0.00    +0.000 C 
ATOM      6  C   UNL     1     143.085 124.121  98.285  0.00  0.00    +0.000 C 
ATOM      7  C   UNL     1     145.170 125.695  98.745  0.00  0.00    +0.000 C 
ATOM      8  C   UNL     1     142.919 127.194  96.904  0.00  0.00    +0.000 C 
ATOM      9  C   UNL     1     143.832 125.100  99.295  0.00  0.00    +0.000 C 
ATOM     10  C   UNL     1     144.290 126.186  95.140  0.00  0.00    +0.000 A 
ATOM     11  C   UNL     1     141.490 126.669  97.009  0.00  0.00    +0.000 C 
ATOM     12  C   UNL     1     145.602 126.675  95.203  0.00  0.00    +0.000 A 
ATOM     13  C   UNL     1     141.748 123.732  98.921  0.00  0.00    +0.000 C 
ATOM     14  C   UNL     1     140.431 124.467  96.931  0.00  0.00    +0.000 C 
ATOM     15  C   UNL     1     140.570 123.881  98.298  0.00  0.00    +0.000 C 
ATOM     16  C   UNL     1     143.623 126.020  93.931  0.00  0.00    +0.000 A 
ATOM     17  C   UNL     1     147.535 126.455  96.663  0.00  0.00    +0.000 C 
ATOM     18  C   UNL     1     146.250 127.044  94.040  0.00  0.00    +0.000 A 
ATOM     19  C   UNL     1     144.258 126.382  92.726  0.00  0.00    +0.000 A 
ATOM     20  C   UNL     1     145.581 126.907  92.812  0.00  0.00    +0.000 A 
ENDROOT
BRANCH  19  23
ATOM     21  N   UNL     1     141.028 125.662  87.865  0.00  0.00    +0.000 NA
ATOM     22  N   UNL     1     143.404 128.771  91.398  0.00  0.00    +0.000 N 
ATOM     23  C   UNL     1     143.538 126.239  91.326  0.00  0.00    +0.000 C 
ATOM     24  C   UNL     1     142.052 125.676  91.491  0.00  0.00    +0.000 C 
ATOM     25  C   UNL     1     143.423 127.630  90.614  0.00  0.00    +0.000 A 
ATOM     26  C   UNL     1     141.118 125.810  90.277  0.00  0.00    +0.000 C 
ATOM     27  C   UNL     1     139.668 125.402  90.533  0.00  0.00    +0.000 C 
ATOM     28  C   UNL     1     141.571 125.027  89.053  0.00  0.00    +0.000 C 
ATOM     29  C   UNL     1     143.229 128.064  89.290  0.00  0.00    +0.000 A 
ATOM     30  C   UNL     1     138.783 125.603  89.267  0.00  0.00    +0.000 C 
ATOM     31  C   UNL     1     139.549 125.649  87.882  0.00  0.00    +0.000 C 
ATOM     32  C   UNL     1     143.072 127.289  87.992  0.00  0.00    +0.000 C 
ATOM     33  C   UNL     1     141.591 127.010  87.592  0.00  0.00    +0.000 C 
ATOM     34  C   UNL     1     143.148 129.506  89.328  0.00  0.00    +0.000 A 
ATOM     35  C   UNL     1     143.263 129.907  90.651  0.00  0.00    +0.000 A 
ATOM     36  C   UNL     1     142.970 130.506  88.346  0.00  0.00    +0.000 A 
ATOM     37  C   UNL     1     143.219 131.247  91.054  0.00  0.00    +0.000 A 
ATOM     38  C   UNL     1     142.924 131.852  88.725  0.00  0.00    +0.000 A 
ATOM     39  C   UNL     1     143.048 132.216  90.062  0.00  0.00    +0.000 A 
ATOM     40  H   UNL     1     143.504 128.776  92.405  0.00  0.00    +0.000 HD
BRANCH  23  42
ATOM     41  O   UNL     1     145.115 125.468  89.539  0.00  0.00    +0.000 OA
ATOM     42  C   UNL     1     144.417 125.229  90.517  0.00  0.00    +0.000 C 
BRANCH  42  43
ATOM     43  O   UNL     1     144.333 123.978  91.082  0.00  0.00    +0.000 OA
ATOM     44  C   UNL     1     144.499 122.909  90.151  0.00  0.00    +0.000 C 
ENDBRANCH  42  43
ENDBRANCH  23  42
BRANCH  30  45
ATOM     45  O   UNL     1     137.902 124.453  89.231  0.00  0.00    +0.000 OA
ATOM     46  H   UNL     1     137.483 124.435  88.352  0.00  0.00    +0.000 HD
ENDBRANCH  30  45
BRANCH  30  47
ATOM     47  C   UNL     1     137.819 126.802  89.432  0.00  0.00    +0.000 C 
ATOM     48  C   UNL     1     138.221 127.862  90.443  0.00  0.00    +0.000 C 
ENDBRANCH  30  47
ENDBRANCH  19  23
BRANCH   7  49
ATOM     49  O   UNL     1     146.212 124.721  99.079  0.00  0.00    +0.000 OA
ATOM     50  H   UNL     1     147.061 125.137  98.823  0.00  0.00    +0.000 HD
ENDBRANCH   7  49
BRANCH   7  52
ATOM     51  O   UNL     1     145.137 128.156  99.077  0.00  0.00    +0.000 OA
ATOM     52  C   UNL     1     145.534 127.047  99.408  0.00  0.00    +0.000 C 
BRANCH  52  53
ATOM     53  O   UNL     1     146.328 126.822 100.507  0.00  0.00    +0.000 OA
ATOM     54  C   UNL     1     146.792 128.016 101.141  0.00  0.00    +0.000 C 
ENDBRANCH  52  53
ENDBRANCH   7  52
BRANCH  20  55
ATOM     55  O   UNL     1     146.210 127.220  91.634  0.00  0.00    +0.000 OA
ATOM     56  C   UNL     1     147.621 127.025  91.629  0.00  0.00    +0.000 C 
ENDBRANCH  20  55
BRANCH   6  57
ATOM     57  C   UNL     1     143.917 122.790  98.173  0.00  0.00    +0.000 C 
ATOM     58  C   UNL     1     143.866 122.065  96.826  0.00  0.00    +0.000 C 
ENDBRANCH   6  57
BRANCH   9  59
ATOM     59  O   UNL     1     142.901 126.133  99.695  0.00  0.00    +0.000 OA
BRANCH  59  61
ATOM     60  O   UNL     1     143.290 125.878 101.939  0.00  0.00    +0.000 OA
ATOM     61  C   UNL     1     142.555 126.183 101.010  0.00  0.00    +0.000 C 
ATOM     62  C   UNL     1     141.157 126.698 101.157  0.00  0.00    +0.000 C 
ENDBRANCH  59  61
ENDBRANCH   9  59
TORSDOF 12
ENDMDL
MODEL 5
REMARK VINA RESULT:      -6.7      3.815      6.528
REMARK  Name = 
REMARK  19 active torsions:
REMARK  status: ('A' for Active; 'I' for Inactive)
REMARK    1  A    between atoms: O_1  and  C_20
REMARK    2  A    between atoms: O_1  and  C_36
REMARK    3  A    between atoms: O_2  and  C_18
REMARK    4  A    between atoms: O_3  and  C_28
REMARK    5  A    between atoms: O_3  and  C_42
REMARK    6  A    between atoms: O_5  and  C_34
REMARK    7  A    between atoms: O_5  and  C_50
REMARK    8  A    between atoms: O_7  and  C_40
REMARK    9  A    between atoms: O_7  and  C_56
REMARK   10  A    between atoms: O_9  and  C_46
REMARK   11  A    between atoms: N_11  and  C_30
REMARK   12  A    between atoms: C_17  and  C_23
REMARK   13  A    between atoms: C_18  and  C_28
REMARK   14  A    between atoms: C_23  and  C_32
REMARK   15  A    between atoms: C_33  and  C_35
REMARK   16  A    between atoms: C_35  and  C_40
REMARK   17  A    between atoms: C_36  and  C_41
REMARK   18  A    between atoms: C_46  and  C_53
REMARK   19  A    between atoms: C_53  and  C_57
REMARK                            x       y       z     vdW  Elec       q    Type
REMARK                         _______ _______ _______ _____ _____    ______ ____
ROOT
ATOM      1  N   UNL     1     141.755 125.638  97.575  0.00  0.00    +0.000 NA
ATOM      2  N   UNL     1     146.456 125.911  96.795  0.00  0.00    +0.000 N 
ATOM      3  C   UNL     1     144.056 125.737  97.211  0.00  0.00    +0.000 C 
ATOM      4  C   UNL     1     142.919 124.736  97.481  0.00  0.00    +0.000 C 
ATOM      5  C   UNL     1     145.425 125.086  97.492  0.00  0.00    +0.000 C 
ATOM      6  C   UNL     1     143.196 123.767  98.721  0.00  0.00    +0.000 C 
ATOM      7  C   UNL     1     145.683 124.665  98.948  0.00  0.00    +0.000 C 
ATOM      8  C   UNL     1     143.643 127.022  97.954  0.00  0.00    +0.000 C 
ATOM      9  C   UNL     1     144.352 124.293  99.682  0.00  0.00    +0.000 C 
ATOM     10  C   UNL     1     144.346 126.140  95.778  0.00  0.00    +0.000 A 
ATOM     11  C   UNL     1     142.166 126.837  98.294  0.00  0.00    +0.000 C 
ATOM     12  C   UNL     1     145.731 126.281  95.620  0.00  0.00    +0.000 A 
ATOM     13  C   UNL     1     141.940 123.571  99.573  0.00  0.00    +0.000 C 
ATOM     14  C   UNL     1     140.544 125.019  98.092  0.00  0.00    +0.000 C 
ATOM     15  C   UNL     1     140.758 124.127  99.271  0.00  0.00    +0.000 C 
ATOM     16  C   UNL     1     143.455 126.408  94.744  0.00  0.00    +0.000 A 
ATOM     17  C   UNL     1     147.755 125.293  96.537  0.00  0.00    +0.000 C 
ATOM     18  C   UNL     1     146.237 126.737  94.418  0.00  0.00    +0.000 A 
ATOM     19  C   UNL     1     143.939 126.870  93.505  0.00  0.00    +0.000 A 
ATOM     20  C   UNL     1     145.350 127.038  93.372  0.00  0.00    +0.000 A 
ENDROOT
BRANCH  19  23
ATOM     21  N   UNL     1     140.796 128.619  88.853  0.00  0.00    +0.000 NA
ATOM     22  N   UNL     1     143.879 125.087  91.265  0.00  0.00    +0.000 N 
ATOM     23  C   UNL     1     142.971 127.216  92.304  0.00  0.00    +0.000 C 
ATOM     24  C   UNL     1     143.525 128.443  91.445  0.00  0.00    +0.000 C 
ATOM     25  C   UNL     1     142.837 125.997  91.328  0.00  0.00    +0.000 A 
ATOM     26  C   UNL     1     142.889 128.668  90.063  0.00  0.00    +0.000 C 
ATOM     27  C   UNL     1     143.556 129.752  89.217  0.00  0.00    +0.000 C 
ATOM     28  C   UNL     1     141.408 129.016  90.109  0.00  0.00    +0.000 C 
ATOM     29  C   UNL     1     141.907 125.593  90.353  0.00  0.00    +0.000 A 
ATOM     30  C   UNL     1     142.876 129.891  87.822  0.00  0.00    +0.000 C 
ATOM     31  C   UNL     1     141.391 129.351  87.714  0.00  0.00    +0.000 C 
ATOM     32  C   UNL     1     140.605 126.223  89.884  0.00  0.00    +0.000 C 
ATOM     33  C   UNL     1     140.760 127.148  88.640  0.00  0.00    +0.000 C 
ATOM     34  C   UNL     1     142.424 124.382  89.757  0.00  0.00    +0.000 A 
ATOM     35  C   UNL     1     143.646 124.100  90.348  0.00  0.00    +0.000 A 
ATOM     36  C   UNL     1     141.959 123.510  88.746  0.00  0.00    +0.000 A 
ATOM     37  C   UNL     1     144.430 122.994  90.000  0.00  0.00    +0.000 A 
ATOM     38  C   UNL     1     142.726 122.397  88.382  0.00  0.00    +0.000 A 
ATOM     39  C   UNL     1     143.945 122.145  89.002  0.00  0.00    +0.000 A 
ATOM     40  H   UNL     1     144.710 125.127  91.840  0.00  0.00    +0.000 HD
BRANCH  23  42
ATOM     41  O   UNL     1     140.625 126.873  93.114  0.00  0.00    +0.000 OA
ATOM     42  C   UNL     1     141.608 127.591  92.975  0.00  0.00    +0.000 C 
BRANCH  42  43
ATOM     43  O   UNL     1     141.657 128.883  93.443  0.00  0.00    +0.000 OA
ATOM     44  C   UNL     1     140.835 129.116  94.586  0.00  0.00    +0.000 C 
ENDBRANCH  42  43
ENDBRANCH  23  42
BRANCH  30  45
ATOM     45  O   UNL     1     142.833 131.316  87.559  0.00  0.00    +0.000 OA
ATOM     46  H   UNL     1     143.056 131.445  86.620  0.00  0.00    +0.000 HD
ENDBRANCH  30  45
BRANCH  30  47
ATOM     47  C   UNL     1     143.775 129.334  86.694  0.00  0.00    +0.000 C 
ATOM     48  C   UNL     1     143.598 127.865  86.348  0.00  0.00    +0.000 C 
ENDBRANCH  30  47
ENDBRANCH  19  23
BRANCH   7  49
ATOM     49  O   UNL     1     146.457 123.425  98.865  0.00  0.00    +0.000 OA
ATOM     50  H   UNL     1     145.897 122.791  98.372  0.00  0.00    +0.000 HD
ENDBRANCH   7  49
BRANCH   7  52
ATOM     51  O   UNL     1     146.521 126.922  99.555  0.00  0.00    +0.000 OA
ATOM     52  C   UNL     1     146.517 125.711  99.728  0.00  0.00    +0.000 C 
BRANCH  52  53
ATOM     53  O   UNL     1     147.220 125.086 100.730  0.00  0.00    +0.000 OA
ATOM     54  C   UNL     1     147.397 125.886 101.901  0.00  0.00    +0.000 C 
ENDBRANCH  52  53
ENDBRANCH   7  52
BRANCH  20  55
ATOM     55  O   UNL     1     145.820 127.449  92.150  0.00  0.00    +0.000 OA
ATOM     56  C   UNL     1     147.018 126.811  91.716  0.00  0.00    +0.000 C 
ENDBRANCH  20  55
BRANCH   6  57
ATOM     57  C   UNL     1     143.595 122.338  98.198  0.00  0.00    +0.000 C 
ATOM     58  C   UNL     1     143.204 122.005  96.756  0.00  0.00    +0.000 C 
ENDBRANCH   6  57
BRANCH   9  59
ATOM     59  O   UNL     1     143.829 125.400 100.455  0.00  0.00    +0.000 OA
BRANCH  59  61
ATOM     60  O   UNL     1     144.251 124.299 102.419  0.00  0.00    +0.000 OA
ATOM     61  C   UNL     1     143.792 125.253 101.806  0.00  0.00    +0.000 C 
ATOM     62  C   UNL     1     143.139 126.443 102.437  0.00  0.00    +0.000 C 
ENDBRANCH  59  61
ENDBRANCH   9  59
TORSDOF 12
ENDMDL
MODEL 6
REMARK VINA RESULT:      -6.0      4.479      8.475
REMARK  Name = 
REMARK  19 active torsions:
REMARK  status: ('A' for Active; 'I' for Inactive)
REMARK    1  A    between atoms: O_1  and  C_20
REMARK    2  A    between atoms: O_1  and  C_36
REMARK    3  A    between atoms: O_2  and  C_18
REMARK    4  A    between atoms: O_3  and  C_28
REMARK    5  A    between atoms: O_3  and  C_42
REMARK    6  A    between atoms: O_5  and  C_34
REMARK    7  A    between atoms: O_5  and  C_50
REMARK    8  A    between atoms: O_7  and  C_40
REMARK    9  A    between atoms: O_7  and  C_56
REMARK   10  A    between atoms: O_9  and  C_46
REMARK   11  A    between atoms: N_11  and  C_30
REMARK   12  A    between atoms: C_17  and  C_23
REMARK   13  A    between atoms: C_18  and  C_28
REMARK   14  A    between atoms: C_23  and  C_32
REMARK   15  A    between atoms: C_33  and  C_35
REMARK   16  A    between atoms: C_35  and  C_40
REMARK   17  A    between atoms: C_36  and  C_41
REMARK   18  A    between atoms: C_46  and  C_53
REMARK   19  A    between atoms: C_53  and  C_57
REMARK                            x       y       z     vdW  Elec       q    Type
REMARK                         _______ _______ _______ _____ _____    ______ ____
ROOT
ATOM      1  N   UNL     1     145.603 125.327  95.158  0.00  0.00    +0.000 NA
ATOM      2  N   UNL     1     142.311 127.850  97.520  0.00  0.00    +0.000 N 
ATOM      3  C   UNL     1     144.023 126.574  96.334  0.00  0.00    +0.000 C 
ATOM      4  C   UNL     1     145.526 126.530  96.008  0.00  0.00    +0.000 C 
ATOM      5  C   UNL     1     143.761 127.492  97.545  0.00  0.00    +0.000 C 
ATOM      6  C   UNL     1     146.466 126.575  97.299  0.00  0.00    +0.000 C 
ATOM      7  C   UNL     1     144.384 127.042  98.877  0.00  0.00    +0.000 C 
ATOM      8  C   UNL     1     143.578 125.099  96.370  0.00  0.00    +0.000 C 
ATOM      9  C   UNL     1     145.696 126.222  98.648  0.00  0.00    +0.000 C 
ATOM     10  C   UNL     1     143.090 127.284  95.372  0.00  0.00    +0.000 A 
ATOM     11  C   UNL     1     144.715 124.316  95.719  0.00  0.00    +0.000 C 
ATOM     12  C   UNL     1     142.099 127.947  96.110  0.00  0.00    +0.000 A 
ATOM     13  C   UNL     1     147.644 125.606  97.171  0.00  0.00    +0.000 C 
ATOM     14  C   UNL     1     146.952 124.852  94.892  0.00  0.00    +0.000 C 
ATOM     15  C   UNL     1     147.855 124.852  96.083  0.00  0.00    +0.000 C 
ATOM     16  C   UNL     1     143.097 127.285  93.981  0.00  0.00    +0.000 A 
ATOM     17  C   UNL     1     141.893 129.028  98.279  0.00  0.00    +0.000 C 
ATOM     18  C   UNL     1     141.072 128.590  95.448  0.00  0.00    +0.000 A 
ATOM     19  C   UNL     1     142.067 127.937  93.276  0.00  0.00    +0.000 A 
ATOM     20  C   UNL     1     141.050 128.578  94.043  0.00  0.00    +0.000 A 
ENDROOT
BRANCH  19  23
ATOM     21  N   UNL     1     141.198 127.839  87.462  0.00  0.00    +0.000 NA
ATOM     22  N   UNL     1     142.083 130.471  91.943  0.00  0.00    +0.000 N 
ATOM     23  C   UNL     1     142.011 127.947  91.696  0.00  0.00    +0.000 C 
ATOM     24  C   UNL     1     140.556 127.559  91.164  0.00  0.00    +0.000 C 
ATOM     25  C   UNL     1     142.337 129.374  91.137  0.00  0.00    +0.000 A 
ATOM     26  C   UNL     1     140.252 127.861  89.687  0.00  0.00    +0.000 C 
ATOM     27  C   UNL     1     138.804 127.618  89.266  0.00  0.00    +0.000 C 
ATOM     28  C   UNL     1     141.118 127.088  88.702  0.00  0.00    +0.000 C 
ATOM     29  C   UNL     1     142.771 129.890  89.903  0.00  0.00    +0.000 A 
ATOM     30  C   UNL     1     138.572 127.983  87.769  0.00  0.00    +0.000 C 
ATOM     31  C   UNL     1     139.861 128.003  86.849  0.00  0.00    +0.000 C 
ATOM     32  C   UNL     1     143.122 129.202  88.594  0.00  0.00    +0.000 C 
ATOM     33  C   UNL     1     141.939 129.121  87.581  0.00  0.00    +0.000 C 
ATOM     34  C   UNL     1     142.809 131.328  90.039  0.00  0.00    +0.000 A 
ATOM     35  C   UNL     1     142.377 131.649  91.317  0.00  0.00    +0.000 A 
ATOM     36  C   UNL     1     143.160 132.387  89.172  0.00  0.00    +0.000 A 
ATOM     37  C   UNL     1     142.282 132.965  91.787  0.00  0.00    +0.000 A 
ATOM     38  C   UNL     1     143.074 133.710  89.621  0.00  0.00    +0.000 A 
ATOM     39  C   UNL     1     142.641 133.993  90.912  0.00  0.00    +0.000 A 
ATOM     40  H   UNL     1     141.739 130.416  92.893  0.00  0.00    +0.000 HD
BRANCH  23  42
ATOM     41  O   UNL     1     144.228 127.071  90.926  0.00  0.00    +0.000 OA
ATOM     42  C   UNL     1     143.061 126.879  91.245  0.00  0.00    +0.000 C 
BRANCH  42  43
ATOM     43  O   UNL     1     142.496 125.625  91.278  0.00  0.00    +0.000 OA
ATOM     44  C   UNL     1     143.306 124.610  90.686  0.00  0.00    +0.000 C 
ENDBRANCH  42  43
ENDBRANCH  23  42
BRANCH  30  45
ATOM     45  O   UNL     1     137.695 126.950  87.255  0.00  0.00    +0.000 OA
ATOM     46  H   UNL     1     138.214 126.413  86.630  0.00  0.00    +0.000 HD
ENDBRANCH  30  45
BRANCH  30  47
ATOM     47  C   UNL     1     137.741 129.279  87.623  0.00  0.00    +0.000 C 
ATOM     48  C   UNL     1     137.065 129.798  88.881  0.00  0.00    +0.000 C 
ENDBRANCH  30  47
ENDBRANCH  19  23
BRANCH   7  49
ATOM     49  O   UNL     1     144.792 128.275  99.553  0.00  0.00    +0.000 OA
ATOM     50  H   UNL     1     144.346 129.004  99.075  0.00  0.00    +0.000 HD
ENDBRANCH   7  49
BRANCH   7  52
ATOM     51  O   UNL     1     142.518 125.499  99.426  0.00  0.00    +0.000 OA
ATOM     52  C   UNL     1     143.371 126.299  99.783  0.00  0.00    +0.000 C 
BRANCH  52  53
ATOM     53  O   UNL     1     143.618 126.608 101.099  0.00  0.00    +0.000 OA
ATOM     54  C   UNL     1     142.472 126.498 101.946  0.00  0.00    +0.000 C 
ENDBRANCH  52  53
ENDBRANCH   7  52
BRANCH  20  55
ATOM     55  O   UNL     1     140.070 129.246  93.353  0.00  0.00    +0.000 OA
ATOM     56  C   UNL     1     139.119 129.932  94.161  0.00  0.00    +0.000 C 
ENDBRANCH  20  55
BRANCH   6  57
ATOM     57  C   UNL     1     147.096 128.009  97.446  0.00  0.00    +0.000 C 
ATOM     58  C   UNL     1     147.446 128.737  96.146  0.00  0.00    +0.000 C 
ENDBRANCH   6  57
BRANCH   9  59
ATOM     59  O   UNL     1     145.457 124.794  98.671  0.00  0.00    +0.000 OA
BRANCH  59  61
ATOM     60  O   UNL     1     146.564 124.512 100.657  0.00  0.00    +0.000 OA
ATOM     61  C   UNL     1     145.757 124.132  99.820  0.00  0.00    +0.000 C 
ATOM     62  C   UNL     1     144.930 122.889  99.931  0.00  0.00    +0.000 C 
ENDBRANCH  59  61
ENDBRANCH   9  59
TORSDOF 12
ENDMDL
MODEL 7
REMARK VINA RESULT:      -6.0      5.031      8.709
REMARK  Name = 
REMARK  19 active torsions:
REMARK  status: ('A' for Active; 'I' for Inactive)
REMARK    1  A    between atoms: O_1  and  C_20
REMARK    2  A    between atoms: O_1  and  C_36
REMARK    3  A    between atoms: O_2  and  C_18
REMARK    4  A    between atoms: O_3  and  C_28
REMARK    5  A    between atoms: O_3  and  C_42
REMARK    6  A    between atoms: O_5  and  C_34
REMARK    7  A    between atoms: O_5  and  C_50
REMARK    8  A    between atoms: O_7  and  C_40
REMARK    9  A    between atoms: O_7  and  C_56
REMARK   10  A    between atoms: O_9  and  C_46
REMARK   11  A    between atoms: N_11  and  C_30
REMARK   12  A    between atoms: C_17  and  C_23
REMARK   13  A    between atoms: C_18  and  C_28
REMARK   14  A    between atoms: C_23  and  C_32
REMARK   15  A    between atoms: C_33  and  C_35
REMARK   16  A    between atoms: C_35  and  C_40
REMARK   17  A    between atoms: C_36  and  C_41
REMARK   18  A    between atoms: C_46  and  C_53
REMARK   19  A    between atoms: C_53  and  C_57
REMARK                            x       y       z     vdW  Elec       q    Type
REMARK                         _______ _______ _______ _____ _____    ______ ____
ROOT
ATOM      1  N   UNL     1     142.686 127.600  97.468  0.00  0.00    +0.000 NA
ATOM      2  N   UNL     1     145.934 126.043  94.336  0.00  0.00    +0.000 N 
ATOM      3  C   UNL     1     144.271 126.804  95.954  0.00  0.00    +0.000 C 
ATOM      4  C   UNL     1     143.152 126.323  96.895  0.00  0.00    +0.000 C 
ATOM      5  C   UNL     1     145.188 125.629  95.562  0.00  0.00    +0.000 C 
ATOM      6  C   UNL     1     143.617 125.188  97.920  0.00  0.00    +0.000 C 
ATOM      7  C   UNL     1     145.971 124.974  96.713  0.00  0.00    +0.000 C 
ATOM      8  C   UNL     1     144.862 128.051  96.640  0.00  0.00    +0.000 C 
ATOM      9  C   UNL     1     145.200 125.088  98.069  0.00  0.00    +0.000 C 
ATOM     10  C   UNL     1     143.905 127.219  94.543  0.00  0.00    +0.000 A 
ATOM     11  C   UNL     1     143.851 128.440  97.717  0.00  0.00    +0.000 C 
ATOM     12  C   UNL     1     144.924 126.806  93.673  0.00  0.00    +0.000 A 
ATOM     13  C   UNL     1     143.034 125.419  99.316  0.00  0.00    +0.000 C 
ATOM     14  C   UNL     1     141.794 127.468  98.609  0.00  0.00    +0.000 C 
ATOM     15  C   UNL     1     142.210 126.435  99.606  0.00  0.00    +0.000 C 
ATOM     16  C   UNL     1     142.804 127.942  94.097  0.00  0.00    +0.000 A 
ATOM     17  C   UNL     1     146.531 124.987  93.520  0.00  0.00    +0.000 C 
ATOM     18  C   UNL     1     144.864 127.156  92.337  0.00  0.00    +0.000 A 
ATOM     19  C   UNL     1     142.710 128.309  92.740  0.00  0.00    +0.000 A 
ATOM     20  C   UNL     1     143.771 127.908  91.876  0.00  0.00    +0.000 A 
ENDROOT
BRANCH  19  23
ATOM     21  N   UNL     1     138.645 131.803  90.322  0.00  0.00    +0.000 NA
ATOM     22  N   UNL     1     141.087 127.145  90.689  0.00  0.00    +0.000 N 
ATOM     23  C   UNL     1     141.494 129.153  92.184  0.00  0.00    +0.000 C 
ATOM     24  C   UNL     1     141.994 130.350  91.253  0.00  0.00    +0.000 C 
ATOM     25  C   UNL     1     140.549 128.259  91.311  0.00  0.00    +0.000 A 
ATOM     26  C   UNL     1     140.937 131.034  90.371  0.00  0.00    +0.000 C 
ATOM     27  C   UNL     1     141.490 132.064  89.387  0.00  0.00    +0.000 C 
ATOM     28  C   UNL     1     139.836 131.738  91.151  0.00  0.00    +0.000 C 
ATOM     29  C   UNL     1     139.212 128.337  90.881  0.00  0.00    +0.000 A 
ATOM     30  C   UNL     1     140.361 132.681  88.507  0.00  0.00    +0.000 C 
ATOM     31  C   UNL     1     138.893 132.586  89.092  0.00  0.00    +0.000 C 
ATOM     32  C   UNL     1     138.132 129.374  91.144  0.00  0.00    +0.000 C 
ATOM     33  C   UNL     1     138.029 130.478  90.049  0.00  0.00    +0.000 C 
ATOM     34  C   UNL     1     138.978 127.197  90.025  0.00  0.00    +0.000 A 
ATOM     35  C   UNL     1     140.162 126.481  89.932  0.00  0.00    +0.000 A 
ATOM     36  C   UNL     1     137.858 126.722  89.306  0.00  0.00    +0.000 A 
ATOM     37  C   UNL     1     140.296 125.313  89.170  0.00  0.00    +0.000 A 
ATOM     38  C   UNL     1     137.968 125.556  88.539  0.00  0.00    +0.000 A 
ATOM     39  C   UNL     1     139.171 124.863  88.474  0.00  0.00    +0.000 A 
ATOM     40  H   UNL     1     142.045 126.837  90.792  0.00  0.00    +0.000 HD
BRANCH  23  42
ATOM     41  O   UNL     1     140.908 130.822  93.958  0.00  0.00    +0.000 OA
ATOM     42  C   UNL     1     140.773 129.714  93.454  0.00  0.00    +0.000 C 
BRANCH  42  43
ATOM     43  O   UNL     1     139.898 128.775  93.949  0.00  0.00    +0.000 OA
ATOM     44  C   UNL     1     139.441 129.049  95.273  0.00  0.00    +0.000 C 
ENDBRANCH  42  43
ENDBRANCH  23  42
BRANCH  30  45
ATOM     45  O   UNL     1     140.689 134.089  88.399  0.00  0.00    +0.000 OA
ATOM     46  H   UNL     1     140.465 134.371  87.494  0.00  0.00    +0.000 HD
ENDBRANCH  30  45
BRANCH  30  47
ATOM     47  C   UNL     1     140.435 132.171  87.049  0.00  0.00    +0.000 C 
ATOM     48  C   UNL     1     139.805 130.817  86.771  0.00  0.00    +0.000 C 
ENDBRANCH  30  47
ENDBRANCH  19  23
BRANCH   7  49
ATOM     49  O   UNL     1     146.013 123.546  96.392  0.00  0.00    +0.000 OA
ATOM     50  H   UNL     1     145.582 123.088  97.143  0.00  0.00    +0.000 HD
ENDBRANCH   7  49
BRANCH   7  52
ATOM     51  O   UNL     1     147.781 126.615  97.155  0.00  0.00    +0.000 OA
ATOM     52  C   UNL     1     147.426 125.496  96.811  0.00  0.00    +0.000 C 
BRANCH  52  53
ATOM     53  O   UNL     1     148.302 124.476  96.528  0.00  0.00    +0.000 OA
ATOM     54  C   UNL     1     149.415 124.874  95.726  0.00  0.00    +0.000 C 
ENDBRANCH  52  53
ENDBRANCH   7  52
BRANCH  20  55
ATOM     55  O   UNL     1     143.655 128.233  90.548  0.00  0.00    +0.000 OA
ATOM     56  C   UNL     1     144.288 127.330  89.645  0.00  0.00    +0.000 C 
ENDBRANCH  20  55
BRANCH   6  57
ATOM     57  C   UNL     1     143.072 123.791  97.445  0.00  0.00    +0.000 C 
ATOM     58  C   UNL     1     141.982 123.813  96.372  0.00  0.00    +0.000 C 
ENDBRANCH   6  57
BRANCH   9  59
ATOM     59  O   UNL     1     145.652 126.215  98.858  0.00  0.00    +0.000 OA
BRANCH  59  61
ATOM     60  O   UNL     1     146.522 124.836 100.468  0.00  0.00    +0.000 OA
ATOM     61  C   UNL     1     146.177 125.945 100.084  0.00  0.00    +0.000 C 
ATOM     62  C   UNL     1     146.303 127.206 100.881  0.00  0.00    +0.000 C 
ENDBRANCH  59  61
ENDBRANCH   9  59
TORSDOF 12
ENDMDL
MODEL 8
REMARK VINA RESULT:      -6.0      3.939      6.609
REMARK  Name = 
REMARK  19 active torsions:
REMARK  status: ('A' for Active; 'I' for Inactive)
REMARK    1  A    between atoms: O_1  and  C_20
REMARK    2  A    between atoms: O_1  and  C_36
REMARK    3  A    between atoms: O_2  and  C_18
REMARK    4  A    between atoms: O_3  and  C_28
REMARK    5  A    between atoms: O_3  and  C_42
REMARK    6  A    between atoms: O_5  and  C_34
REMARK    7  A    between atoms: O_5  and  C_50
REMARK    8  A    between atoms: O_7  and  C_40
REMARK    9  A    between atoms: O_7  and  C_56
REMARK   10  A    between atoms: O_9  and  C_46
REMARK   11  A    between atoms: N_11  and  C_30
REMARK   12  A    between atoms: C_17  and  C_23
REMARK   13  A    between atoms: C_18  and  C_28
REMARK   14  A    between atoms: C_23  and  C_32
REMARK   15  A    between atoms: C_33  and  C_35
REMARK   16  A    between atoms: C_35  and  C_40
REMARK   17  A    between atoms: C_36  and  C_41
REMARK   18  A    between atoms: C_46  and  C_53
REMARK   19  A    between atoms: C_53  and  C_57
REMARK                            x       y       z     vdW  Elec       q    Type
REMARK                         _______ _______ _______ _____ _____    ______ ____
ROOT
ATOM      1  N   UNL     1     145.391 125.200  95.018  0.00  0.00    +0.000 NA
ATOM      2  N   UNL     1     141.712 127.708  96.736  0.00  0.00    +0.000 N 
ATOM      3  C   UNL     1     143.617 126.441  95.883  0.00  0.00    +0.000 C 
ATOM      4  C   UNL     1     145.154 126.426  95.802  0.00  0.00    +0.000 C 
ATOM      5  C   UNL     1     143.146 127.389  97.004  0.00  0.00    +0.000 C 
ATOM      6  C   UNL     1     145.875 126.536  97.224  0.00  0.00    +0.000 C 
ATOM      7  C   UNL     1     143.558 126.997  98.433  0.00  0.00    +0.000 C 
ATOM      8  C   UNL     1     143.204 124.957  95.900  0.00  0.00    +0.000 C 
ATOM      9  C   UNL     1     144.907 126.205  98.445  0.00  0.00    +0.000 C 
ATOM     10  C   UNL     1     142.836 127.096  94.761  0.00  0.00    +0.000 A 
ATOM     11  C   UNL     1     144.447 124.184  95.465  0.00  0.00    +0.000 C 
ATOM     12  C   UNL     1     141.726 127.755  95.308  0.00  0.00    +0.000 A 
ATOM     13  C   UNL     1     147.078 125.595  97.319  0.00  0.00    +0.000 C 
ATOM     14  C   UNL     1     146.775 124.753  94.987  0.00  0.00    +0.000 C 
ATOM     15  C   UNL     1     147.476 124.814  96.306  0.00  0.00    +0.000 C 
ATOM     16  C   UNL     1     143.066 127.053  93.390  0.00  0.00    +0.000 A 
ATOM     17  C   UNL     1     141.153 128.897  97.377  0.00  0.00    +0.000 C 
ATOM     18  C   UNL     1     140.804 128.350  94.468  0.00  0.00    +0.000 A 
ATOM     19  C   UNL     1     142.148 127.655  92.507  0.00  0.00    +0.000 A 
ATOM     20  C   UNL     1     141.008 128.294  93.079  0.00  0.00    +0.000 A 
ENDROOT
BRANCH  19  23
ATOM     21  N   UNL     1     143.448 127.151  86.795  0.00  0.00    +0.000 NA
ATOM     22  N   UNL     1     140.549 125.825  90.993  0.00  0.00    +0.000 N 
ATOM     23  C   UNL     1     142.345 127.615  90.939  0.00  0.00    +0.000 C 
ATOM     24  C   UNL     1     143.719 126.903  90.544  0.00  0.00    +0.000 C 
ATOM     25  C   UNL     1     141.195 126.801  90.254  0.00  0.00    +0.000 A 
ATOM     26  C   UNL     1     143.887 126.480  89.076  0.00  0.00    +0.000 C 
ATOM     27  C   UNL     1     145.146 125.666  88.781  0.00  0.00    +0.000 C 
ATOM     28  C   UNL     1     143.888 127.639  88.090  0.00  0.00    +0.000 C 
ATOM     29  C   UNL     1     140.657 126.726  88.956  0.00  0.00    +0.000 A 
ATOM     30  C   UNL     1     145.221 125.246  87.282  0.00  0.00    +0.000 C 
ATOM     31  C   UNL     1     144.369 126.119  86.272  0.00  0.00    +0.000 C 
ATOM     32  C   UNL     1     141.008 127.473  87.679  0.00  0.00    +0.000 C 
ATOM     33  C   UNL     1     142.024 126.725  86.764  0.00  0.00    +0.000 C 
ATOM     34  C   UNL     1     139.636 125.705  88.983  0.00  0.00    +0.000 A 
ATOM     35  C   UNL     1     139.597 125.170  90.262  0.00  0.00    +0.000 A 
ATOM     36  C   UNL     1     138.750 125.176  88.016  0.00  0.00    +0.000 A 
ATOM     37  C   UNL     1     138.721 124.145  90.640  0.00  0.00    +0.000 A 
ATOM     38  C   UNL     1     137.865 124.152  88.372  0.00  0.00    +0.000 A 
ATOM     39  C   UNL     1     137.852 123.645  89.667  0.00  0.00    +0.000 A 
ATOM     40  H   UNL     1     140.736 125.626  91.967  0.00  0.00    +0.000 HD
BRANCH  23  42
ATOM     41  O   UNL     1     141.586 129.667  89.719  0.00  0.00    +0.000 OA
ATOM     42  C   UNL     1     142.359 129.114  90.491  0.00  0.00    +0.000 C 
BRANCH  42  43
ATOM     43  O   UNL     1     143.380 129.782  91.126  0.00  0.00    +0.000 OA
ATOM     44  C   UNL     1     143.263 131.204  91.071  0.00  0.00    +0.000 C 
ENDBRANCH  42  43
ENDBRANCH  23  42
BRANCH  30  45
ATOM     45  O   UNL     1     146.614 125.401  86.912  0.00  0.00    +0.000 OA
ATOM     46  H   UNL     1     146.668 126.149  86.291  0.00  0.00    +0.000 HD
ENDBRANCH  30  45
BRANCH  30  47
ATOM     47  C   UNL     1     144.955 123.733  87.102  0.00  0.00    +0.000 C 
ATOM     48  C   UNL     1     145.068 122.872  88.348  0.00  0.00    +0.000 C 
ENDBRANCH  30  47
ENDBRANCH  19  23
BRANCH   7  49
ATOM     49  O   UNL     1     143.826 128.261  99.122  0.00  0.00    +0.000 OA
ATOM     50  H   UNL     1     143.447 128.963  98.554  0.00  0.00    +0.000 HD
ENDBRANCH   7  49
BRANCH   7  52
ATOM     51  O   UNL     1     141.716 125.364  98.756  0.00  0.00    +0.000 OA
ATOM     52  C   UNL     1     142.429 126.257  99.192  0.00  0.00    +0.000 C 
BRANCH  52  53
ATOM     53  O   UNL     1     142.383 126.697 100.493  0.00  0.00    +0.000 OA
ATOM     54  C   UNL     1     141.060 126.907 100.988  0.00  0.00    +0.000 C 
ENDBRANCH  52  53
ENDBRANCH   7  52
BRANCH  20  55
ATOM     55  O   UNL     1     140.137 128.913  92.219  0.00  0.00    +0.000 OA
ATOM     56  C   UNL     1     139.526 130.097  92.723  0.00  0.00    +0.000 C 
ENDBRANCH  20  55
BRANCH   6  57
ATOM     57  C   UNL     1     146.442 127.991  97.418  0.00  0.00    +0.000 C 
ATOM     58  C   UNL     1     147.224 128.581  96.243  0.00  0.00    +0.000 C 
ENDBRANCH   6  57
BRANCH   9  59
ATOM     59  O   UNL     1     144.697 124.773  98.479  0.00  0.00    +0.000 OA
BRANCH  59  61
ATOM     60  O   UNL     1     145.017 122.904  99.765  0.00  0.00    +0.000 OA
ATOM     61  C   UNL     1     145.098 124.113  99.599  0.00  0.00    +0.000 C 
ATOM     62  C   UNL     1     145.684 125.076 100.584  0.00  0.00    +0.000 C 
ENDBRANCH  59  61
ENDBRANCH   9  59
TORSDOF 12
ENDMDL
MODEL 9
REMARK VINA RESULT:      -5.9     14.261     18.639
REMARK  Name = 
REMARK  19 active torsions:
REMARK  status: ('A' for Active; 'I' for Inactive)
REMARK    1  A    between atoms: O_1  and  C_20
REMARK    2  A    between atoms: O_1  and  C_36
REMARK    3  A    between atoms: O_2  and  C_18
REMARK    4  A    between atoms: O_3  and  C_28
REMARK    5  A    between atoms: O_3  and  C_42
REMARK    6  A    between atoms: O_5  and  C_34
REMARK    7  A    between atoms: O_5  and  C_50
REMARK    8  A    between atoms: O_7  and  C_40
REMARK    9  A    between atoms: O_7  and  C_56
REMARK   10  A    between atoms: O_9  and  C_46
REMARK   11  A    between atoms: N_11  and  C_30
REMARK   12  A    between atoms: C_17  and  C_23
REMARK   13  A    between atoms: C_18  and  C_28
REMARK   14  A    between atoms: C_23  and  C_32
REMARK   15  A    between atoms: C_33  and  C_35
REMARK   16  A    between atoms: C_35  and  C_40
REMARK   17  A    between atoms: C_36  and  C_41
REMARK   18  A    between atoms: C_46  and  C_53
REMARK   19  A    between atoms: C_53  and  C_57
REMARK                            x       y       z     vdW  Elec       q    Type
REMARK                         _______ _______ _______ _____ _____    ______ ____
ROOT
ATOM      1  N   UNL     1     141.659 113.754 110.343  0.00  0.00    +0.000 NA
ATOM      2  N   UNL     1     137.168 114.477 111.787  0.00  0.00    +0.000 N 
ATOM      3  C   UNL     1     139.476 114.141 111.064  0.00  0.00    +0.000 C 
ATOM      4  C   UNL     1     140.788 114.876 110.741  0.00  0.00    +0.000 C 
ATOM      5  C   UNL     1     138.545 115.041 111.902  0.00  0.00    +0.000 C 
ATOM      6  C   UNL     1     141.305 115.820 111.923  0.00  0.00    +0.000 C 
ATOM      7  C   UNL     1     139.066 115.434 113.294  0.00  0.00    +0.000 C 
ATOM      8  C   UNL     1     139.911 112.764 111.603  0.00  0.00    +0.000 C 
ATOM      9  C   UNL     1     140.629 115.492 113.328  0.00  0.00    +0.000 C 
ATOM     10  C   UNL     1     138.495 113.875 109.939  0.00  0.00    +0.000 A 
ATOM     11  C   UNL     1     141.385 112.629 111.229  0.00  0.00    +0.000 C 
ATOM     12  C   UNL     1     137.191 114.026 110.431  0.00  0.00    +0.000 A 
ATOM     13  C   UNL     1     142.821 115.715 112.104  0.00  0.00    +0.000 C 
ATOM     14  C   UNL     1     143.070 114.088 110.226  0.00  0.00    +0.000 C 
ATOM     15  C   UNL     1     143.599 114.947 111.328  0.00  0.00    +0.000 C 
ATOM     16  C   UNL     1     138.747 113.483 108.629  0.00  0.00    +0.000 A 
ATOM     17  C   UNL     1     136.048 115.358 112.115  0.00  0.00    +0.000 C 
ATOM     18  C   UNL     1     136.116 113.741 109.612  0.00  0.00    +0.000 A 
ATOM     19  C   UNL     1     137.672 113.190 107.767  0.00  0.00    +0.000 A 
ATOM     20  C   UNL     1     136.353 113.318 108.294  0.00  0.00    +0.000 A 
ENDROOT
BRANCH  19  23
ATOM     21  N   UNL     1     138.054 111.879 102.047  0.00  0.00    +0.000 NA
ATOM     22  N   UNL     1     140.019 114.102 106.405  0.00  0.00    +0.000 N 
ATOM     23  C   UNL     1     137.900 112.714 106.276  0.00  0.00    +0.000 C 
ATOM     24  C   UNL     1     136.903 113.453 105.271  0.00  0.00    +0.000 C 
ATOM     25  C   UNL     1     139.357 113.045 105.803  0.00  0.00    +0.000 A 
ATOM     26  C   UNL     1     137.232 113.361 103.772  0.00  0.00    +0.000 C 
ATOM     27  C   UNL     1     136.343 114.210 102.865  0.00  0.00    +0.000 C 
ATOM     28  C   UNL     1     137.186 111.947 103.210  0.00  0.00    +0.000 C 
ATOM     29  C   UNL     1     140.210 112.579 104.787  0.00  0.00    +0.000 A 
ATOM     30  C   UNL     1     136.765 114.090 101.370  0.00  0.00    +0.000 C 
ATOM     31  C   UNL     1     137.595 112.798 100.983  0.00  0.00    +0.000 C 
ATOM     32  C   UNL     1     140.019 111.501 103.731  0.00  0.00    +0.000 C 
ATOM     33  C   UNL     1     139.498 112.036 102.363  0.00  0.00    +0.000 C 
ATOM     34  C   UNL     1     141.417 113.370 104.855  0.00  0.00    +0.000 A 
ATOM     35  C   UNL     1     141.261 114.302 105.870  0.00  0.00    +0.000 A 
ATOM     36  C   UNL     1     142.625 113.383 104.122  0.00  0.00    +0.000 A 
ATOM     37  C   UNL     1     142.244 115.242 106.206  0.00  0.00    +0.000 A 
ATOM     38  C   UNL     1     143.622 114.312 104.442  0.00  0.00    +0.000 A 
ATOM     39  C   UNL     1     143.431 115.228 105.470  0.00  0.00    +0.000 A 
ATOM     40  H   UNL     1     139.646 114.654 107.166  0.00  0.00    +0.000 HD
BRANCH  23  42
ATOM     41  O   UNL     1     136.615 110.599 105.891  0.00  0.00    +0.000 OA
ATOM     42  C   UNL     1     137.618 111.175 106.292  0.00  0.00    +0.000 C 
BRANCH  42  43
ATOM     43  O   UNL     1     138.701 110.506 106.812  0.00  0.00    +0.000 OA
ATOM     44  C   UNL     1     138.360 109.513 107.778  0.00  0.00    +0.000 C 
ENDBRANCH  42  43
ENDBRANCH  23  42
BRANCH  30  45
ATOM     45  O   UNL     1     135.522 114.040 100.626  0.00  0.00    +0.000 OA
ATOM     46  H   UNL     1     135.316 114.949 100.345  0.00  0.00    +0.000 HD
ENDBRANCH  30  45
BRANCH  30  47
ATOM     47  C   UNL     1     137.446 115.384 100.866  0.00  0.00    +0.000 C 
ATOM     48  C   UNL     1     137.608 115.525  99.363  0.00  0.00    +0.000 C 
ENDBRANCH  30  47
ENDBRANCH  19  23
BRANCH   7  49
ATOM     49  O   UNL     1     138.606 116.808 113.509  0.00  0.00    +0.000 OA
ATOM     50  H   UNL     1     138.875 117.309 112.711  0.00  0.00    +0.000 HD
ENDBRANCH   7  49
BRANCH   7  52
ATOM     51  O   UNL     1     138.285 113.336 114.368  0.00  0.00    +0.000 OA
ATOM     52  C   UNL     1     138.481 114.542 114.418  0.00  0.00    +0.000 C 
BRANCH  52  53
ATOM     53  O   UNL     1     138.279 115.298 115.547  0.00  0.00    +0.000 OA
ATOM     54  C   UNL     1     138.230 114.535 116.755  0.00  0.00    +0.000 C 
ENDBRANCH  52  53
ENDBRANCH   7  52
BRANCH  20  55
ATOM     55  O   UNL     1     135.309 113.071 107.439  0.00  0.00    +0.000 OA
ATOM     56  C   UNL     1     134.229 112.328 107.999  0.00  0.00    +0.000 C 
ENDBRANCH  20  55
BRANCH   6  57
ATOM     57  C   UNL     1     141.011 117.323 111.567  0.00  0.00    +0.000 C 
ATOM     58  C   UNL     1     142.226 118.245 111.440  0.00  0.00    +0.000 C 
ENDBRANCH   6  57
BRANCH   9  59
ATOM     59  O   UNL     1     141.208 114.266 113.834  0.00  0.00    +0.000 OA
BRANCH  59  61
ATOM     60  O   UNL     1     141.824 115.232 115.818  0.00  0.00    +0.000 OA
ATOM     61  C   UNL     1     141.568 114.243 115.145  0.00  0.00    +0.000 C 
ATOM     62  C   UNL     1     141.570 112.835 115.655  0.00  0.00    +0.000 C 
ENDBRANCH  59  61
ENDBRANCH   9  59
TORSDOF 12
ENDMDL
