MODEL 1
REMARK VINA RESULT:      -5.8      0.000      0.000
REMARK  Name = Vorinostat.pdbqt.pdb
REMARK  6 active torsions:
REMARK  status: ('A' for Active; 'I' for Inactive)
REMARK    1  A    between atoms: C_1  and  C_2
REMARK    2  A    between atoms: C_3  and  C_4
REMARK    3  A    between atoms: C_5  and  C_8
REMARK    4  A    between atoms: N_7  and  O_10
REMARK    5  A    between atoms: C_12  and  C_15
REMARK    6  A    between atoms: N_14  and  C_17
REMARK                            x       y       z     vdW  Elec       q    Type
REMARK                         _______ _______ _______ _____ _____    ______ ____
ROOT
ATOM      1  C   UNL     1     138.954 131.812 134.965  0.00  0.00    +0.000 C 
ATOM      2  C   UNL     1     138.491 132.923 135.912  0.00  0.00    +0.000 C 
ENDROOT
BRANCH   2   5
ATOM      3  O   UNL     1     137.073 134.627 136.495  0.00  0.00    +0.000 OA
ATOM      4  N   UNL     1     138.833 134.106 137.932  0.00  0.00    +0.000 N 
ATOM      5  C   UNL     1     138.056 133.972 136.804  0.00  0.00    +0.000 C 
ATOM      6  H   UNL     1     139.619 133.475 138.033  0.00  0.00    +0.000 HD
BRANCH   4   7
ATOM      7  C   UNL     1     138.631 135.045 138.958  0.00  0.00    +0.000 A 
ATOM      8  C   UNL     1     138.108 134.585 140.168  0.00  0.00    +0.000 A 
ATOM      9  C   UNL     1     138.931 136.399 138.814  0.00  0.00    +0.000 A 
ATOM     10  C   UNL     1     137.886 135.469 141.221  0.00  0.00    +0.000 A 
ATOM     11  C   UNL     1     138.711 137.285 139.867  0.00  0.00    +0.000 A 
ATOM     12  C   UNL     1     138.188 136.820 141.070  0.00  0.00    +0.000 A 
ENDBRANCH   4   7
ENDBRANCH   2   5
BRANCH   1  13
ATOM     13  C   UNL     1     139.414 130.701 134.016  0.00  0.00    +0.000 C 
ATOM     14  C   UNL     1     139.876 129.591 133.067  0.00  0.00    +0.000 C 
BRANCH  14  15
ATOM     15  C   UNL     1     140.337 128.482 132.117  0.00  0.00    +0.000 C 
ATOM     16  C   UNL     1     140.797 127.371 131.168  0.00  0.00    +0.000 C 
BRANCH  16  19
ATOM     17  O   UNL     1     141.994 125.453 130.669  0.00  0.00    +0.000 OA
ATOM     18  N   UNL     1     140.730 126.381 129.007  0.00  0.00    +0.000 N 
ATOM     19  C   UNL     1     141.229 126.327 130.278  0.00  0.00    +0.000 C 
ATOM     20  H   UNL     1     140.066 127.072 128.678  0.00  0.00    +0.000 HD
BRANCH  18  21
ATOM     21  O   UNL     1     141.103 125.355 128.112  0.00  0.00    +0.000 OA
ATOM     22  H   UNL     1     141.962 125.050 128.480  0.00  0.00    +0.000 HD
ENDBRANCH  18  21
ENDBRANCH  16  19
ENDBRANCH  14  15
ENDBRANCH   1  13
TORSDOF 6
ENDMDL
MODEL 2
REMARK VINA RESULT:      -5.7     10.395     14.863
REMARK  Name = Vorinostat.pdbqt.pdb
REMARK  6 active torsions:
REMARK  status: ('A' for Active; 'I' for Inactive)
REMARK    1  A    between atoms: C_1  and  C_2
REMARK    2  A    between atoms: C_3  and  C_4
REMARK    3  A    between atoms: C_5  and  C_8
REMARK    4  A    between atoms: N_7  and  O_10
REMARK    5  A    between atoms: C_12  and  C_15
REMARK    6  A    between atoms: N_14  and  C_17
REMARK                            x       y       z     vdW  Elec       q    Type
REMARK                         _______ _______ _______ _____ _____    ______ ____
ROOT
ATOM      1  C   UNL     1     135.720 124.051 140.786  0.00  0.00    +0.000 C 
ATOM      2  C   UNL     1     135.341 123.231 139.550  0.00  0.00    +0.000 C 
ENDROOT
BRANCH   2   5
ATOM      3  O   UNL     1     134.016 121.716 138.452  0.00  0.00    +0.000 OA
ATOM      4  N   UNL     1     135.807 122.665 137.300  0.00  0.00    +0.000 N 
ATOM      5  C   UNL     1     134.983 122.458 138.383  0.00  0.00    +0.000 C 
ATOM      6  H   UNL     1     136.570 123.321 137.415  0.00  0.00    +0.000 HD
BRANCH   4   7
ATOM      7  C   UNL     1     135.682 122.042 136.046  0.00  0.00    +0.000 A 
ATOM      8  C   UNL     1     134.860 122.650 135.096  0.00  0.00    +0.000 A 
ATOM      9  C   UNL     1     136.341 120.857 135.722  0.00  0.00    +0.000 A 
ATOM     10  C   UNL     1     134.698 122.079 133.836  0.00  0.00    +0.000 A 
ATOM     11  C   UNL     1     136.180 120.283 134.462  0.00  0.00    +0.000 A 
ATOM     12  C   UNL     1     135.359 120.895 133.519  0.00  0.00    +0.000 A 
ENDBRANCH   4   7
ENDBRANCH   2   5
BRANCH   1  13
ATOM     13  C   UNL     1     136.100 124.873 142.021  0.00  0.00    +0.000 C 
ATOM     14  C   UNL     1     136.482 125.694 143.257  0.00  0.00    +0.000 C 
BRANCH  14  15
ATOM     15  C   UNL     1     136.864 126.514 144.492  0.00  0.00    +0.000 C 
ATOM     16  C   UNL     1     137.247 127.334 145.728  0.00  0.00    +0.000 C 
BRANCH  16  19
ATOM     17  O   UNL     1     136.773 128.368 147.744  0.00  0.00    +0.000 OA
ATOM     18  N   UNL     1     138.915 128.498 146.960  0.00  0.00    +0.000 N 
ATOM     19  C   UNL     1     137.608 128.103 146.888  0.00  0.00    +0.000 C 
ATOM     20  H   UNL     1     139.628 128.255 146.283  0.00  0.00    +0.000 HD
BRANCH  18  21
ATOM     21  O   UNL     1     139.317 129.227 148.101  0.00  0.00    +0.000 OA
ATOM     22  H   UNL     1     139.772 128.546 148.643  0.00  0.00    +0.000 HD
ENDBRANCH  18  21
ENDBRANCH  16  19
ENDBRANCH  14  15
ENDBRANCH   1  13
TORSDOF 6
ENDMDL
MODEL 3
REMARK VINA RESULT:      -5.6     10.009     10.550
REMARK  Name = Vorinostat.pdbqt.pdb
REMARK  6 active torsions:
REMARK  status: ('A' for Active; 'I' for Inactive)
REMARK    1  A    between atoms: C_1  and  C_2
REMARK    2  A    between atoms: C_3  and  C_4
REMARK    3  A    between atoms: C_5  and  C_8
REMARK    4  A    between atoms: N_7  and  O_10
REMARK    5  A    between atoms: C_12  and  C_15
REMARK    6  A    between atoms: N_14  and  C_17
REMARK                            x       y       z     vdW  Elec       q    Type
REMARK                         _______ _______ _______ _____ _____    ______ ____
ROOT
ATOM      1  C   UNL     1     135.968 125.053 142.037  0.00  0.00    +0.000 C 
ATOM      2  C   UNL     1     135.918 126.026 143.219  0.00  0.00    +0.000 C 
ENDROOT
BRANCH   2   5
ATOM      3  O   UNL     1     135.295 128.008 144.188  0.00  0.00    +0.000 OA
ATOM      4  N   UNL     1     136.508 126.481 145.465  0.00  0.00    +0.000 N 
ATOM      5  C   UNL     1     135.872 126.942 144.335  0.00  0.00    +0.000 C 
ATOM      6  H   UNL     1     136.941 125.566 145.414  0.00  0.00    +0.000 HD
BRANCH   4   7
ATOM      7  C   UNL     1     136.612 127.171 146.685  0.00  0.00    +0.000 A 
ATOM      8  C   UNL     1     135.946 126.640 147.791  0.00  0.00    +0.000 A 
ATOM      9  C   UNL     1     137.346 128.347 146.828  0.00  0.00    +0.000 A 
ATOM     10  C   UNL     1     136.012 127.280 149.026  0.00  0.00    +0.000 A 
ATOM     11  C   UNL     1     137.414 128.989 148.063  0.00  0.00    +0.000 A 
ATOM     12  C   UNL     1     136.747 128.455 149.162  0.00  0.00    +0.000 A 
ENDBRANCH   4   7
ENDBRANCH   2   5
BRANCH   1  13
ATOM     13  C   UNL     1     136.019 124.082 140.854  0.00  0.00    +0.000 C 
ATOM     14  C   UNL     1     136.071 123.111 139.671  0.00  0.00    +0.000 C 
BRANCH  14  15
ATOM     15  C   UNL     1     136.121 122.140 138.488  0.00  0.00    +0.000 C 
ATOM     16  C   UNL     1     136.173 121.168 137.305  0.00  0.00    +0.000 C 
BRANCH  16  19
ATOM     17  O   UNL     1     135.452 119.302 136.139  0.00  0.00    +0.000 OA
ATOM     18  N   UNL     1     137.158 120.526 135.238  0.00  0.00    +0.000 N 
ATOM     19  C   UNL     1     136.221 120.254 136.195  0.00  0.00    +0.000 C 
ATOM     20  H   UNL     1     137.774 121.329 135.247  0.00  0.00    +0.000 HD
BRANCH  18  21
ATOM     21  O   UNL     1     137.215 119.670 134.116  0.00  0.00    +0.000 OA
ATOM     22  H   UNL     1     137.310 118.783 134.526  0.00  0.00    +0.000 HD
ENDBRANCH  18  21
ENDBRANCH  16  19
ENDBRANCH  14  15
ENDBRANCH   1  13
TORSDOF 6
ENDMDL
MODEL 4
REMARK VINA RESULT:      -5.6     10.508     13.510
REMARK  Name = Vorinostat.pdbqt.pdb
REMARK  6 active torsions:
REMARK  status: ('A' for Active; 'I' for Inactive)
REMARK    1  A    between atoms: C_1  and  C_2
REMARK    2  A    between atoms: C_3  and  C_4
REMARK    3  A    between atoms: C_5  and  C_8
REMARK    4  A    between atoms: N_7  and  O_10
REMARK    5  A    between atoms: C_12  and  C_15
REMARK    6  A    between atoms: N_14  and  C_17
REMARK                            x       y       z     vdW  Elec       q    Type
REMARK                         _______ _______ _______ _____ _____    ______ ____
ROOT
ATOM      1  C   UNL     1     136.959 122.827 135.162  0.00  0.00    +0.000 C 
ATOM      2  C   UNL     1     138.451 122.901 134.827  0.00  0.00    +0.000 C 
ENDROOT
BRANCH   2   5
ATOM      3  O   UNL     1     140.219 123.730 133.625  0.00  0.00    +0.000 OA
ATOM      4  N   UNL     1     140.647 122.147 135.281  0.00  0.00    +0.000 N 
ATOM      5  C   UNL     1     139.859 122.972 134.512  0.00  0.00    +0.000 C 
ATOM      6  H   UNL     1     140.183 121.578 135.979  0.00  0.00    +0.000 HD
BRANCH   4   7
ATOM      7  C   UNL     1     142.044 122.023 135.181  0.00  0.00    +0.000 A 
ATOM      8  C   UNL     1     142.553 121.157 134.212  0.00  0.00    +0.000 A 
ATOM      9  C   UNL     1     142.926 122.724 136.002  0.00  0.00    +0.000 A 
ATOM     10  C   UNL     1     143.928 120.992 134.066  0.00  0.00    +0.000 A 
ATOM     11  C   UNL     1     144.303 122.561 135.858  0.00  0.00    +0.000 A 
ATOM     12  C   UNL     1     144.803 121.696 134.890  0.00  0.00    +0.000 A 
ENDBRANCH   4   7
ENDBRANCH   2   5
BRANCH   1  13
ATOM     13  C   UNL     1     135.467 122.752 135.499  0.00  0.00    +0.000 C 
ATOM     14  C   UNL     1     133.974 122.676 135.836  0.00  0.00    +0.000 C 
BRANCH  14  15
ATOM     15  C   UNL     1     132.483 122.600 136.172  0.00  0.00    +0.000 C 
ATOM     16  C   UNL     1     130.989 122.524 136.507  0.00  0.00    +0.000 C 
BRANCH  16  19
ATOM     17  O   UNL     1     128.853 121.686 136.209  0.00  0.00    +0.000 OA
ATOM     18  N   UNL     1     129.156 123.274 137.823  0.00  0.00    +0.000 N 
ATOM     19  C   UNL     1     129.587 122.452 136.820  0.00  0.00    +0.000 C 
ATOM     20  H   UNL     1     129.755 123.884 138.365  0.00  0.00    +0.000 HD
BRANCH  18  21
ATOM     21  O   UNL     1     127.792 123.208 138.182  0.00  0.00    +0.000 OA
ATOM     22  H   UNL     1     127.388 123.910 137.625  0.00  0.00    +0.000 HD
ENDBRANCH  18  21
ENDBRANCH  16  19
ENDBRANCH  14  15
ENDBRANCH   1  13
TORSDOF 6
ENDMDL
MODEL 5
REMARK VINA RESULT:      -5.5     10.115     15.020
REMARK  Name = Vorinostat.pdbqt.pdb
REMARK  6 active torsions:
REMARK  status: ('A' for Active; 'I' for Inactive)
REMARK    1  A    between atoms: C_1  and  C_2
REMARK    2  A    between atoms: C_3  and  C_4
REMARK    3  A    between atoms: C_5  and  C_8
REMARK    4  A    between atoms: N_7  and  O_10
REMARK    5  A    between atoms: C_12  and  C_15
REMARK    6  A    between atoms: N_14  and  C_17
REMARK                            x       y       z     vdW  Elec       q    Type
REMARK                         _______ _______ _______ _____ _____    ______ ____
ROOT
ATOM      1  C   UNL     1     135.570 123.068 139.234  0.00  0.00    +0.000 C 
ATOM      2  C   UNL     1     135.399 122.237 137.959  0.00  0.00    +0.000 C 
ENDROOT
BRANCH   2   5
ATOM      3  O   UNL     1     135.606 120.289 136.768  0.00  0.00    +0.000 OA
ATOM      4  N   UNL     1     134.665 122.142 135.712  0.00  0.00    +0.000 N 
ATOM      5  C   UNL     1     135.237 121.453 136.757  0.00  0.00    +0.000 C 
ATOM      6  H   UNL     1     134.417 123.110 135.874  0.00  0.00    +0.000 HD
BRANCH   4   7
ATOM      7  C   UNL     1     134.396 121.618 134.436  0.00  0.00    +0.000 A 
ATOM      8  C   UNL     1     135.139 122.107 133.361  0.00  0.00    +0.000 A 
ATOM      9  C   UNL     1     133.428 120.640 134.209  0.00  0.00    +0.000 A 
ATOM     10  C   UNL     1     134.917 121.626 132.073  0.00  0.00    +0.000 A 
ATOM     11  C   UNL     1     133.204 120.157 132.921  0.00  0.00    +0.000 A 
ATOM     12  C   UNL     1     133.949 120.650 131.854  0.00  0.00    +0.000 A 
ENDBRANCH   4   7
ENDBRANCH   2   5
BRANCH   1  13
ATOM     13  C   UNL     1     135.739 123.901 140.508  0.00  0.00    +0.000 C 
ATOM     14  C   UNL     1     135.910 124.734 141.783  0.00  0.00    +0.000 C 
BRANCH  14  15
ATOM     15  C   UNL     1     136.080 125.565 143.057  0.00  0.00    +0.000 C 
ATOM     16  C   UNL     1     136.249 126.397 144.333  0.00  0.00    +0.000 C 
BRANCH  16  19
ATOM     17  O   UNL     1     135.611 127.063 146.455  0.00  0.00    +0.000 OA
ATOM     18  N   UNL     1     137.482 128.020 145.558  0.00  0.00    +0.000 N 
ATOM     19  C   UNL     1     136.407 127.176 145.531  0.00  0.00    +0.000 C 
ATOM     20  H   UNL     1     138.171 128.097 144.821  0.00  0.00    +0.000 HD
BRANCH  18  21
ATOM     21  O   UNL     1     137.689 128.778 146.730  0.00  0.00    +0.000 OA
ATOM     22  H   UNL     1     136.782 129.079 146.956  0.00  0.00    +0.000 HD
ENDBRANCH  18  21
ENDBRANCH  16  19
ENDBRANCH  14  15
ENDBRANCH   1  13
TORSDOF 6
ENDMDL
MODEL 6
REMARK VINA RESULT:      -5.4      9.730      9.948
REMARK  Name = Vorinostat.pdbqt.pdb
REMARK  6 active torsions:
REMARK  status: ('A' for Active; 'I' for Inactive)
REMARK    1  A    between atoms: C_1  and  C_2
REMARK    2  A    between atoms: C_3  and  C_4
REMARK    3  A    between atoms: C_5  and  C_8
REMARK    4  A    between atoms: N_7  and  O_10
REMARK    5  A    between atoms: C_12  and  C_15
REMARK    6  A    between atoms: N_14  and  C_17
REMARK                            x       y       z     vdW  Elec       q    Type
REMARK                         _______ _______ _______ _____ _____    ______ ____
ROOT
ATOM      1  C   UNL     1     135.567 123.612 139.612  0.00  0.00    +0.000 C 
ATOM      2  C   UNL     1     135.756 124.111 141.048  0.00  0.00    +0.000 C 
ENDROOT
BRANCH   2   5
ATOM      3  O   UNL     1     135.739 123.797 143.319  0.00  0.00    +0.000 OA
ATOM      4  N   UNL     1     136.313 125.899 142.493  0.00  0.00    +0.000 N 
ATOM      5  C   UNL     1     135.933 124.580 142.402  0.00  0.00    +0.000 C 
ATOM      6  H   UNL     1     136.431 126.410 141.626  0.00  0.00    +0.000 HD
BRANCH   4   7
ATOM      7  C   UNL     1     136.552 126.602 143.687  0.00  0.00    +0.000 A 
ATOM      8  C   UNL     1     137.877 126.757 144.097  0.00  0.00    +0.000 A 
ATOM      9  C   UNL     1     135.528 127.143 144.463  0.00  0.00    +0.000 A 
ATOM     10  C   UNL     1     138.175 127.444 145.271  0.00  0.00    +0.000 A 
ATOM     11  C   UNL     1     135.824 127.832 145.638  0.00  0.00    +0.000 A 
ATOM     12  C   UNL     1     137.148 127.982 146.042  0.00  0.00    +0.000 A 
ENDBRANCH   4   7
ENDBRANCH   2   5
BRANCH   1  13
ATOM     13  C   UNL     1     135.378 123.112 138.177  0.00  0.00    +0.000 C 
ATOM     14  C   UNL     1     135.189 122.612 136.741  0.00  0.00    +0.000 C 
BRANCH  14  15
ATOM     15  C   UNL     1     134.999 122.113 135.307  0.00  0.00    +0.000 C 
ATOM     16  C   UNL     1     134.809 121.612 133.871  0.00  0.00    +0.000 C 
BRANCH  16  19
ATOM     17  O   UNL     1     135.110 121.759 131.581  0.00  0.00    +0.000 OA
ATOM     18  N   UNL     1     133.920 119.982 132.385  0.00  0.00    +0.000 N 
ATOM     19  C   UNL     1     134.633 121.140 132.524  0.00  0.00    +0.000 C 
ATOM     20  H   UNL     1     133.553 119.436 133.155  0.00  0.00    +0.000 HD
BRANCH  18  21
ATOM     21  O   UNL     1     133.753 119.469 131.081  0.00  0.00    +0.000 OA
ATOM     22  H   UNL     1     134.560 119.786 130.619  0.00  0.00    +0.000 HD
ENDBRANCH  18  21
ENDBRANCH  16  19
ENDBRANCH  14  15
ENDBRANCH   1  13
TORSDOF 6
ENDMDL
MODEL 7
REMARK VINA RESULT:      -5.3      2.931      3.110
REMARK  Name = Vorinostat.pdbqt.pdb
REMARK  6 active torsions:
REMARK  status: ('A' for Active; 'I' for Inactive)
REMARK    1  A    between atoms: C_1  and  C_2
REMARK    2  A    between atoms: C_3  and  C_4
REMARK    3  A    between atoms: C_5  and  C_8
REMARK    4  A    between atoms: N_7  and  O_10
REMARK    5  A    between atoms: C_12  and  C_15
REMARK    6  A    between atoms: N_14  and  C_17
REMARK                            x       y       z     vdW  Elec       q    Type
REMARK                         _______ _______ _______ _____ _____    ______ ____
ROOT
ATOM      1  C   UNL     1     139.343 131.974 134.080  0.00  0.00    +0.000 C 
ATOM      2  C   UNL     1     139.350 133.460 134.450  0.00  0.00    +0.000 C 
ENDROOT
BRANCH   2   5
ATOM      3  O   UNL     1     139.181 135.682 133.910  0.00  0.00    +0.000 OA
ATOM      4  N   UNL     1     139.569 135.106 136.135  0.00  0.00    +0.000 N 
ATOM      5  C   UNL     1     139.357 134.862 134.798  0.00  0.00    +0.000 C 
ATOM      6  H   UNL     1     139.698 134.304 136.739  0.00  0.00    +0.000 HD
BRANCH   4   7
ATOM      7  C   UNL     1     139.623 136.375 136.737  0.00  0.00    +0.000 A 
ATOM      8  C   UNL     1     138.417 137.040 136.964  0.00  0.00    +0.000 A 
ATOM      9  C   UNL     1     140.820 136.985 137.111  0.00  0.00    +0.000 A 
ATOM     10  C   UNL     1     138.408 138.301 137.557  0.00  0.00    +0.000 A 
ATOM     11  C   UNL     1     140.814 138.245 137.705  0.00  0.00    +0.000 A 
ATOM     12  C   UNL     1     139.607 138.903 137.928  0.00  0.00    +0.000 A 
ENDBRANCH   4   7
ENDBRANCH   2   5
BRANCH   1  13
ATOM     13  C   UNL     1     139.336 130.489 133.708  0.00  0.00    +0.000 C 
ATOM     14  C   UNL     1     139.329 129.003 133.336  0.00  0.00    +0.000 C 
BRANCH  14  15
ATOM     15  C   UNL     1     139.321 127.517 132.964  0.00  0.00    +0.000 C 
ATOM     16  C   UNL     1     139.314 126.031 132.593  0.00  0.00    +0.000 C 
BRANCH  16  19
ATOM     17  O   UNL     1     140.355 124.000 132.206  0.00  0.00    +0.000 OA
ATOM     18  N   UNL     1     138.083 124.091 131.980  0.00  0.00    +0.000 N 
ATOM     19  C   UNL     1     139.308 124.635 132.246  0.00  0.00    +0.000 C 
ATOM     20  H   UNL     1     137.204 124.589 132.047  0.00  0.00    +0.000 HD
BRANCH  18  21
ATOM     21  O   UNL     1     138.032 122.715 131.668  0.00  0.00    +0.000 OA
ATOM     22  H   UNL     1     137.068 122.527 131.675  0.00  0.00    +0.000 HD
ENDBRANCH  18  21
ENDBRANCH  16  19
ENDBRANCH  14  15
ENDBRANCH   1  13
TORSDOF 6
ENDMDL
MODEL 8
REMARK VINA RESULT:      -5.2     33.728     41.427
REMARK  Name = Vorinostat.pdbqt.pdb
REMARK  6 active torsions:
REMARK  status: ('A' for Active; 'I' for Inactive)
REMARK    1  A    between atoms: C_1  and  C_2
REMARK    2  A    between atoms: C_3  and  C_4
REMARK    3  A    between atoms: C_5  and  C_8
REMARK    4  A    between atoms: N_7  and  O_10
REMARK    5  A    between atoms: C_12  and  C_15
REMARK    6  A    between atoms: N_14  and  C_17
REMARK                            x       y       z     vdW  Elec       q    Type
REMARK                         _______ _______ _______ _____ _____    ______ ____
ROOT
ATOM      1  C   UNL     1     143.652 122.064  96.777  0.00  0.00    +0.000 C 
ATOM      2  C   UNL     1     143.682 121.256  95.476  0.00  0.00    +0.000 C 
ENDROOT
BRANCH   2   5
ATOM      3  O   UNL     1     144.040 121.058  93.220  0.00  0.00    +0.000 OA
ATOM      4  N   UNL     1     143.351 119.172  94.405  0.00  0.00    +0.000 N 
ATOM      5  C   UNL     1     143.711 120.491  94.251  0.00  0.00    +0.000 C 
ATOM      6  H   UNL     1     143.105 118.863  95.337  0.00  0.00    +0.000 HD
BRANCH   4   7
ATOM      7  C   UNL     1     143.295 118.214  93.378  0.00  0.00    +0.000 A 
ATOM      8  C   UNL     1     142.036 117.818  92.926  0.00  0.00    +0.000 A 
ATOM      9  C   UNL     1     144.436 117.653  92.804  0.00  0.00    +0.000 A 
ATOM     10  C   UNL     1     141.917 116.871  91.911  0.00  0.00    +0.000 A 
ATOM     11  C   UNL     1     144.320 116.706  91.788  0.00  0.00    +0.000 A 
ATOM     12  C   UNL     1     143.060 116.316  91.341  0.00  0.00    +0.000 A 
ENDBRANCH   4   7
ENDBRANCH   2   5
BRANCH   1  13
ATOM     13  C   UNL     1     143.621 122.872  98.077  0.00  0.00    +0.000 C 
ATOM     14  C   UNL     1     143.589 123.679  99.379  0.00  0.00    +0.000 C 
BRANCH  14  15
ATOM     15  C   UNL     1     143.557 124.486 100.680  0.00  0.00    +0.000 C 
ATOM     16  C   UNL     1     143.523 125.294 101.981  0.00  0.00    +0.000 C 
BRANCH  16  19
ATOM     17  O   UNL     1     142.672 126.952 103.354  0.00  0.00    +0.000 OA
ATOM     18  N   UNL     1     144.410 125.700 104.150  0.00  0.00    +0.000 N 
ATOM     19  C   UNL     1     143.490 126.053 103.202  0.00  0.00    +0.000 C 
ATOM     20  H   UNL     1     145.066 124.935 104.059  0.00  0.00    +0.000 HD
BRANCH  18  21
ATOM     21  O   UNL     1     144.387 126.400 105.376  0.00  0.00    +0.000 OA
ATOM     22  H   UNL     1     143.632 127.017 105.258  0.00  0.00    +0.000 HD
ENDBRANCH  18  21
ENDBRANCH  16  19
ENDBRANCH  14  15
ENDBRANCH   1  13
TORSDOF 6
ENDMDL
MODEL 9
REMARK VINA RESULT:      -5.1      5.854     10.808
REMARK  Name = Vorinostat.pdbqt.pdb
REMARK  6 active torsions:
REMARK  status: ('A' for Active; 'I' for Inactive)
REMARK    1  A    between atoms: C_1  and  C_2
REMARK    2  A    between atoms: C_3  and  C_4
REMARK    3  A    between atoms: C_5  and  C_8
REMARK    4  A    between atoms: N_7  and  O_10
REMARK    5  A    between atoms: C_12  and  C_15
REMARK    6  A    between atoms: N_14  and  C_17
REMARK                            x       y       z     vdW  Elec       q    Type
REMARK                         _______ _______ _______ _____ _____    ______ ____
ROOT
ATOM      1  C   UNL     1     141.210 128.872 135.176  0.00  0.00    +0.000 C 
ATOM      2  C   UNL     1     141.784 127.575 135.755  0.00  0.00    +0.000 C 
ENDROOT
BRANCH   2   5
ATOM      3  O   UNL     1     142.889 126.398 137.383  0.00  0.00    +0.000 OA
ATOM      4  N   UNL     1     142.135 125.249 135.501  0.00  0.00    +0.000 N 
ATOM      5  C   UNL     1     142.327 126.353 136.300  0.00  0.00    +0.000 C 
ATOM      6  H   UNL     1     141.645 125.389 134.625  0.00  0.00    +0.000 HD
BRANCH   4   7
ATOM      7  C   UNL     1     142.563 123.942 135.793  0.00  0.00    +0.000 A 
ATOM      8  C   UNL     1     141.916 122.887 135.148  0.00  0.00    +0.000 A 
ATOM      9  C   UNL     1     143.594 123.667 136.689  0.00  0.00    +0.000 A 
ATOM     10  C   UNL     1     142.296 121.570 135.398  0.00  0.00    +0.000 A 
ATOM     11  C   UNL     1     143.977 122.350 136.941  0.00  0.00    +0.000 A 
ATOM     12  C   UNL     1     143.327 121.302 136.295  0.00  0.00    +0.000 A 
ENDBRANCH   4   7
ENDBRANCH   2   5
BRANCH   1  13
ATOM     13  C   UNL     1     140.637 130.169 134.600  0.00  0.00    +0.000 C 
ATOM     14  C   UNL     1     140.063 131.468 134.023  0.00  0.00    +0.000 C 
BRANCH  14  15
ATOM     15  C   UNL     1     139.489 132.764 133.446  0.00  0.00    +0.000 C 
ATOM     16  C   UNL     1     138.915 134.062 132.868  0.00  0.00    +0.000 C 
BRANCH  16  19
ATOM     17  O   UNL     1     138.664 135.632 131.187  0.00  0.00    +0.000 OA
ATOM     18  N   UNL     1     137.544 135.985 133.146  0.00  0.00    +0.000 N 
ATOM     19  C   UNL     1     138.377 135.280 132.324  0.00  0.00    +0.000 C 
ATOM     20  H   UNL     1     137.264 135.689 134.073  0.00  0.00    +0.000 HD
BRANCH  18  21
ATOM     21  O   UNL     1     136.969 137.169 132.636  0.00  0.00    +0.000 OA
ATOM     22  H   UNL     1     136.996 137.022 131.665  0.00  0.00    +0.000 HD
ENDBRANCH  18  21
ENDBRANCH  16  19
ENDBRANCH  14  15
ENDBRANCH   1  13
TORSDOF 6
ENDMDL
