MODEL 1
REMARK VINA RESULT:      -7.5      0.000      0.000
REMARK  Name = 101808842_CandidaspongiolideB.pdbqt.pdb
REMARK  12 active torsions:
REMARK  status: ('A' for Active; 'I' for Inactive)
REMARK    1  A    between atoms: C_6  and  C_42
REMARK    2  A    between atoms: C_7  and  O_28
REMARK    3  A    between atoms: C_10  and  O_30
REMARK    4  A    between atoms: C_13  and  O_32
REMARK    5  A    between atoms: C_19  and  O_34
REMARK    6  A    between atoms: C_20  and  O_38
REMARK    7  A    between atoms: C_21  and  O_36
REMARK    8  A    between atoms: O_38  and  C_40
REMARK    9  A    between atoms: C_42  and  C_44
REMARK   10  A    between atoms: C_42  and  O_52
REMARK   11  A    between atoms: C_45  and  C_47
REMARK   12  A    between atoms: C_47  and  C_49
REMARK                            x       y       z     vdW  Elec       q    Type
REMARK                         _______ _______ _______ _____ _____    ______ ____
ROOT
ATOM      1  O   UNL     1      -7.698  43.521  19.011  0.00  0.00    +0.000 OA
ATOM      2  O   UNL     1      -3.983  40.802  13.910  0.00  0.00    +0.000 OA
ATOM      3  O   UNL     1      -7.130  43.314  15.250  0.00  0.00    +0.000 OA
ATOM      4  O   UNL     1      -3.564  42.832  14.922  0.00  0.00    +0.000 OA
ATOM      5  O   UNL     1      -2.259  42.691  17.576  0.00  0.00    +0.000 OA
ATOM      6  C   UNL     1      -6.636  41.125  14.585  0.00  0.00    +0.000 C 
ATOM      7  C   UNL     1      -6.984  41.681  17.087  0.00  0.00    +0.000 C 
ATOM      8  C   UNL     1      -6.933  42.156  15.619  0.00  0.00    +0.000 C 
ATOM      9  C   UNL     1      -5.281  40.943  14.185  0.00  0.00    +0.000 C 
ATOM     10  C   UNL     1      -5.582  41.737  17.726  0.00  0.00    +0.000 C 
ATOM     11  C   UNL     1      -5.475  42.559  18.887  0.00  0.00    +0.000 C 
ATOM     12  C   UNL     1      -7.690  42.665  17.968  0.00  0.00    +0.000 C 
ATOM     13  C   UNL     1      -6.366  43.474  19.668  0.00  0.00    +0.000 C 
ATOM     14  C   UNL     1      -5.782  44.892  19.734  0.00  0.00    +0.000 C 
ATOM     15  C   UNL     1      -4.707  45.288  18.883  0.00  0.00    +0.000 C 
ATOM     16  C   UNL     1      -6.165  45.976  20.737  0.00  0.00    +0.000 C 
ATOM     17  C   UNL     1      -3.189  41.783  14.420  0.00  0.00    +0.000 C 
ATOM     18  C   UNL     1      -3.713  45.568  18.099  0.00  0.00    +0.000 C 
ATOM     19  C   UNL     1      -1.765  41.374  14.373  0.00  0.00    +0.000 C 
ATOM     20  C   UNL     1      -2.343  45.461  18.542  0.00  0.00    +0.000 C 
ATOM     21  C   UNL     1      -0.767  42.023  15.200  0.00  0.00    +0.000 C 
ATOM     22  C   UNL     1      -1.244  44.831  17.813  0.00  0.00    +0.000 C 
ATOM     23  C   UNL     1      -0.837  43.363  15.764  0.00  0.00    +0.000 C 
ATOM     24  C   UNL     1      -1.518  43.548  17.085  0.00  0.00    +0.000 C 
ATOM     25  C   UNL     1      -4.046  45.815  16.655  0.00  0.00    +0.000 C 
ATOM     26  C   UNL     1       0.199  45.171  18.181  0.00  0.00    +0.000 C 
ATOM     27  C   UNL     1      -0.446  44.546  14.886  0.00  0.00    +0.000 C 
ENDROOT
BRANCH   7  28
ATOM     28  O   UNL     1      -7.535  40.398  17.306  0.00  0.00    +0.000 OA
ATOM     29  H   UNL     1      -8.280  40.520  17.923  0.00  0.00    +0.000 HD
ENDBRANCH   7  28
BRANCH  10  30
ATOM     30  O   UNL     1      -4.513  41.036  17.231  0.00  0.00    +0.000 OA
ATOM     31  H   UNL     1      -4.341  40.230  17.761  0.00  0.00    +0.000 HD
ENDBRANCH  10  30
BRANCH  13  32
ATOM     32  O   UNL     1      -6.522  42.921  20.972  0.00  0.00    +0.000 OA
ATOM     33  H   UNL     1      -7.467  43.003  21.181  0.00  0.00    +0.000 HD
ENDBRANCH  13  32
BRANCH  19  34
ATOM     34  O   UNL     1      -1.343  40.271  13.655  0.00  0.00    +0.000 OA
ATOM     35  H   UNL     1      -1.050  39.529  14.225  0.00  0.00    +0.000 HD
ENDBRANCH  19  34
BRANCH  21  36
ATOM     36  O   UNL     1       0.494  41.453  15.139  0.00  0.00    +0.000 OA
ATOM     37  C   UNL     1       0.802  40.786  16.338  0.00  0.00    +0.000 C 
ENDBRANCH  21  36
BRANCH  20  38
ATOM     38  O   UNL     1      -2.008  46.288  19.641  0.00  0.00    +0.000 OA
BRANCH  38  40
ATOM     39  O   UNL     1      -2.008  44.424  21.040  0.00  0.00    +0.000 OA
ATOM     40  C   UNL     1      -2.142  45.612  20.812  0.00  0.00    +0.000 C 
ATOM     41  C   UNL     1      -2.583  46.434  21.965  0.00  0.00    +0.000 C 
ENDBRANCH  38  40
ENDBRANCH  20  38
BRANCH   6  42
ATOM     42  C   UNL     1      -7.742  40.514  13.882  0.00  0.00    +0.000 C 
BRANCH  42  44
ATOM     43  O   UNL     1     -10.231  40.358  13.470  0.00  0.00    +0.000 OA
ATOM     44  C   UNL     1      -9.073  41.169  13.784  0.00  0.00    +0.000 C 
ATOM     45  C   UNL     1     -10.020  40.683  14.782  0.00  0.00    +0.000 C 
ATOM     46  C   UNL     1      -9.187  42.533  13.025  0.00  0.00    +0.000 C 
BRANCH  45  47
ATOM     47  C   UNL     1     -11.010  41.494  15.422  0.00  0.00    +0.000 C 
ATOM     48  C   UNL     1     -12.320  41.779  14.733  0.00  0.00    +0.000 C 
BRANCH  47  49
ATOM     49  C   UNL     1     -10.996  41.663  16.830  0.00  0.00    +0.000 C 
ATOM     50  C   UNL     1     -11.044  41.838  18.015  0.00  0.00    +0.000 C 
ATOM     51  C   UNL     1     -11.203  42.133  19.509  0.00  0.00    +0.000 C 
ENDBRANCH  47  49
ENDBRANCH  45  47
ENDBRANCH  42  44
BRANCH  42  52
ATOM     52  O   UNL     1      -7.462  39.294  13.280  0.00  0.00    +0.000 OA
ATOM     53  H   UNL     1      -7.930  38.553  13.715  0.00  0.00    +0.000 HD
ENDBRANCH  42  52
ENDBRANCH   6  42
TORSDOF 12
ENDMDL
MODEL 2
REMARK VINA RESULT:      -7.4      2.852      6.758
REMARK  Name = 101808842_CandidaspongiolideB.pdbqt.pdb
REMARK  12 active torsions:
REMARK  status: ('A' for Active; 'I' for Inactive)
REMARK    1  A    between atoms: C_6  and  C_42
REMARK    2  A    between atoms: C_7  and  O_28
REMARK    3  A    between atoms: C_10  and  O_30
REMARK    4  A    between atoms: C_13  and  O_32
REMARK    5  A    between atoms: C_19  and  O_34
REMARK    6  A    between atoms: C_20  and  O_38
REMARK    7  A    between atoms: C_21  and  O_36
REMARK    8  A    between atoms: O_38  and  C_40
REMARK    9  A    between atoms: C_42  and  C_44
REMARK   10  A    between atoms: C_42  and  O_52
REMARK   11  A    between atoms: C_45  and  C_47
REMARK   12  A    between atoms: C_47  and  C_49
REMARK                            x       y       z     vdW  Elec       q    Type
REMARK                         _______ _______ _______ _____ _____    ______ ____
ROOT
ATOM      1  O   UNL     1      -4.539  42.134  12.519  0.00  0.00    +0.000 OA
ATOM      2  O   UNL     1     -11.161  41.285  14.142  0.00  0.00    +0.000 OA
ATOM      3  O   UNL     1      -7.321  39.666  13.337  0.00  0.00    +0.000 OA
ATOM      4  O   UNL     1      -9.433  41.455  15.660  0.00  0.00    +0.000 OA
ATOM      5  O   UNL     1      -8.414  44.195  16.133  0.00  0.00    +0.000 OA
ATOM      6  C   UNL     1      -9.338  40.294  12.328  0.00  0.00    +0.000 C 
ATOM      7  C   UNL     1      -7.238  41.784  12.084  0.00  0.00    +0.000 C 
ATOM      8  C   UNL     1      -7.900  40.510  12.652  0.00  0.00    +0.000 C 
ATOM      9  C   UNL     1     -10.315  40.764  13.251  0.00  0.00    +0.000 C 
ATOM     10  C   UNL     1      -7.424  42.970  13.051  0.00  0.00    +0.000 C 
ATOM     11  C   UNL     1      -6.217  43.576  13.512  0.00  0.00    +0.000 C 
ATOM     12  C   UNL     1      -5.743  41.692  12.102  0.00  0.00    +0.000 C 
ATOM     13  C   UNL     1      -4.747  43.339  13.362  0.00  0.00    +0.000 C 
ATOM     14  C   UNL     1      -4.079  43.125  14.728  0.00  0.00    +0.000 C 
ATOM     15  C   UNL     1      -4.856  42.878  15.899  0.00  0.00    +0.000 C 
ATOM     16  C   UNL     1      -2.589  43.252  15.030  0.00  0.00    +0.000 C 
ATOM     17  C   UNL     1     -10.578  41.690  15.304  0.00  0.00    +0.000 C 
ATOM     18  C   UNL     1      -5.627  42.687  16.924  0.00  0.00    +0.000 C 
ATOM     19  C   UNL     1     -11.503  42.554  16.074  0.00  0.00    +0.000 C 
ATOM     20  C   UNL     1      -6.026  43.775  17.787  0.00  0.00    +0.000 C 
ATOM     21  C   UNL     1     -11.017  43.437  17.116  0.00  0.00    +0.000 C 
ATOM     22  C   UNL     1      -7.379  44.044  18.271  0.00  0.00    +0.000 C 
ATOM     23  C   UNL     1      -9.787  43.292  17.881  0.00  0.00    +0.000 C 
ATOM     24  C   UNL     1      -8.523  43.864  17.318  0.00  0.00    +0.000 C 
ATOM     25  C   UNL     1      -6.244  41.324  17.055  0.00  0.00    +0.000 C 
ATOM     26  C   UNL     1      -7.578  44.933  19.497  0.00  0.00    +0.000 C 
ATOM     27  C   UNL     1      -9.782  42.356  19.085  0.00  0.00    +0.000 C 
ENDROOT
BRANCH   7  28
ATOM     28  O   UNL     1      -7.654  42.178  10.792  0.00  0.00    +0.000 OA
ATOM     29  H   UNL     1      -7.961  41.369  10.343  0.00  0.00    +0.000 HD
ENDBRANCH   7  28
BRANCH  10  30
ATOM     30  O   UNL     1      -8.658  43.429  13.433  0.00  0.00    +0.000 OA
ATOM     31  H   UNL     1      -8.678  44.409  13.468  0.00  0.00    +0.000 HD
ENDBRANCH  10  30
BRANCH  13  32
ATOM     32  O   UNL     1      -4.191  44.466  12.690  0.00  0.00    +0.000 OA
ATOM     33  H   UNL     1      -3.895  44.137  11.826  0.00  0.00    +0.000 HD
ENDBRANCH  13  32
BRANCH  19  34
ATOM     34  O   UNL     1     -12.841  42.671  15.747  0.00  0.00    +0.000 OA
ATOM     35  H   UNL     1     -13.343  43.233  16.373  0.00  0.00    +0.000 HD
ENDBRANCH  19  34
BRANCH  21  36
ATOM     36  O   UNL     1     -11.978  44.271  17.662  0.00  0.00    +0.000 OA
ATOM     37  C   UNL     1     -11.506  45.593  17.749  0.00  0.00    +0.000 C 
ENDBRANCH  21  36
BRANCH  20  38
ATOM     38  O   UNL     1      -4.958  44.449  18.426  0.00  0.00    +0.000 OA
BRANCH  38  40
ATOM     39  O   UNL     1      -4.704  42.968  20.207  0.00  0.00    +0.000 OA
ATOM     40  C   UNL     1      -4.290  43.612  19.261  0.00  0.00    +0.000 C 
ATOM     41  C   UNL     1      -2.828  43.523  19.026  0.00  0.00    +0.000 C 
ENDBRANCH  38  40
ENDBRANCH  20  38
BRANCH   6  42
ATOM     42  C   UNL     1      -9.673  39.434  11.215  0.00  0.00    +0.000 C 
BRANCH  42  44
ATOM     43  O   UNL     1     -11.399  38.573   9.580  0.00  0.00    +0.000 OA
ATOM     44  C   UNL     1     -10.875  39.667  10.371  0.00  0.00    +0.000 C 
ATOM     45  C   UNL     1     -12.016  38.849  10.769  0.00  0.00    +0.000 C 
ATOM     46  C   UNL     1     -10.963  40.986   9.534  0.00  0.00    +0.000 C 
BRANCH  45  47
ATOM     47  C   UNL     1     -13.380  39.279  10.713  0.00  0.00    +0.000 C 
ATOM     48  C   UNL     1     -14.141  39.224   9.412  0.00  0.00    +0.000 C 
BRANCH  47  49
ATOM     49  C   UNL     1     -14.164  39.328  11.893  0.00  0.00    +0.000 C 
ATOM     50  C   UNL     1     -14.846  39.431  12.874  0.00  0.00    +0.000 C 
ATOM     51  C   UNL     1     -15.730  39.684  14.098  0.00  0.00    +0.000 C 
ENDBRANCH  47  49
ENDBRANCH  45  47
ENDBRANCH  42  44
BRANCH  42  52
ATOM     52  O   UNL     1      -8.779  38.399  10.973  0.00  0.00    +0.000 OA
ATOM     53  H   UNL     1      -8.984  37.921  10.144  0.00  0.00    +0.000 HD
ENDBRANCH  42  52
ENDBRANCH   6  42
TORSDOF 12
ENDMDL
MODEL 3
REMARK VINA RESULT:      -7.4      1.746      5.053
REMARK  Name = 101808842_CandidaspongiolideB.pdbqt.pdb
REMARK  12 active torsions:
REMARK  status: ('A' for Active; 'I' for Inactive)
REMARK    1  A    between atoms: C_6  and  C_42
REMARK    2  A    between atoms: C_7  and  O_28
REMARK    3  A    between atoms: C_10  and  O_30
REMARK    4  A    between atoms: C_13  and  O_32
REMARK    5  A    between atoms: C_19  and  O_34
REMARK    6  A    between atoms: C_20  and  O_38
REMARK    7  A    between atoms: C_21  and  O_36
REMARK    8  A    between atoms: O_38  and  C_40
REMARK    9  A    between atoms: C_42  and  C_44
REMARK   10  A    between atoms: C_42  and  O_52
REMARK   11  A    between atoms: C_45  and  C_47
REMARK   12  A    between atoms: C_47  and  C_49
REMARK                            x       y       z     vdW  Elec       q    Type
REMARK                         _______ _______ _______ _____ _____    ______ ____
ROOT
ATOM      1  O   UNL     1      -1.729  40.273  14.558  0.00  0.00    +0.000 OA
ATOM      2  O   UNL     1      -7.325  44.077  15.754  0.00  0.00    +0.000 OA
ATOM      3  O   UNL     1      -5.230  40.397  16.052  0.00  0.00    +0.000 OA
ATOM      4  O   UNL     1      -5.569  43.799  17.224  0.00  0.00    +0.000 OA
ATOM      5  O   UNL     1      -3.138  45.379  16.623  0.00  0.00    +0.000 OA
ATOM      6  C   UNL     1      -6.692  41.615  14.688  0.00  0.00    +0.000 C 
ATOM      7  C   UNL     1      -4.195  41.396  14.053  0.00  0.00    +0.000 C 
ATOM      8  C   UNL     1      -5.347  41.073  15.029  0.00  0.00    +0.000 C 
ATOM      9  C   UNL     1      -7.073  42.871  15.240  0.00  0.00    +0.000 C 
ATOM     10  C   UNL     1      -3.526  42.734  14.425  0.00  0.00    +0.000 C 
ATOM     11  C   UNL     1      -2.130  42.659  14.709  0.00  0.00    +0.000 C 
ATOM     12  C   UNL     1      -3.025  40.481  14.248  0.00  0.00    +0.000 C 
ATOM     13  C   UNL     1      -1.088  41.590  14.809  0.00  0.00    +0.000 C 
ATOM     14  C   UNL     1      -0.435  41.580  16.199  0.00  0.00    +0.000 C 
ATOM     15  C   UNL     1      -1.010  42.300  17.288  0.00  0.00    +0.000 C 
ATOM     16  C   UNL     1       0.899  40.936  16.561  0.00  0.00    +0.000 C 
ATOM     17  C   UNL     1      -6.431  44.486  16.696  0.00  0.00    +0.000 C 
ATOM     18  C   UNL     1      -1.573  43.000  18.224  0.00  0.00    +0.000 C 
ATOM     19  C   UNL     1      -6.576  45.938  16.952  0.00  0.00    +0.000 C 
ATOM     20  C   UNL     1      -1.150  44.349  18.522  0.00  0.00    +0.000 C 
ATOM     21  C   UNL     1      -5.515  46.701  17.580  0.00  0.00    +0.000 C 
ATOM     22  C   UNL     1      -2.022  45.505  18.722  0.00  0.00    +0.000 C 
ATOM     23  C   UNL     1      -4.467  46.188  18.450  0.00  0.00    +0.000 C 
ATOM     24  C   UNL     1      -3.213  45.661  17.824  0.00  0.00    +0.000 C 
ATOM     25  C   UNL     1      -2.811  42.418  18.844  0.00  0.00    +0.000 C 
ATOM     26  C   UNL     1      -1.486  46.736  19.450  0.00  0.00    +0.000 C 
ATOM     27  C   UNL     1      -4.782  45.975  19.926  0.00  0.00    +0.000 C 
ENDROOT
BRANCH   7  28
ATOM     28  O   UNL     1      -4.530  41.419  12.681  0.00  0.00    +0.000 OA
ATOM     29  H   UNL     1      -3.691  41.338  12.191  0.00  0.00    +0.000 HD
ENDBRANCH   7  28
BRANCH  10  30
ATOM     30  O   UNL     1      -4.213  43.920  14.466  0.00  0.00    +0.000 OA
ATOM     31  H   UNL     1      -4.188  44.314  15.363  0.00  0.00    +0.000 HD
ENDBRANCH  10  30
BRANCH  13  32
ATOM     32  O   UNL     1      -0.122  41.826  13.789  0.00  0.00    +0.000 OA
ATOM     33  H   UNL     1       0.721  41.500  14.144  0.00  0.00    +0.000 HD
ENDBRANCH  13  32
BRANCH  19  34
ATOM     34  O   UNL     1      -7.655  46.661  16.481  0.00  0.00    +0.000 OA
ATOM     35  H   UNL     1      -7.523  47.630  16.536  0.00  0.00    +0.000 HD
ENDBRANCH  19  34
BRANCH  21  36
ATOM     36  O   UNL     1      -5.744  48.066  17.642  0.00  0.00    +0.000 OA
ATOM     37  C   UNL     1      -4.538  48.782  17.538  0.00  0.00    +0.000 C 
ENDBRANCH  21  36
BRANCH  20  38
ATOM     38  O   UNL     1       0.201  44.472  18.925  0.00  0.00    +0.000 OA
BRANCH  38  40
ATOM     39  O   UNL     1       0.755  45.722  17.038  0.00  0.00    +0.000 OA
ATOM     40  C   UNL     1       0.978  44.880  17.889  0.00  0.00    +0.000 C 
ATOM     41  C   UNL     1       2.256  44.143  17.732  0.00  0.00    +0.000 C 
ENDBRANCH  38  40
ENDBRANCH  20  38
BRANCH   6  42
ATOM     42  C   UNL     1      -7.629  40.754  14.000  0.00  0.00    +0.000 C 
BRANCH  42  44
ATOM     43  O   UNL     1     -10.010  39.989  13.626  0.00  0.00    +0.000 OA
ATOM     44  C   UNL     1      -9.083  41.056  13.943  0.00  0.00    +0.000 C 
ATOM     45  C   UNL     1      -9.856  40.326  14.943  0.00  0.00    +0.000 C 
ATOM     46  C   UNL     1      -9.553  42.365  13.225  0.00  0.00    +0.000 C 
BRANCH  45  47
ATOM     47  C   UNL     1     -11.002  40.848  15.622  0.00  0.00    +0.000 C 
ATOM     48  C   UNL     1     -12.390  40.508  15.141  0.00  0.00    +0.000 C 
BRANCH  47  49
ATOM     49  C   UNL     1     -10.898  41.293  16.964  0.00  0.00    +0.000 C 
ATOM     50  C   UNL     1     -10.791  41.730  18.075  0.00  0.00    +0.000 C 
ATOM     51  C   UNL     1     -10.604  42.388  19.445  0.00  0.00    +0.000 C 
ENDBRANCH  47  49
ENDBRANCH  45  47
ENDBRANCH  42  44
BRANCH  42  52
ATOM     52  O   UNL     1      -7.070  39.647  13.374  0.00  0.00    +0.000 OA
ATOM     53  H   UNL     1      -6.622  39.885  12.537  0.00  0.00    +0.000 HD
ENDBRANCH  42  52
ENDBRANCH   6  42
TORSDOF 12
ENDMDL
MODEL 4
REMARK VINA RESULT:      -7.3      1.577      2.842
REMARK  Name = 101808842_CandidaspongiolideB.pdbqt.pdb
REMARK  12 active torsions:
REMARK  status: ('A' for Active; 'I' for Inactive)
REMARK    1  A    between atoms: C_6  and  C_42
REMARK    2  A    between atoms: C_7  and  O_28
REMARK    3  A    between atoms: C_10  and  O_30
REMARK    4  A    between atoms: C_13  and  O_32
REMARK    5  A    between atoms: C_19  and  O_34
REMARK    6  A    between atoms: C_20  and  O_38
REMARK    7  A    between atoms: C_21  and  O_36
REMARK    8  A    between atoms: O_38  and  C_40
REMARK    9  A    between atoms: C_42  and  C_44
REMARK   10  A    between atoms: C_42  and  O_52
REMARK   11  A    between atoms: C_45  and  C_47
REMARK   12  A    between atoms: C_47  and  C_49
REMARK                            x       y       z     vdW  Elec       q    Type
REMARK                         _______ _______ _______ _____ _____    ______ ____
ROOT
ATOM      1  O   UNL     1      -8.307  43.043  19.404  0.00  0.00    +0.000 OA
ATOM      2  O   UNL     1      -4.775  41.144  13.824  0.00  0.00    +0.000 OA
ATOM      3  O   UNL     1      -8.047  43.178  15.607  0.00  0.00    +0.000 OA
ATOM      4  O   UNL     1      -4.491  43.130  14.964  0.00  0.00    +0.000 OA
ATOM      5  O   UNL     1      -2.955  42.944  17.488  0.00  0.00    +0.000 OA
ATOM      6  C   UNL     1      -7.379  41.114  14.727  0.00  0.00    +0.000 C 
ATOM      7  C   UNL     1      -7.568  41.441  17.285  0.00  0.00    +0.000 C 
ATOM      8  C   UNL     1      -7.695  42.025  15.862  0.00  0.00    +0.000 C 
ATOM      9  C   UNL     1      -6.053  41.117  14.209  0.00  0.00    +0.000 C 
ATOM     10  C   UNL     1      -6.131  41.610  17.816  0.00  0.00    +0.000 C 
ATOM     11  C   UNL     1      -6.013  42.352  19.030  0.00  0.00    +0.000 C 
ATOM     12  C   UNL     1      -8.297  42.271  18.297  0.00  0.00    +0.000 C 
ATOM     13  C   UNL     1      -6.926  43.099  19.949  0.00  0.00    +0.000 C 
ATOM     14  C   UNL     1      -6.494  44.566  20.087  0.00  0.00    +0.000 C 
ATOM     15  C   UNL     1      -5.546  45.143  19.191  0.00  0.00    +0.000 C 
ATOM     16  C   UNL     1      -6.903  45.523  21.203  0.00  0.00    +0.000 C 
ATOM     17  C   UNL     1      -4.050  42.169  14.350  0.00  0.00    +0.000 C 
ATOM     18  C   UNL     1      -4.659  45.591  18.357  0.00  0.00    +0.000 C 
ATOM     19  C   UNL     1      -2.600  41.930  14.159  0.00  0.00    +0.000 C 
ATOM     20  C   UNL     1      -3.252  45.608  18.683  0.00  0.00    +0.000 C 
ATOM     21  C   UNL     1      -1.610  42.626  14.957  0.00  0.00    +0.000 C 
ATOM     22  C   UNL     1      -2.158  45.162  17.821  0.00  0.00    +0.000 C 
ATOM     23  C   UNL     1      -1.775  43.904  15.633  0.00  0.00    +0.000 C 
ATOM     24  C   UNL     1      -2.355  43.913  17.013  0.00  0.00    +0.000 C 
ATOM     25  C   UNL     1      -5.140  45.903  16.969  0.00  0.00    +0.000 C 
ATOM     26  C   UNL     1      -0.734  45.636  18.103  0.00  0.00    +0.000 C 
ATOM     27  C   UNL     1      -1.590  45.185  14.827  0.00  0.00    +0.000 C 
ENDROOT
BRANCH   7  28
ATOM     28  O   UNL     1      -7.958  40.091  17.441  0.00  0.00    +0.000 OA
ATOM     29  H   UNL     1      -7.244  39.553  17.052  0.00  0.00    +0.000 HD
ENDBRANCH   7  28
BRANCH  10  30
ATOM     30  O   UNL     1      -5.040  41.073  17.184  0.00  0.00    +0.000 OA
ATOM     31  H   UNL     1      -4.730  40.261  17.637  0.00  0.00    +0.000 HD
ENDBRANCH  10  30
BRANCH  13  32
ATOM     32  O   UNL     1      -6.909  42.438  21.212  0.00  0.00    +0.000 OA
ATOM     33  H   UNL     1      -7.736  42.692  21.653  0.00  0.00    +0.000 HD
ENDBRANCH  13  32
BRANCH  19  34
ATOM     34  O   UNL     1      -2.125  40.937  13.322  0.00  0.00    +0.000 OA
ATOM     35  H   UNL     1      -2.540  40.950  12.435  0.00  0.00    +0.000 HD
ENDBRANCH  19  34
BRANCH  21  36
ATOM     36  O   UNL     1      -0.305  42.209  14.752  0.00  0.00    +0.000 OA
ATOM     37  C   UNL     1       0.186  41.524  15.877  0.00  0.00    +0.000 C 
ENDBRANCH  21  36
BRANCH  20  38
ATOM     38  O   UNL     1      -2.914  46.385  19.817  0.00  0.00    +0.000 OA
BRANCH  38  40
ATOM     39  O   UNL     1      -2.879  48.448  18.733  0.00  0.00    +0.000 OA
ATOM     40  C   UNL     1      -3.231  47.691  19.619  0.00  0.00    +0.000 C 
ATOM     41  C   UNL     1      -4.076  48.300  20.675  0.00  0.00    +0.000 C 
ENDBRANCH  38  40
ENDBRANCH  20  38
BRANCH   6  42
ATOM     42  C   UNL     1      -8.470  40.434  14.063  0.00  0.00    +0.000 C 
BRANCH  42  44
ATOM     43  O   UNL     1     -10.070  40.835  12.147  0.00  0.00    +0.000 OA
ATOM     44  C   UNL     1      -8.720  40.581  12.605  0.00  0.00    +0.000 C 
ATOM     45  C   UNL     1      -9.220  41.903  12.244  0.00  0.00    +0.000 C 
ATOM     46  C   UNL     1      -8.030  39.580  11.619  0.00  0.00    +0.000 C 
BRANCH  45  47
ATOM     47  C   UNL     1      -8.893  42.590  11.031  0.00  0.00    +0.000 C 
ATOM     48  C   UNL     1      -9.972  42.925  10.033  0.00  0.00    +0.000 C 
BRANCH  47  49
ATOM     49  C   UNL     1      -7.699  43.350  10.939  0.00  0.00    +0.000 C 
ATOM     50  C   UNL     1      -6.658  43.941  10.890  0.00  0.00    +0.000 C 
ATOM     51  C   UNL     1      -5.279  44.607  10.899  0.00  0.00    +0.000 C 
ENDBRANCH  47  49
ENDBRANCH  45  47
ENDBRANCH  42  44
BRANCH  42  52
ATOM     52  O   UNL     1      -9.243  39.615  14.876  0.00  0.00    +0.000 OA
ATOM     53  H   UNL     1      -9.870  40.127  15.425  0.00  0.00    +0.000 HD
ENDBRANCH  42  52
ENDBRANCH   6  42
TORSDOF 12
ENDMDL
MODEL 5
REMARK VINA RESULT:      -7.3      2.003      3.977
REMARK  Name = 101808842_CandidaspongiolideB.pdbqt.pdb
REMARK  12 active torsions:
REMARK  status: ('A' for Active; 'I' for Inactive)
REMARK    1  A    between atoms: C_6  and  C_42
REMARK    2  A    between atoms: C_7  and  O_28
REMARK    3  A    between atoms: C_10  and  O_30
REMARK    4  A    between atoms: C_13  and  O_32
REMARK    5  A    between atoms: C_19  and  O_34
REMARK    6  A    between atoms: C_20  and  O_38
REMARK    7  A    between atoms: C_21  and  O_36
REMARK    8  A    between atoms: O_38  and  C_40
REMARK    9  A    between atoms: C_42  and  C_44
REMARK   10  A    between atoms: C_42  and  O_52
REMARK   11  A    between atoms: C_45  and  C_47
REMARK   12  A    between atoms: C_47  and  C_49
REMARK                            x       y       z     vdW  Elec       q    Type
REMARK                         _______ _______ _______ _____ _____    ______ ____
ROOT
ATOM      1  O   UNL     1      -3.874  44.728  21.546  0.00  0.00    +0.000 OA
ATOM      2  O   UNL     1      -5.333  40.997  15.964  0.00  0.00    +0.000 OA
ATOM      3  O   UNL     1      -5.536  44.647  18.121  0.00  0.00    +0.000 OA
ATOM      4  O   UNL     1      -3.492  42.367  16.202  0.00  0.00    +0.000 OA
ATOM      5  O   UNL     1      -1.289  41.269  17.848  0.00  0.00    +0.000 OA
ATOM      6  C   UNL     1      -6.648  42.618  17.764  0.00  0.00    +0.000 C 
ATOM      7  C   UNL     1      -5.311  43.006  19.943  0.00  0.00    +0.000 C 
ATOM      8  C   UNL     1      -5.795  43.532  18.575  0.00  0.00    +0.000 C 
ATOM      9  C   UNL     1      -6.014  41.782  16.801  0.00  0.00    +0.000 C 
ATOM     10  C   UNL     1      -3.985  42.235  19.791  0.00  0.00    +0.000 C 
ATOM     11  C   UNL     1      -2.893  42.744  20.555  0.00  0.00    +0.000 C 
ATOM     12  C   UNL     1      -4.842  44.116  20.834  0.00  0.00    +0.000 C 
ATOM     13  C   UNL     1      -2.639  43.905  21.465  0.00  0.00    +0.000 C 
ATOM     14  C   UNL     1      -1.484  44.773  20.946  0.00  0.00    +0.000 C 
ATOM     15  C   UNL     1      -0.984  44.619  19.619  0.00  0.00    +0.000 C 
ATOM     16  C   UNL     1      -0.680  45.781  21.762  0.00  0.00    +0.000 C 
ATOM     17  C   UNL     1      -4.024  41.339  15.809  0.00  0.00    +0.000 C 
ATOM     18  C   UNL     1      -0.564  44.404  18.411  0.00  0.00    +0.000 C 
ATOM     19  C   UNL     1      -3.274  40.239  15.159  0.00  0.00    +0.000 C 
ATOM     20  C   UNL     1       0.557  43.533  18.141  0.00  0.00    +0.000 C 
ATOM     21  C   UNL     1      -1.829  40.160  15.241  0.00  0.00    +0.000 C 
ATOM     22  C   UNL     1       0.618  42.493  17.116  0.00  0.00    +0.000 C 
ATOM     23  C   UNL     1      -0.907  41.261  15.480  0.00  0.00    +0.000 C 
ATOM     24  C   UNL     1      -0.598  41.641  16.894  0.00  0.00    +0.000 C 
ATOM     25  C   UNL     1      -1.416  44.941  17.297  0.00  0.00    +0.000 C 
ATOM     26  C   UNL     1       1.975  41.965  16.655  0.00  0.00    +0.000 C 
ATOM     27  C   UNL     1      -0.493  42.135  14.301  0.00  0.00    +0.000 C 
ENDROOT
BRANCH   7  28
ATOM     28  O   UNL     1      -6.226  42.204  20.661  0.00  0.00    +0.000 OA
ATOM     29  H   UNL     1      -6.476  42.713  21.454  0.00  0.00    +0.000 HD
ENDBRANCH   7  28
BRANCH  10  30
ATOM     30  O   UNL     1      -3.859  41.127  18.993  0.00  0.00    +0.000 OA
ATOM     31  H   UNL     1      -4.353  41.237  18.153  0.00  0.00    +0.000 HD
ENDBRANCH  10  30
BRANCH  13  32
ATOM     32  O   UNL     1      -2.351  43.388  22.761  0.00  0.00    +0.000 OA
ATOM     33  H   UNL     1      -1.509  42.914  22.674  0.00  0.00    +0.000 HD
ENDBRANCH  13  32
BRANCH  19  34
ATOM     34  O   UNL     1      -3.914  39.164  14.570  0.00  0.00    +0.000 OA
ATOM     35  H   UNL     1      -4.102  39.301  13.618  0.00  0.00    +0.000 HD
ENDBRANCH  19  34
BRANCH  21  36
ATOM     36  O   UNL     1      -1.280  39.013  14.692  0.00  0.00    +0.000 OA
ATOM     37  C   UNL     1      -0.888  38.113  15.698  0.00  0.00    +0.000 C 
ENDBRANCH  21  36
BRANCH  20  38
ATOM     38  O   UNL     1       1.776  43.930  18.741  0.00  0.00    +0.000 OA
BRANCH  38  40
ATOM     39  O   UNL     1       2.386  45.480  17.112  0.00  0.00    +0.000 OA
ATOM     40  C   UNL     1       2.180  45.134  18.261  0.00  0.00    +0.000 C 
ATOM     41  C   UNL     1       2.479  46.156  19.294  0.00  0.00    +0.000 C 
ENDBRANCH  38  40
ENDBRANCH  20  38
BRANCH   6  42
ATOM     42  C   UNL     1      -8.084  42.773  17.831  0.00  0.00    +0.000 C 
BRANCH  42  44
ATOM     43  O   UNL     1     -10.112  42.945  16.331  0.00  0.00    +0.000 OA
ATOM     44  C   UNL     1      -8.991  42.169  16.819  0.00  0.00    +0.000 C 
ATOM     45  C   UNL     1      -8.989  42.891  15.551  0.00  0.00    +0.000 C 
ATOM     46  C   UNL     1      -9.445  40.684  17.007  0.00  0.00    +0.000 C 
BRANCH  45  47
ATOM     47  C   UNL     1      -9.115  42.272  14.266  0.00  0.00    +0.000 C 
ATOM     48  C   UNL     1     -10.429  42.315  13.528  0.00  0.00    +0.000 C 
BRANCH  47  49
ATOM     49  C   UNL     1      -7.964  42.021  13.477  0.00  0.00    +0.000 C 
ATOM     50  C   UNL     1      -6.954  41.810  12.868  0.00  0.00    +0.000 C 
ATOM     51  C   UNL     1      -5.601  41.562  12.194  0.00  0.00    +0.000 C 
ENDBRANCH  47  49
ENDBRANCH  45  47
ENDBRANCH  42  44
BRANCH  42  52
ATOM     52  O   UNL     1      -8.554  43.497  18.919  0.00  0.00    +0.000 OA
ATOM     53  H   UNL     1      -8.331  43.068  19.770  0.00  0.00    +0.000 HD
ENDBRANCH  42  52
ENDBRANCH   6  42
TORSDOF 12
ENDMDL
MODEL 6
REMARK VINA RESULT:      -7.2      2.916      6.631
REMARK  Name = 101808842_CandidaspongiolideB.pdbqt.pdb
REMARK  12 active torsions:
REMARK  status: ('A' for Active; 'I' for Inactive)
REMARK    1  A    between atoms: C_6  and  C_42
REMARK    2  A    between atoms: C_7  and  O_28
REMARK    3  A    between atoms: C_10  and  O_30
REMARK    4  A    between atoms: C_13  and  O_32
REMARK    5  A    between atoms: C_19  and  O_34
REMARK    6  A    between atoms: C_20  and  O_38
REMARK    7  A    between atoms: C_21  and  O_36
REMARK    8  A    between atoms: O_38  and  C_40
REMARK    9  A    between atoms: C_42  and  C_44
REMARK   10  A    between atoms: C_42  and  O_52
REMARK   11  A    between atoms: C_45  and  C_47
REMARK   12  A    between atoms: C_47  and  C_49
REMARK                            x       y       z     vdW  Elec       q    Type
REMARK                         _______ _______ _______ _____ _____    ______ ____
ROOT
ATOM      1  O   UNL     1       0.641  46.987  20.807  0.00  0.00    +0.000 OA
ATOM      2  O   UNL     1      -3.865  42.539  18.136  0.00  0.00    +0.000 OA
ATOM      3  O   UNL     1      -2.345  46.486  18.497  0.00  0.00    +0.000 OA
ATOM      4  O   UNL     1      -1.874  43.165  17.153  0.00  0.00    +0.000 OA
ATOM      5  O   UNL     1       0.557  41.898  18.273  0.00  0.00    +0.000 OA
ATOM      6  C   UNL     1      -3.886  44.982  19.414  0.00  0.00    +0.000 C 
ATOM      7  C   UNL     1      -1.674  45.498  20.650  0.00  0.00    +0.000 C 
ATOM      8  C   UNL     1      -2.597  45.728  19.434  0.00  0.00    +0.000 C 
ATOM      9  C   UNL     1      -3.929  43.728  18.740  0.00  0.00    +0.000 C 
ATOM     10  C   UNL     1      -0.740  44.296  20.404  0.00  0.00    +0.000 C 
ATOM     11  C   UNL     1       0.656  44.585  20.475  0.00  0.00    +0.000 C 
ATOM     12  C   UNL     1      -0.645  46.579  20.782  0.00  0.00    +0.000 C 
ATOM     13  C   UNL     1       1.515  45.793  20.673  0.00  0.00    +0.000 C 
ATOM     14  C   UNL     1       2.470  45.994  19.487  0.00  0.00    +0.000 C 
ATOM     15  C   UNL     1       2.287  45.282  18.265  0.00  0.00    +0.000 C 
ATOM     16  C   UNL     1       3.739  46.842  19.488  0.00  0.00    +0.000 C 
ATOM     17  C   UNL     1      -2.722  42.329  17.428  0.00  0.00    +0.000 C 
ATOM     18  C   UNL     1       2.075  44.581  17.194  0.00  0.00    +0.000 C 
ATOM     19  C   UNL     1      -2.578  40.893  17.091  0.00  0.00    +0.000 C 
ATOM     20  C   UNL     1       2.757  43.329  16.960  0.00  0.00    +0.000 C 
ATOM     21  C   UNL     1      -1.296  40.332  16.714  0.00  0.00    +0.000 C 
ATOM     22  C   UNL     1       2.145  42.081  16.509  0.00  0.00    +0.000 C 
ATOM     23  C   UNL     1      -0.162  41.047  16.148  0.00  0.00    +0.000 C 
ATOM     24  C   UNL     1       0.812  41.696  17.082  0.00  0.00    +0.000 C 
ATOM     25  C   UNL     1       0.946  45.029  16.311  0.00  0.00    +0.000 C 
ATOM     26  C   UNL     1       3.019  40.992  15.891  0.00  0.00    +0.000 C 
ATOM     27  C   UNL     1      -0.146  41.321  14.648  0.00  0.00    +0.000 C 
ENDROOT
BRANCH   7  28
ATOM     28  O   UNL     1      -2.318  45.330  21.896  0.00  0.00    +0.000 OA
ATOM     29  H   UNL     1      -3.250  45.581  21.761  0.00  0.00    +0.000 HD
ENDBRANCH   7  28
BRANCH  10  30
ATOM     30  O   UNL     1      -1.209  43.033  20.153  0.00  0.00    +0.000 OA
ATOM     31  H   UNL     1      -1.784  43.019  19.360  0.00  0.00    +0.000 HD
ENDBRANCH  10  30
BRANCH  13  32
ATOM     32  O   UNL     1       2.237  45.620  21.890  0.00  0.00    +0.000 OA
ATOM     33  H   UNL     1       3.175  45.615  21.641  0.00  0.00    +0.000 HD
ENDBRANCH  13  32
BRANCH  19  34
ATOM     34  O   UNL     1      -3.616  39.994  17.255  0.00  0.00    +0.000 OA
ATOM     35  H   UNL     1      -4.485  40.355  16.985  0.00  0.00    +0.000 HD
ENDBRANCH  19  34
BRANCH  21  36
ATOM     36  O   UNL     1      -1.293  38.956  16.548  0.00  0.00    +0.000 OA
ATOM     37  C   UNL     1      -1.479  38.614  15.197  0.00  0.00    +0.000 C 
ENDBRANCH  21  36
BRANCH  20  38
ATOM     38  O   UNL     1       4.168  43.424  16.896  0.00  0.00    +0.000 OA
BRANCH  38  40
ATOM     39  O   UNL     1       4.635  43.822  14.648  0.00  0.00    +0.000 OA
ATOM     40  C   UNL     1       4.554  44.153  15.817  0.00  0.00    +0.000 C 
ATOM     41  C   UNL     1       5.009  45.532  16.118  0.00  0.00    +0.000 C 
ENDBRANCH  38  40
ENDBRANCH  20  38
BRANCH   6  42
ATOM     42  C   UNL     1      -5.079  45.652  19.882  0.00  0.00    +0.000 C 
BRANCH  42  44
ATOM     43  O   UNL     1      -7.427  45.547  20.815  0.00  0.00    +0.000 OA
ATOM     44  C   UNL     1      -6.112  44.953  20.690  0.00  0.00    +0.000 C 
ATOM     45  C   UNL     1      -7.268  44.540  19.902  0.00  0.00    +0.000 C 
ATOM     46  C   UNL     1      -5.700  44.339  22.070  0.00  0.00    +0.000 C 
BRANCH  45  47
ATOM     47  C   UNL     1      -8.011  43.336  20.121  0.00  0.00    +0.000 C 
ATOM     48  C   UNL     1      -9.078  43.286  21.185  0.00  0.00    +0.000 C 
BRANCH  47  49
ATOM     49  C   UNL     1      -8.098  42.354  19.102  0.00  0.00    +0.000 C 
ATOM     50  C   UNL     1      -8.229  41.502  18.270  0.00  0.00    +0.000 C 
ATOM     51  C   UNL     1      -8.490  40.369  17.273  0.00  0.00    +0.000 C 
ENDBRANCH  47  49
ENDBRANCH  45  47
ENDBRANCH  42  44
BRANCH  42  52
ATOM     52  O   UNL     1      -5.174  46.998  19.550  0.00  0.00    +0.000 OA
ATOM     53  H   UNL     1      -5.557  47.530  20.276  0.00  0.00    +0.000 HD
ENDBRANCH  42  52
ENDBRANCH   6  42
TORSDOF 12
ENDMDL
MODEL 7
REMARK VINA RESULT:      -7.1      3.318      8.890
REMARK  Name = 101808842_CandidaspongiolideB.pdbqt.pdb
REMARK  12 active torsions:
REMARK  status: ('A' for Active; 'I' for Inactive)
REMARK    1  A    between atoms: C_6  and  C_42
REMARK    2  A    between atoms: C_7  and  O_28
REMARK    3  A    between atoms: C_10  and  O_30
REMARK    4  A    between atoms: C_13  and  O_32
REMARK    5  A    between atoms: C_19  and  O_34
REMARK    6  A    between atoms: C_20  and  O_38
REMARK    7  A    between atoms: C_21  and  O_36
REMARK    8  A    between atoms: O_38  and  C_40
REMARK    9  A    between atoms: C_42  and  C_44
REMARK   10  A    between atoms: C_42  and  O_52
REMARK   11  A    between atoms: C_45  and  C_47
REMARK   12  A    between atoms: C_47  and  C_49
REMARK                            x       y       z     vdW  Elec       q    Type
REMARK                         _______ _______ _______ _____ _____    ______ ____
ROOT
ATOM      1  O   UNL     1      -8.580  43.910  17.665  0.00  0.00    +0.000 OA
ATOM      2  O   UNL     1      -6.250  41.126  11.832  0.00  0.00    +0.000 OA
ATOM      3  O   UNL     1      -6.646  41.051  16.057  0.00  0.00    +0.000 OA
ATOM      4  O   UNL     1      -8.250  40.594  12.851  0.00  0.00    +0.000 OA
ATOM      5  O   UNL     1     -10.439  42.551  12.467  0.00  0.00    +0.000 OA
ATOM      6  C   UNL     1      -5.282  41.821  14.317  0.00  0.00    +0.000 C 
ATOM      7  C   UNL     1      -6.828  43.461  15.585  0.00  0.00    +0.000 C 
ATOM      8  C   UNL     1      -6.298  42.024  15.388  0.00  0.00    +0.000 C 
ATOM      9  C   UNL     1      -5.735  41.433  13.024  0.00  0.00    +0.000 C 
ATOM     10  C   UNL     1      -8.040  43.723  14.668  0.00  0.00    +0.000 C 
ATOM     11  C   UNL     1      -9.242  44.098  15.340  0.00  0.00    +0.000 C 
ATOM     12  C   UNL     1      -7.493  43.633  16.917  0.00  0.00    +0.000 C 
ATOM     13  C   UNL     1      -9.701  44.261  16.754  0.00  0.00    +0.000 C 
ATOM     14  C   UNL     1     -10.902  43.353  17.056  0.00  0.00    +0.000 C 
ATOM     15  C   UNL     1     -11.271  42.300  16.167  0.00  0.00    +0.000 C 
ATOM     16  C   UNL     1     -11.881  43.513  18.215  0.00  0.00    +0.000 C 
ATOM     17  C   UNL     1      -7.573  40.802  11.856  0.00  0.00    +0.000 C 
ATOM     18  C   UNL     1     -11.564  41.380  15.301  0.00  0.00    +0.000 C 
ATOM     19  C   UNL     1      -8.135  40.819  10.485  0.00  0.00    +0.000 C 
ATOM     20  C   UNL     1     -12.551  41.597  14.269  0.00  0.00    +0.000 C 
ATOM     21  C   UNL     1      -9.563  40.917  10.258  0.00  0.00    +0.000 C 
ATOM     22  C   UNL     1     -12.407  41.268  12.851  0.00  0.00    +0.000 C 
ATOM     23  C   UNL     1     -10.623  40.535  11.180  0.00  0.00    +0.000 C 
ATOM     24  C   UNL     1     -11.088  41.537  12.190  0.00  0.00    +0.000 C 
ATOM     25  C   UNL     1     -10.691  40.158  15.298  0.00  0.00    +0.000 C 
ATOM     26  C   UNL     1     -13.653  41.140  11.977  0.00  0.00    +0.000 C 
ATOM     27  C   UNL     1     -11.037  39.069  11.248  0.00  0.00    +0.000 C 
ENDROOT
BRANCH   7  28
ATOM     28  O   UNL     1      -5.888  44.501  15.409  0.00  0.00    +0.000 OA
ATOM     29  H   UNL     1      -5.968  45.079  16.189  0.00  0.00    +0.000 HD
ENDBRANCH   7  28
BRANCH  10  30
ATOM     30  O   UNL     1      -7.971  43.623  13.303  0.00  0.00    +0.000 OA
ATOM     31  H   UNL     1      -8.390  44.396  12.869  0.00  0.00    +0.000 HD
ENDBRANCH  10  30
BRANCH  13  32
ATOM     32  O   UNL     1     -10.032  45.633  16.950  0.00  0.00    +0.000 OA
ATOM     33  H   UNL     1     -10.214  45.988  16.065  0.00  0.00    +0.000 HD
ENDBRANCH  13  32
BRANCH  19  34
ATOM     34  O   UNL     1      -7.330  40.887   9.363  0.00  0.00    +0.000 OA
ATOM     35  H   UNL     1      -7.018  40.009   9.059  0.00  0.00    +0.000 HD
ENDBRANCH  19  34
BRANCH  21  36
ATOM     36  O   UNL     1      -9.930  41.045   8.928  0.00  0.00    +0.000 OA
ATOM     37  C   UNL     1     -10.797  42.138   8.750  0.00  0.00    +0.000 C 
ENDBRANCH  21  36
BRANCH  20  38
ATOM     38  O   UNL     1     -13.852  41.888  14.742  0.00  0.00    +0.000 OA
BRANCH  38  40
ATOM     39  O   UNL     1     -13.550  44.112  14.115  0.00  0.00    +0.000 OA
ATOM     40  C   UNL     1     -14.064  43.230  14.778  0.00  0.00    +0.000 C 
ATOM     41  C   UNL     1     -15.007  43.691  15.825  0.00  0.00    +0.000 C 
ENDBRANCH  38  40
ENDBRANCH  20  38
BRANCH   6  42
ATOM     42  C   UNL     1      -3.884  41.809  14.685  0.00  0.00    +0.000 C 
BRANCH  42  44
ATOM     43  O   UNL     1      -3.544  39.323  14.997  0.00  0.00    +0.000 OA
ATOM     44  C   UNL     1      -3.274  40.678  15.432  0.00  0.00    +0.000 C 
ATOM     45  C   UNL     1      -2.356  39.888  14.618  0.00  0.00    +0.000 C 
ATOM     46  C   UNL     1      -3.279  40.718  16.997  0.00  0.00    +0.000 C 
BRANCH  45  47
ATOM     47  C   UNL     1      -1.157  39.278  15.107  0.00  0.00    +0.000 C 
ATOM     48  C   UNL     1       0.017  40.132  15.513  0.00  0.00    +0.000 C 
BRANCH  47  49
ATOM     49  C   UNL     1      -1.188  37.965  15.640  0.00  0.00    +0.000 C 
ATOM     50  C   UNL     1      -1.176  36.877  16.142  0.00  0.00    +0.000 C 
ATOM     51  C   UNL     1      -1.077  35.529  16.864  0.00  0.00    +0.000 C 
ENDBRANCH  47  49
ENDBRANCH  45  47
ENDBRANCH  42  44
BRANCH  42  52
ATOM     52  O   UNL     1      -3.149  42.911  14.265  0.00  0.00    +0.000 OA
ATOM     53  H   UNL     1      -3.723  43.667  14.027  0.00  0.00    +0.000 HD
ENDBRANCH  42  52
ENDBRANCH   6  42
TORSDOF 12
ENDMDL
MODEL 8
REMARK VINA RESULT:      -7.1      2.126      3.715
REMARK  Name = 101808842_CandidaspongiolideB.pdbqt.pdb
REMARK  12 active torsions:
REMARK  status: ('A' for Active; 'I' for Inactive)
REMARK    1  A    between atoms: C_6  and  C_42
REMARK    2  A    between atoms: C_7  and  O_28
REMARK    3  A    between atoms: C_10  and  O_30
REMARK    4  A    between atoms: C_13  and  O_32
REMARK    5  A    between atoms: C_19  and  O_34
REMARK    6  A    between atoms: C_20  and  O_38
REMARK    7  A    between atoms: C_21  and  O_36
REMARK    8  A    between atoms: O_38  and  C_40
REMARK    9  A    between atoms: C_42  and  C_44
REMARK   10  A    between atoms: C_42  and  O_52
REMARK   11  A    between atoms: C_45  and  C_47
REMARK   12  A    between atoms: C_47  and  C_49
REMARK                            x       y       z     vdW  Elec       q    Type
REMARK                         _______ _______ _______ _____ _____    ______ ____
ROOT
ATOM      1  O   UNL     1      -4.197  45.312  20.919  0.00  0.00    +0.000 OA
ATOM      2  O   UNL     1      -5.313  41.119  15.590  0.00  0.00    +0.000 OA
ATOM      3  O   UNL     1      -5.463  44.983  17.342  0.00  0.00    +0.000 OA
ATOM      4  O   UNL     1      -3.406  42.377  15.914  0.00  0.00    +0.000 OA
ATOM      5  O   UNL     1      -1.498  41.312  17.912  0.00  0.00    +0.000 OA
ATOM      6  C   UNL     1      -6.688  43.008  17.053  0.00  0.00    +0.000 C 
ATOM      7  C   UNL     1      -5.577  43.533  19.329  0.00  0.00    +0.000 C 
ATOM      8  C   UNL     1      -5.861  43.942  17.868  0.00  0.00    +0.000 C 
ATOM      9  C   UNL     1      -6.018  42.034  16.259  0.00  0.00    +0.000 C 
ATOM     10  C   UNL     1      -4.309  42.661  19.413  0.00  0.00    +0.000 C 
ATOM     11  C   UNL     1      -3.273  43.172  20.251  0.00  0.00    +0.000 C 
ATOM     12  C   UNL     1      -5.125  44.696  20.157  0.00  0.00    +0.000 C 
ATOM     13  C   UNL     1      -3.031  44.402  21.066  0.00  0.00    +0.000 C 
ATOM     14  C   UNL     1      -1.759  45.130  20.608  0.00  0.00    +0.000 C 
ATOM     15  C   UNL     1      -1.126  44.802  19.372  0.00  0.00    +0.000 C 
ATOM     16  C   UNL     1      -0.973  46.160  21.413  0.00  0.00    +0.000 C 
ATOM     17  C   UNL     1      -3.972  41.353  15.561  0.00  0.00    +0.000 C 
ATOM     18  C   UNL     1      -0.591  44.432  18.250  0.00  0.00    +0.000 C 
ATOM     19  C   UNL     1      -3.244  40.141  15.116  0.00  0.00    +0.000 C 
ATOM     20  C   UNL     1       0.479  43.462  18.203  0.00  0.00    +0.000 C 
ATOM     21  C   UNL     1      -1.828  39.973  15.379  0.00  0.00    +0.000 C 
ATOM     22  C   UNL     1       0.571  42.318  17.299  0.00  0.00    +0.000 C 
ATOM     23  C   UNL     1      -0.853  41.027  15.619  0.00  0.00    +0.000 C 
ATOM     24  C   UNL     1      -0.676  41.533  17.016  0.00  0.00    +0.000 C 
ATOM     25  C   UNL     1      -1.267  44.905  16.995  0.00  0.00    +0.000 C 
ATOM     26  C   UNL     1       1.925  41.653  17.058  0.00  0.00    +0.000 C 
ATOM     27  C   UNL     1      -0.241  41.741  14.419  0.00  0.00    +0.000 C 
ENDROOT
BRANCH   7  28
ATOM     28  O   UNL     1      -6.630  42.876  20.006  0.00  0.00    +0.000 OA
ATOM     29  H   UNL     1      -6.230  42.111  20.460  0.00  0.00    +0.000 HD
ENDBRANCH   7  28
BRANCH  10  30
ATOM     30  O   UNL     1      -4.184  41.469  18.748  0.00  0.00    +0.000 OA
ATOM     31  H   UNL     1      -3.443  40.937  19.108  0.00  0.00    +0.000 HD
ENDBRANCH  10  30
BRANCH  13  32
ATOM     32  O   UNL     1      -2.933  44.008  22.432  0.00  0.00    +0.000 OA
ATOM     33  H   UNL     1      -2.722  44.817  22.925  0.00  0.00    +0.000 HD
ENDBRANCH  13  32
BRANCH  19  34
ATOM     34  O   UNL     1      -3.897  39.056  14.562  0.00  0.00    +0.000 OA
ATOM     35  H   UNL     1      -3.375  38.229  14.606  0.00  0.00    +0.000 HD
ENDBRANCH  19  34
BRANCH  21  36
ATOM     36  O   UNL     1      -1.315  38.740  15.014  0.00  0.00    +0.000 OA
ATOM     37  C   UNL     1      -1.005  37.969  16.148  0.00  0.00    +0.000 C 
ENDBRANCH  21  36
BRANCH  20  38
ATOM     38  O   UNL     1       1.651  43.836  18.904  0.00  0.00    +0.000 OA
BRANCH  38  40
ATOM     39  O   UNL     1       2.493  45.243  17.248  0.00  0.00    +0.000 OA
ATOM     40  C   UNL     1       2.173  44.981  18.393  0.00  0.00    +0.000 C 
ATOM     41  C   UNL     1       2.460  46.042  19.390  0.00  0.00    +0.000 C 
ENDBRANCH  38  40
ENDBRANCH  20  38
BRANCH   6  42
ATOM     42  C   UNL     1      -8.105  43.268  16.931  0.00  0.00    +0.000 C 
BRANCH  42  44
ATOM     43  O   UNL     1      -8.985  42.055  18.968  0.00  0.00    +0.000 OA
ATOM     44  C   UNL     1      -9.125  42.392  17.566  0.00  0.00    +0.000 C 
ATOM     45  C   UNL     1      -9.856  43.057  18.640  0.00  0.00    +0.000 C 
ATOM     46  C   UNL     1      -9.622  41.129  16.788  0.00  0.00    +0.000 C 
BRANCH  45  47
ATOM     47  C   UNL     1     -11.241  42.841  18.932  0.00  0.00    +0.000 C 
ATOM     48  C   UNL     1     -11.654  42.244  20.254  0.00  0.00    +0.000 C 
BRANCH  47  49
ATOM     49  C   UNL     1     -12.241  43.563  18.233  0.00  0.00    +0.000 C 
ATOM     50  C   UNL     1     -13.127  44.119  17.648  0.00  0.00    +0.000 C 
ATOM     51  C   UNL     1     -14.318  44.722  16.898  0.00  0.00    +0.000 C 
ENDBRANCH  47  49
ENDBRANCH  45  47
ENDBRANCH  42  44
BRANCH  42  52
ATOM     52  O   UNL     1      -8.441  44.405  16.209  0.00  0.00    +0.000 OA
ATOM     53  H   UNL     1      -9.036  44.998  16.711  0.00  0.00    +0.000 HD
ENDBRANCH  42  52
ENDBRANCH   6  42
TORSDOF 12
ENDMDL
MODEL 9
REMARK VINA RESULT:      -7.0     17.038     20.168
REMARK  Name = 101808842_CandidaspongiolideB.pdbqt.pdb
REMARK  12 active torsions:
REMARK  status: ('A' for Active; 'I' for Inactive)
REMARK    1  A    between atoms: C_6  and  C_42
REMARK    2  A    between atoms: C_7  and  O_28
REMARK    3  A    between atoms: C_10  and  O_30
REMARK    4  A    between atoms: C_13  and  O_32
REMARK    5  A    between atoms: C_19  and  O_34
REMARK    6  A    between atoms: C_20  and  O_38
REMARK    7  A    between atoms: C_21  and  O_36
REMARK    8  A    between atoms: O_38  and  C_40
REMARK    9  A    between atoms: C_42  and  C_44
REMARK   10  A    between atoms: C_42  and  O_52
REMARK   11  A    between atoms: C_45  and  C_47
REMARK   12  A    between atoms: C_47  and  C_49
REMARK                            x       y       z     vdW  Elec       q    Type
REMARK                         _______ _______ _______ _____ _____    ______ ____
ROOT
ATOM      1  O   UNL     1      10.505  34.330  14.277  0.00  0.00    +0.000 OA
ATOM      2  O   UNL     1      10.012  29.976  19.569  0.00  0.00    +0.000 OA
ATOM      3  O   UNL     1      11.843  31.172  15.932  0.00  0.00    +0.000 OA
ATOM      4  O   UNL     1      11.435  31.789  19.469  0.00  0.00    +0.000 OA
ATOM      5  O   UNL     1      10.179  34.426  19.952  0.00  0.00    +0.000 OA
ATOM      6  C   UNL     1      10.106  29.875  16.816  0.00  0.00    +0.000 C 
ATOM      7  C   UNL     1       9.596  32.152  15.701  0.00  0.00    +0.000 C 
ATOM      8  C   UNL     1      10.630  31.089  16.129  0.00  0.00    +0.000 C 
ATOM      9  C   UNL     1      10.066  29.872  18.240  0.00  0.00    +0.000 C 
ATOM     10  C   UNL     1       9.345  33.157  16.843  0.00  0.00    +0.000 C 
ATOM     11  C   UNL     1       9.614  34.521  16.525  0.00  0.00    +0.000 C 
ATOM     12  C   UNL     1      10.152  33.090  14.674  0.00  0.00    +0.000 C 
ATOM     13  C   UNL     1      10.153  35.287  15.358  0.00  0.00    +0.000 C 
ATOM     14  C   UNL     1      11.402  36.090  15.751  0.00  0.00    +0.000 C 
ATOM     15  C   UNL     1      12.081  35.841  16.981  0.00  0.00    +0.000 C 
ATOM     16  C   UNL     1      11.989  37.272  14.986  0.00  0.00    +0.000 C 
ATOM     17  C   UNL     1      10.674  31.052  20.078  0.00  0.00    +0.000 C 
ATOM     18  C   UNL     1      12.630  35.580  18.127  0.00  0.00    +0.000 C 
ATOM     19  C   UNL     1      10.279  31.284  21.487  0.00  0.00    +0.000 C 
ATOM     20  C   UNL     1      12.310  36.341  19.312  0.00  0.00    +0.000 C 
ATOM     21  C   UNL     1      10.502  32.564  22.131  0.00  0.00    +0.000 C 
ATOM     22  C   UNL     1      12.003  35.796  20.634  0.00  0.00    +0.000 C 
ATOM     23  C   UNL     1      11.494  33.564  21.765  0.00  0.00    +0.000 C 
ATOM     24  C   UNL     1      11.141  34.571  20.714  0.00  0.00    +0.000 C 
ATOM     25  C   UNL     1      13.457  34.328  18.205  0.00  0.00    +0.000 C 
ATOM     26  C   UNL     1      12.121  36.692  21.865  0.00  0.00    +0.000 C 
ATOM     27  C   UNL     1      12.922  33.397  22.273  0.00  0.00    +0.000 C 
ENDROOT
BRANCH   7  28
ATOM     28  O   UNL     1       8.353  31.661  15.242  0.00  0.00    +0.000 OA
ATOM     29  H   UNL     1       7.679  32.301  15.536  0.00  0.00    +0.000 HD
ENDBRANCH   7  28
BRANCH  10  30
ATOM     30  O   UNL     1       8.878  32.777  18.075  0.00  0.00    +0.000 OA
ATOM     31  H   UNL     1       9.256  31.914  18.347  0.00  0.00    +0.000 HD
ENDBRANCH  10  30
BRANCH  13  32
ATOM     32  O   UNL     1       9.119  36.146  14.885  0.00  0.00    +0.000 OA
ATOM     33  H   UNL     1       9.520  36.676  14.178  0.00  0.00    +0.000 HD
ENDBRANCH  13  32
BRANCH  19  34
ATOM     34  O   UNL     1       9.556  30.353  22.209  0.00  0.00    +0.000 OA
ATOM     35  H   UNL     1       8.746  30.053  21.748  0.00  0.00    +0.000 HD
ENDBRANCH  19  34
BRANCH  21  36
ATOM     36  O   UNL     1       9.971  32.670  23.405  0.00  0.00    +0.000 OA
ATOM     37  C   UNL     1       9.121  33.785  23.503  0.00  0.00    +0.000 C 
ENDBRANCH  21  36
BRANCH  20  38
ATOM     38  O   UNL     1      12.603  37.723  19.228  0.00  0.00    +0.000 OA
BRANCH  38  40
ATOM     39  O   UNL     1      10.331  38.206  19.048  0.00  0.00    +0.000 OA
ATOM     40  C   UNL     1      11.509  38.425  18.835  0.00  0.00    +0.000 C 
ATOM     41  C   UNL     1      11.789  39.589  17.960  0.00  0.00    +0.000 C 
ENDBRANCH  38  40
ENDBRANCH  20  38
BRANCH   6  42
ATOM     42  C   UNL     1       9.870  28.684  16.031  0.00  0.00    +0.000 C 
BRANCH  42  44
ATOM     43  O   UNL     1      10.686  26.638  14.790  0.00  0.00    +0.000 OA
ATOM     44  C   UNL     1      10.956  27.719  15.715  0.00  0.00    +0.000 C 
ATOM     45  C   UNL     1      11.342  27.737  14.308  0.00  0.00    +0.000 C 
ATOM     46  C   UNL     1      11.844  27.177  16.884  0.00  0.00    +0.000 C 
BRANCH  45  47
ATOM     47  C   UNL     1      12.679  27.545  13.832  0.00  0.00    +0.000 C 
ATOM     48  C   UNL     1      13.292  26.167  13.828  0.00  0.00    +0.000 C 
BRANCH  47  49
ATOM     49  C   UNL     1      13.274  28.496  12.965  0.00  0.00    +0.000 C 
ATOM     50  C   UNL     1      13.834  29.293  12.267  0.00  0.00    +0.000 C 
ATOM     51  C   UNL     1      14.645  30.307  11.455  0.00  0.00    +0.000 C 
ENDBRANCH  47  49
ENDBRANCH  45  47
ENDBRANCH  42  44
BRANCH  42  52
ATOM     52  O   UNL     1       8.557  28.493  15.621  0.00  0.00    +0.000 OA
ATOM     53  H   UNL     1       8.001  28.116  16.332  0.00  0.00    +0.000 HD
ENDBRANCH  42  52
ENDBRANCH   6  42
TORSDOF 12
ENDMDL
