MODEL 1
REMARK VINA RESULT:      -7.7      0.000      0.000
REMARK  Name = 101808841_CandidaspongiolideA.pdbqt.pdb
REMARK  13 active torsions:
REMARK  status: ('A' for Active; 'I' for Inactive)
REMARK    1  A    between atoms: C_6  and  C_39
REMARK    2  A    between atoms: C_9  and  O_27
REMARK    3  A    between atoms: C_9  and  C_51
REMARK    4  A    between atoms: C_10  and  O_29
REMARK    5  A    between atoms: C_14  and  O_31
REMARK    6  A    between atoms: C_15  and  O_33
REMARK    7  A    between atoms: C_20  and  O_35
REMARK    8  A    between atoms: O_35  and  C_37
REMARK    9  A    between atoms: C_39  and  C_41
REMARK   10  A    between atoms: C_39  and  O_49
REMARK   11  A    between atoms: C_42  and  C_44
REMARK   12  A    between atoms: C_44  and  C_46
REMARK   13  A    between atoms: C_51  and  O_52
REMARK                            x       y       z     vdW  Elec       q    Type
REMARK                         _______ _______ _______ _____ _____    ______ ____
ROOT
ATOM      1  O   UNL     1      -7.879  44.360  13.334  0.00  0.00    +0.000 OA
ATOM      2  O   UNL     1      -5.247  41.627  11.633  0.00  0.00    +0.000 OA
ATOM      3  O   UNL     1      -8.626  45.145  11.298  0.00  0.00    +0.000 OA
ATOM      4  O   UNL     1      -2.637  42.769  17.581  0.00  0.00    +0.000 OA
ATOM      5  O   UNL     1      -8.101  43.469  16.026  0.00  0.00    +0.000 OA
ATOM      6  C   UNL     1      -5.349  43.860  12.373  0.00  0.00    +0.000 C 
ATOM      7  C   UNL     1      -4.884  42.442  12.483  0.00  0.00    +0.000 C 
ATOM      8  C   UNL     1      -6.654  44.161  12.855  0.00  0.00    +0.000 C 
ATOM      9  C   UNL     1      -4.042  42.093  13.740  0.00  0.00    +0.000 C 
ATOM     10  C   UNL     1      -4.929  42.010  14.971  0.00  0.00    +0.000 C 
ATOM     11  C   UNL     1      -4.468  42.341  16.278  0.00  0.00    +0.000 C 
ATOM     12  C   UNL     1      -8.817  44.761  12.444  0.00  0.00    +0.000 C 
ATOM     13  C   UNL     1      -3.861  42.705  17.549  0.00  0.00    +0.000 C 
ATOM     14  C   UNL     1     -10.180  44.636  13.009  0.00  0.00    +0.000 C 
ATOM     15  C   UNL     1     -10.474  44.283  14.383  0.00  0.00    +0.000 C 
ATOM     16  C   UNL     1      -4.725  42.981  18.742  0.00  0.00    +0.000 C 
ATOM     17  C   UNL     1      -9.932  44.919  15.578  0.00  0.00    +0.000 C 
ATOM     18  C   UNL     1      -9.362  44.152  17.944  0.00  0.00    +0.000 C 
ATOM     19  C   UNL     1      -9.058  44.102  16.475  0.00  0.00    +0.000 C 
ATOM     20  C   UNL     1      -8.352  43.682  18.895  0.00  0.00    +0.000 C 
ATOM     21  C   UNL     1      -6.130  42.798  18.715  0.00  0.00    +0.000 C 
ATOM     22  C   UNL     1      -7.411  42.609  18.671  0.00  0.00    +0.000 C 
ATOM     23  C   UNL     1      -4.174  43.461  20.069  0.00  0.00    +0.000 C 
ATOM     24  C   UNL     1      -9.672  46.427  15.553  0.00  0.00    +0.000 C 
ATOM     25  C   UNL     1     -10.735  44.588  18.443  0.00  0.00    +0.000 C 
ATOM     26  C   UNL     1      -7.854  41.246  18.200  0.00  0.00    +0.000 C 
ENDROOT
BRANCH   9  27
ATOM     27  O   UNL     1      -3.072  43.119  13.953  0.00  0.00    +0.000 OA
ATOM     28  H   UNL     1      -3.530  43.859  14.391  0.00  0.00    +0.000 HD
ENDBRANCH   9  27
BRANCH  10  29
ATOM     29  O   UNL     1      -6.227  41.568  14.811  0.00  0.00    +0.000 OA
ATOM     30  H   UNL     1      -6.779  41.665  15.611  0.00  0.00    +0.000 HD
ENDBRANCH  10  29
BRANCH  14  31
ATOM     31  O   UNL     1     -11.267  44.814  12.171  0.00  0.00    +0.000 OA
ATOM     32  H   UNL     1     -12.100  44.574  12.630  0.00  0.00    +0.000 HD
ENDBRANCH  14  31
BRANCH  15  33
ATOM     33  O   UNL     1     -11.696  43.655  14.554  0.00  0.00    +0.000 OA
ATOM     34  C   UNL     1     -11.528  42.262  14.588  0.00  0.00    +0.000 C 
ENDBRANCH  15  33
BRANCH  20  35
ATOM     35  O   UNL     1      -8.494  44.026  20.267  0.00  0.00    +0.000 OA
BRANCH  35  37
ATOM     36  O   UNL     1      -9.880  42.239  20.842  0.00  0.00    +0.000 OA
ATOM     37  C   UNL     1      -8.974  43.023  21.047  0.00  0.00    +0.000 C 
ATOM     38  C   UNL     1      -8.318  42.905  22.373  0.00  0.00    +0.000 C 
ENDBRANCH  35  37
ENDBRANCH  20  35
BRANCH   6  39
ATOM     39  C   UNL     1      -4.533  44.853  11.704  0.00  0.00    +0.000 C 
BRANCH  39  41
ATOM     40  O   UNL     1      -5.556  46.705  10.281  0.00  0.00    +0.000 OA
ATOM     41  C   UNL     1      -4.914  45.410  10.374  0.00  0.00    +0.000 C 
ATOM     42  C   UNL     1      -4.219  46.643  10.017  0.00  0.00    +0.000 C 
ATOM     43  C   UNL     1      -5.593  44.445   9.342  0.00  0.00    +0.000 C 
BRANCH  42  44
ATOM     44  C   UNL     1      -3.764  46.905   8.681  0.00  0.00    +0.000 C 
ATOM     45  C   UNL     1      -4.065  48.229   8.026  0.00  0.00    +0.000 C 
BRANCH  44  46
ATOM     46  C   UNL     1      -2.617  46.218   8.201  0.00  0.00    +0.000 C 
ATOM     47  C   UNL     1      -1.691  45.642   7.702  0.00  0.00    +0.000 C 
ATOM     48  C   UNL     1      -0.587  44.891   6.943  0.00  0.00    +0.000 C 
ENDBRANCH  44  46
ENDBRANCH  42  44
ENDBRANCH  39  41
BRANCH  39  49
ATOM     49  O   UNL     1      -3.597  45.483  12.512  0.00  0.00    +0.000 OA
ATOM     50  H   UNL     1      -3.917  46.339  12.857  0.00  0.00    +0.000 HD
ENDBRANCH  39  49
ENDBRANCH   6  39
BRANCH   9  51
ATOM     51  C   UNL     1      -3.343  40.798  13.562  0.00  0.00    +0.000 C 
BRANCH  51  52
ATOM     52  O   UNL     1      -2.722  39.626  13.427  0.00  0.00    +0.000 OA
ATOM     53  H   UNL     1      -1.754  39.749  13.414  0.00  0.00    +0.000 HD
ENDBRANCH  51  52
ENDBRANCH   9  51
TORSDOF 13
ENDMDL
MODEL 2
REMARK VINA RESULT:      -7.4      2.736      5.599
REMARK  Name = 101808841_CandidaspongiolideA.pdbqt.pdb
REMARK  13 active torsions:
REMARK  status: ('A' for Active; 'I' for Inactive)
REMARK    1  A    between atoms: C_6  and  C_39
REMARK    2  A    between atoms: C_9  and  O_27
REMARK    3  A    between atoms: C_9  and  C_51
REMARK    4  A    between atoms: C_10  and  O_29
REMARK    5  A    between atoms: C_14  and  O_31
REMARK    6  A    between atoms: C_15  and  O_33
REMARK    7  A    between atoms: C_20  and  O_35
REMARK    8  A    between atoms: O_35  and  C_37
REMARK    9  A    between atoms: C_39  and  C_41
REMARK   10  A    between atoms: C_39  and  O_49
REMARK   11  A    between atoms: C_42  and  C_44
REMARK   12  A    between atoms: C_44  and  C_46
REMARK   13  A    between atoms: C_51  and  O_52
REMARK                            x       y       z     vdW  Elec       q    Type
REMARK                         _______ _______ _______ _____ _____    ______ ____
ROOT
ATOM      1  O   UNL     1      -5.656  42.007  17.016  0.00  0.00    +0.000 OA
ATOM      2  O   UNL     1      -3.758  38.848  15.093  0.00  0.00    +0.000 OA
ATOM      3  O   UNL     1      -7.755  41.403  16.274  0.00  0.00    +0.000 OA
ATOM      4  O   UNL     1       1.006  43.371  15.675  0.00  0.00    +0.000 OA
ATOM      5  O   UNL     1      -3.709  42.904  18.886  0.00  0.00    +0.000 OA
ATOM      6  C   UNL     1      -4.427  41.077  14.736  0.00  0.00    +0.000 C 
ATOM      7  C   UNL     1      -3.393  40.016  14.946  0.00  0.00    +0.000 C 
ATOM      8  C   UNL     1      -5.090  41.583  15.889  0.00  0.00    +0.000 C 
ATOM      9  C   UNL     1      -1.923  40.504  15.058  0.00  0.00    +0.000 C 
ATOM     10  C   UNL     1      -1.680  41.160  16.407  0.00  0.00    +0.000 C 
ATOM     11  C   UNL     1      -0.741  42.216  16.594  0.00  0.00    +0.000 C 
ATOM     12  C   UNL     1      -6.985  41.779  17.146  0.00  0.00    +0.000 C 
ATOM     13  C   UNL     1       0.250  43.280  16.636  0.00  0.00    +0.000 C 
ATOM     14  C   UNL     1      -7.429  41.994  18.543  0.00  0.00    +0.000 C 
ATOM     15  C   UNL     1      -6.598  42.529  19.601  0.00  0.00    +0.000 C 
ATOM     16  C   UNL     1       0.315  44.200  17.817  0.00  0.00    +0.000 C 
ATOM     17  C   UNL     1      -5.823  43.764  19.556  0.00  0.00    +0.000 C 
ATOM     18  C   UNL     1      -3.640  44.578  20.598  0.00  0.00    +0.000 C 
ATOM     19  C   UNL     1      -4.332  43.662  19.630  0.00  0.00    +0.000 C 
ATOM     20  C   UNL     1      -2.196  44.788  20.467  0.00  0.00    +0.000 C 
ATOM     21  C   UNL     1      -0.496  44.013  18.965  0.00  0.00    +0.000 C 
ATOM     22  C   UNL     1      -1.235  43.812  20.009  0.00  0.00    +0.000 C 
ATOM     23  C   UNL     1       1.250  45.389  17.889  0.00  0.00    +0.000 C 
ATOM     24  C   UNL     1      -6.393  44.960  18.791  0.00  0.00    +0.000 C 
ATOM     25  C   UNL     1      -4.400  45.201  21.763  0.00  0.00    +0.000 C 
ATOM     26  C   UNL     1      -1.155  42.431  20.611  0.00  0.00    +0.000 C 
ENDROOT
BRANCH   9  27
ATOM     27  O   UNL     1      -1.673  41.471  14.037  0.00  0.00    +0.000 OA
ATOM     28  H   UNL     1      -2.470  41.509  13.478  0.00  0.00    +0.000 HD
ENDBRANCH   9  27
BRANCH  10  29
ATOM     29  O   UNL     1      -2.381  40.688  17.499  0.00  0.00    +0.000 OA
ATOM     30  H   UNL     1      -1.815  40.421  18.247  0.00  0.00    +0.000 HD
ENDBRANCH  10  29
BRANCH  14  31
ATOM     31  O   UNL     1      -8.712  41.615  18.898  0.00  0.00    +0.000 OA
ATOM     32  H   UNL     1      -8.701  40.754  19.367  0.00  0.00    +0.000 HD
ENDBRANCH  14  31
BRANCH  15  33
ATOM     33  O   UNL     1      -6.958  42.107  20.870  0.00  0.00    +0.000 OA
ATOM     34  C   UNL     1      -7.534  43.165  21.590  0.00  0.00    +0.000 C 
ENDBRANCH  15  33
BRANCH  20  35
ATOM     35  O   UNL     1      -1.602  45.883  21.151  0.00  0.00    +0.000 OA
BRANCH  35  37
ATOM     36  O   UNL     1      -2.110  47.476  19.523  0.00  0.00    +0.000 OA
ATOM     37  C   UNL     1      -1.400  46.981  20.378  0.00  0.00    +0.000 C 
ATOM     38  C   UNL     1      -0.087  47.643  20.577  0.00  0.00    +0.000 C 
ENDBRANCH  35  37
ENDBRANCH  20  35
BRANCH   6  39
ATOM     39  C   UNL     1      -4.802  41.485  13.397  0.00  0.00    +0.000 C 
BRANCH  39  41
ATOM     40  O   UNL     1      -5.553  43.859  13.950  0.00  0.00    +0.000 OA
ATOM     41  C   UNL     1      -5.697  42.653  13.159  0.00  0.00    +0.000 C 
ATOM     42  C   UNL     1      -5.009  43.856  12.699  0.00  0.00    +0.000 C 
ATOM     43  C   UNL     1      -7.226  42.375  12.953  0.00  0.00    +0.000 C 
BRANCH  42  44
ATOM     44  C   UNL     1      -5.566  44.721  11.699  0.00  0.00    +0.000 C 
ATOM     45  C   UNL     1      -6.580  45.768  12.085  0.00  0.00    +0.000 C 
BRANCH  44  46
ATOM     46  C   UNL     1      -4.811  44.986  10.525  0.00  0.00    +0.000 C 
ATOM     47  C   UNL     1      -4.135  45.293   9.583  0.00  0.00    +0.000 C 
ATOM     48  C   UNL     1      -3.244  45.811   8.445  0.00  0.00    +0.000 C 
ENDBRANCH  44  46
ENDBRANCH  42  44
ENDBRANCH  39  41
BRANCH  39  49
ATOM     49  O   UNL     1      -4.018  40.954  12.383  0.00  0.00    +0.000 OA
ATOM     50  H   UNL     1      -3.234  40.482  12.723  0.00  0.00    +0.000 HD
ENDBRANCH  39  49
ENDBRANCH   6  39
BRANCH   9  51
ATOM     51  C   UNL     1      -0.980  39.373  14.895  0.00  0.00    +0.000 C 
BRANCH  51  52
ATOM     52  O   UNL     1      -0.149  38.344  14.732  0.00  0.00    +0.000 OA
ATOM     53  H   UNL     1       0.373  38.191  15.541  0.00  0.00    +0.000 HD
ENDBRANCH  51  52
ENDBRANCH   9  51
TORSDOF 13
ENDMDL
MODEL 3
REMARK VINA RESULT:      -7.3     17.237     21.358
REMARK  Name = 101808841_CandidaspongiolideA.pdbqt.pdb
REMARK  13 active torsions:
REMARK  status: ('A' for Active; 'I' for Inactive)
REMARK    1  A    between atoms: C_6  and  C_39
REMARK    2  A    between atoms: C_9  and  O_27
REMARK    3  A    between atoms: C_9  and  C_51
REMARK    4  A    between atoms: C_10  and  O_29
REMARK    5  A    between atoms: C_14  and  O_31
REMARK    6  A    between atoms: C_15  and  O_33
REMARK    7  A    between atoms: C_20  and  O_35
REMARK    8  A    between atoms: O_35  and  C_37
REMARK    9  A    between atoms: C_39  and  C_41
REMARK   10  A    between atoms: C_39  and  O_49
REMARK   11  A    between atoms: C_42  and  C_44
REMARK   12  A    between atoms: C_44  and  C_46
REMARK   13  A    between atoms: C_51  and  O_52
REMARK                            x       y       z     vdW  Elec       q    Type
REMARK                         _______ _______ _______ _____ _____    ______ ____
ROOT
ATOM      1  O   UNL     1       9.686  36.458  16.843  0.00  0.00    +0.000 OA
ATOM      2  O   UNL     1       7.488  34.739  19.925  0.00  0.00    +0.000 OA
ATOM      3  O   UNL     1       7.816  37.047  15.627  0.00  0.00    +0.000 OA
ATOM      4  O   UNL     1      13.317  31.676  20.307  0.00  0.00    +0.000 OA
ATOM      5  O   UNL     1      12.266  36.803  17.989  0.00  0.00    +0.000 OA
ATOM      6  C   UNL     1       8.487  34.200  17.862  0.00  0.00    +0.000 C 
ATOM      7  C   UNL     1       8.397  34.133  19.354  0.00  0.00    +0.000 C 
ATOM      8  C   UNL     1       9.097  35.353  17.293  0.00  0.00    +0.000 C 
ATOM      9  C   UNL     1       9.539  33.367  20.076  0.00  0.00    +0.000 C 
ATOM     10  C   UNL     1      10.814  34.193  20.082  0.00  0.00    +0.000 C 
ATOM     11  C   UNL     1      12.114  33.606  20.060  0.00  0.00    +0.000 C 
ATOM     12  C   UNL     1       8.921  37.287  16.094  0.00  0.00    +0.000 C 
ATOM     13  C   UNL     1      13.369  32.872  20.040  0.00  0.00    +0.000 C 
ATOM     14  C   UNL     1       9.569  38.609  15.928  0.00  0.00    +0.000 C 
ATOM     15  C   UNL     1      10.911  38.931  16.368  0.00  0.00    +0.000 C 
ATOM     16  C   UNL     1      14.647  33.578  19.705  0.00  0.00    +0.000 C 
ATOM     17  C   UNL     1      12.127  38.188  16.061  0.00  0.00    +0.000 C 
ATOM     18  C   UNL     1      14.340  37.752  17.256  0.00  0.00    +0.000 C 
ATOM     19  C   UNL     1      12.856  37.534  17.192  0.00  0.00    +0.000 C 
ATOM     20  C   UNL     1      15.151  36.870  18.098  0.00  0.00    +0.000 C 
ATOM     21  C   UNL     1      14.704  34.980  19.505  0.00  0.00    +0.000 C 
ATOM     22  C   UNL     1      14.734  36.265  19.342  0.00  0.00    +0.000 C 
ATOM     23  C   UNL     1      15.976  32.864  19.567  0.00  0.00    +0.000 C 
ATOM     24  C   UNL     1      12.258  37.530  14.687  0.00  0.00    +0.000 C 
ATOM     25  C   UNL     1      14.986  38.933  16.542  0.00  0.00    +0.000 C 
ATOM     26  C   UNL     1      14.143  37.080  20.465  0.00  0.00    +0.000 C 
ENDROOT
BRANCH   9  27
ATOM     27  O   UNL     1       9.796  32.147  19.379  0.00  0.00    +0.000 OA
ATOM     28  H   UNL     1      10.049  32.386  18.469  0.00  0.00    +0.000 HD
ENDBRANCH   9  27
BRANCH  10  29
ATOM     29  O   UNL     1      10.703  35.567  20.141  0.00  0.00    +0.000 OA
ATOM     30  H   UNL     1      11.559  36.032  20.190  0.00  0.00    +0.000 HD
ENDBRANCH  10  29
BRANCH  14  31
ATOM     31  O   UNL     1       8.841  39.640  15.361  0.00  0.00    +0.000 OA
ATOM     32  H   UNL     1       8.019  39.803  15.870  0.00  0.00    +0.000 HD
ENDBRANCH  14  31
BRANCH  15  33
ATOM     33  O   UNL     1      11.099  40.270  16.668  0.00  0.00    +0.000 OA
ATOM     34  C   UNL     1      10.968  40.483  18.049  0.00  0.00    +0.000 C 
ENDBRANCH  15  33
BRANCH  20  35
ATOM     35  O   UNL     1      16.560  36.857  17.912  0.00  0.00    +0.000 OA
BRANCH  35  37
ATOM     36  O   UNL     1      16.556  35.436  16.061  0.00  0.00    +0.000 OA
ATOM     37  C   UNL     1      17.008  35.858  17.109  0.00  0.00    +0.000 C 
ATOM     38  C   UNL     1      18.202  35.142  17.622  0.00  0.00    +0.000 C 
ENDBRANCH  35  37
ENDBRANCH  20  35
BRANCH   6  39
ATOM     39  C   UNL     1       7.879  33.173  17.041  0.00  0.00    +0.000 C 
BRANCH  39  41
ATOM     40  O   UNL     1       9.666  31.364  16.850  0.00  0.00    +0.000 OA
ATOM     41  C   UNL     1       8.702  32.242  16.217  0.00  0.00    +0.000 C 
ATOM     42  C   UNL     1       8.464  30.827  16.490  0.00  0.00    +0.000 C 
ATOM     43  C   UNL     1       9.330  32.795  14.892  0.00  0.00    +0.000 C 
BRANCH  42  44
ATOM     44  C   UNL     1       8.430  29.842  15.446  0.00  0.00    +0.000 C 
ATOM     45  C   UNL     1       9.640  28.982  15.179  0.00  0.00    +0.000 C 
BRANCH  44  46
ATOM     46  C   UNL     1       7.177  29.293  15.064  0.00  0.00    +0.000 C 
ATOM     47  C   UNL     1       6.145  28.745  14.794  0.00  0.00    +0.000 C 
ATOM     48  C   UNL     1       4.883  27.921  14.500  0.00  0.00    +0.000 C 
ENDBRANCH  44  46
ENDBRANCH  42  44
ENDBRANCH  39  41
BRANCH  39  49
ATOM     49  O   UNL     1       6.551  32.898  17.336  0.00  0.00    +0.000 OA
ATOM     50  H   UNL     1       6.234  33.385  18.121  0.00  0.00    +0.000 HD
ENDBRANCH  39  49
ENDBRANCH   6  39
BRANCH   9  51
ATOM     51  C   UNL     1       9.160  33.054  21.474  0.00  0.00    +0.000 C 
BRANCH  51  52
ATOM     52  O   UNL     1       8.797  32.787  22.729  0.00  0.00    +0.000 OA
ATOM     53  H   UNL     1       9.486  33.076  23.355  0.00  0.00    +0.000 HD
ENDBRANCH  51  52
ENDBRANCH   9  51
TORSDOF 13
ENDMDL
MODEL 4
REMARK VINA RESULT:      -7.3      3.462      6.361
REMARK  Name = 101808841_CandidaspongiolideA.pdbqt.pdb
REMARK  13 active torsions:
REMARK  status: ('A' for Active; 'I' for Inactive)
REMARK    1  A    between atoms: C_6  and  C_39
REMARK    2  A    between atoms: C_9  and  O_27
REMARK    3  A    between atoms: C_9  and  C_51
REMARK    4  A    between atoms: C_10  and  O_29
REMARK    5  A    between atoms: C_14  and  O_31
REMARK    6  A    between atoms: C_15  and  O_33
REMARK    7  A    between atoms: C_20  and  O_35
REMARK    8  A    between atoms: O_35  and  C_37
REMARK    9  A    between atoms: C_39  and  C_41
REMARK   10  A    between atoms: C_39  and  O_49
REMARK   11  A    between atoms: C_42  and  C_44
REMARK   12  A    between atoms: C_44  and  C_46
REMARK   13  A    between atoms: C_51  and  O_52
REMARK                            x       y       z     vdW  Elec       q    Type
REMARK                         _______ _______ _______ _____ _____    ______ ____
ROOT
ATOM      1  O   UNL     1      -5.693  42.675  17.217  0.00  0.00    +0.000 OA
ATOM      2  O   UNL     1      -4.153  39.629  14.843  0.00  0.00    +0.000 OA
ATOM      3  O   UNL     1      -7.770  42.619  16.216  0.00  0.00    +0.000 OA
ATOM      4  O   UNL     1       1.210  43.003  16.673  0.00  0.00    +0.000 OA
ATOM      5  O   UNL     1      -3.837  42.834  19.367  0.00  0.00    +0.000 OA
ATOM      6  C   UNL     1      -4.397  41.971  14.893  0.00  0.00    +0.000 C 
ATOM      7  C   UNL     1      -3.585  40.716  14.961  0.00  0.00    +0.000 C 
ATOM      8  C   UNL     1      -5.087  42.369  16.073  0.00  0.00    +0.000 C 
ATOM      9  C   UNL     1      -2.075  40.893  15.278  0.00  0.00    +0.000 C 
ATOM     10  C   UNL     1      -1.873  41.232  16.745  0.00  0.00    +0.000 C 
ATOM     11  C   UNL     1      -0.795  42.042  17.209  0.00  0.00    +0.000 C 
ATOM     12  C   UNL     1      -7.046  42.678  17.201  0.00  0.00    +0.000 C 
ATOM     13  C   UNL     1       0.349  42.877  17.537  0.00  0.00    +0.000 C 
ATOM     14  C   UNL     1      -7.598  42.709  18.575  0.00  0.00    +0.000 C 
ATOM     15  C   UNL     1      -6.808  42.876  19.778  0.00  0.00    +0.000 C 
ATOM     16  C   UNL     1       0.439  43.535  18.881  0.00  0.00    +0.000 C 
ATOM     17  C   UNL     1      -5.837  43.932  20.039  0.00  0.00    +0.000 C 
ATOM     18  C   UNL     1      -3.674  44.119  21.381  0.00  0.00    +0.000 C 
ATOM     19  C   UNL     1      -4.401  43.543  20.201  0.00  0.00    +0.000 C 
ATOM     20  C   UNL     1      -2.210  44.079  21.402  0.00  0.00    +0.000 C 
ATOM     21  C   UNL     1      -0.511  43.292  19.904  0.00  0.00    +0.000 C 
ATOM     22  C   UNL     1      -1.382  43.042  20.830  0.00  0.00    +0.000 C 
ATOM     23  C   UNL     1       1.547  44.495  19.260  0.00  0.00    +0.000 C 
ATOM     24  C   UNL     1      -6.112  45.333  19.491  0.00  0.00    +0.000 C 
ATOM     25  C   UNL     1      -4.441  44.646  22.589  0.00  0.00    +0.000 C 
ATOM     26  C   UNL     1      -1.601  41.584  21.146  0.00  0.00    +0.000 C 
ENDROOT
BRANCH   9  27
ATOM     27  O   UNL     1      -1.556  41.969  14.493  0.00  0.00    +0.000 OA
ATOM     28  H   UNL     1      -2.320  42.451  14.128  0.00  0.00    +0.000 HD
ENDBRANCH   9  27
BRANCH  10  29
ATOM     29  O   UNL     1      -2.757  40.704  17.664  0.00  0.00    +0.000 OA
ATOM     30  H   UNL     1      -2.409  40.674  18.576  0.00  0.00    +0.000 HD
ENDBRANCH  10  29
BRANCH  14  31
ATOM     31  O   UNL     1      -8.957  42.516  18.751  0.00  0.00    +0.000 OA
ATOM     32  H   UNL     1      -9.123  41.800  19.400  0.00  0.00    +0.000 HD
ENDBRANCH  14  31
BRANCH  15  33
ATOM     33  O   UNL     1      -7.370  42.301  20.905  0.00  0.00    +0.000 OA
ATOM     34  C   UNL     1      -7.805  43.295  21.794  0.00  0.00    +0.000 C 
ENDBRANCH  15  33
BRANCH  20  35
ATOM     35  O   UNL     1      -1.519  44.898  22.335  0.00  0.00    +0.000 OA
BRANCH  35  37
ATOM     36  O   UNL     1      -1.526  46.805  20.990  0.00  0.00    +0.000 OA
ATOM     37  C   UNL     1      -1.035  46.054  21.811  0.00  0.00    +0.000 C 
ATOM     38  C   UNL     1       0.325  46.421  22.278  0.00  0.00    +0.000 C 
ENDBRANCH  35  37
ENDBRANCH  20  35
BRANCH   6  39
ATOM     39  C   UNL     1      -4.550  42.682  13.640  0.00  0.00    +0.000 C 
BRANCH  39  41
ATOM     40  O   UNL     1      -5.770  42.205  11.452  0.00  0.00    +0.000 OA
ATOM     41  C   UNL     1      -5.809  42.601  12.846  0.00  0.00    +0.000 C 
ATOM     42  C   UNL     1      -6.133  41.260  12.367  0.00  0.00    +0.000 C 
ATOM     43  C   UNL     1      -6.851  43.761  13.003  0.00  0.00    +0.000 C 
BRANCH  42  44
ATOM     44  C   UNL     1      -7.478  40.759  12.348  0.00  0.00    +0.000 C 
ATOM     45  C   UNL     1      -8.023  40.104  11.104  0.00  0.00    +0.000 C 
BRANCH  44  46
ATOM     46  C   UNL     1      -8.080  40.369  13.574  0.00  0.00    +0.000 C 
ATOM     47  C   UNL     1      -8.681  40.060  14.565  0.00  0.00    +0.000 C 
ATOM     48  C   UNL     1      -9.567  39.724  15.773  0.00  0.00    +0.000 C 
ENDBRANCH  44  46
ENDBRANCH  42  44
ENDBRANCH  39  41
BRANCH  39  49
ATOM     49  O   UNL     1      -3.616  43.683  13.417  0.00  0.00    +0.000 OA
ATOM     50  H   UNL     1      -3.112  43.911  14.222  0.00  0.00    +0.000 HD
ENDBRANCH  39  49
ENDBRANCH   6  39
BRANCH   9  51
ATOM     51  C   UNL     1      -1.322  39.657  14.959  0.00  0.00    +0.000 C 
BRANCH  51  52
ATOM     52  O   UNL     1      -0.641  38.554  14.648  0.00  0.00    +0.000 OA
ATOM     53  H   UNL     1       0.035  38.746  13.972  0.00  0.00    +0.000 HD
ENDBRANCH  51  52
ENDBRANCH   9  51
TORSDOF 13
ENDMDL
MODEL 5
REMARK VINA RESULT:      -7.2      2.895      7.222
REMARK  Name = 101808841_CandidaspongiolideA.pdbqt.pdb
REMARK  13 active torsions:
REMARK  status: ('A' for Active; 'I' for Inactive)
REMARK    1  A    between atoms: C_6  and  C_39
REMARK    2  A    between atoms: C_9  and  O_27
REMARK    3  A    between atoms: C_9  and  C_51
REMARK    4  A    between atoms: C_10  and  O_29
REMARK    5  A    between atoms: C_14  and  O_31
REMARK    6  A    between atoms: C_15  and  O_33
REMARK    7  A    between atoms: C_20  and  O_35
REMARK    8  A    between atoms: O_35  and  C_37
REMARK    9  A    between atoms: C_39  and  C_41
REMARK   10  A    between atoms: C_39  and  O_49
REMARK   11  A    between atoms: C_42  and  C_44
REMARK   12  A    between atoms: C_44  and  C_46
REMARK   13  A    between atoms: C_51  and  O_52
REMARK                            x       y       z     vdW  Elec       q    Type
REMARK                         _______ _______ _______ _____ _____    ______ ____
ROOT
ATOM      1  O   UNL     1      -3.524  42.201  14.024  0.00  0.00    +0.000 OA
ATOM      2  O   UNL     1      -4.505  44.557  10.743  0.00  0.00    +0.000 OA
ATOM      3  O   UNL     1      -2.579  40.533  12.742  0.00  0.00    +0.000 OA
ATOM      4  O   UNL     1      -8.829  46.462  15.344  0.00  0.00    +0.000 OA
ATOM      5  O   UNL     1      -3.734  44.005  16.214  0.00  0.00    +0.000 OA
ATOM      6  C   UNL     1      -5.377  42.834  12.091  0.00  0.00    +0.000 C 
ATOM      7  C   UNL     1      -5.339  44.245  11.596  0.00  0.00    +0.000 C 
ATOM      8  C   UNL     1      -4.432  42.464  13.088  0.00  0.00    +0.000 C 
ATOM      9  C   UNL     1      -6.311  45.240  12.286  0.00  0.00    +0.000 C 
ATOM     10  C   UNL     1      -5.810  45.599  13.675  0.00  0.00    +0.000 C 
ATOM     11  C   UNL     1      -6.687  45.922  14.752  0.00  0.00    +0.000 C 
ATOM     12  C   UNL     1      -2.580  41.283  13.708  0.00  0.00    +0.000 C 
ATOM     13  C   UNL     1      -7.696  46.232  15.752  0.00  0.00    +0.000 C 
ATOM     14  C   UNL     1      -1.459  41.312  14.676  0.00  0.00    +0.000 C 
ATOM     15  C   UNL     1      -1.438  42.102  15.891  0.00  0.00    +0.000 C 
ATOM     16  C   UNL     1      -7.330  46.263  17.205  0.00  0.00    +0.000 C 
ATOM     17  C   UNL     1      -2.462  42.126  16.928  0.00  0.00    +0.000 C 
ATOM     18  C   UNL     1      -3.341  43.868  18.573  0.00  0.00    +0.000 C 
ATOM     19  C   UNL     1      -3.207  43.403  17.152  0.00  0.00    +0.000 C 
ATOM     20  C   UNL     1      -4.342  44.888  18.895  0.00  0.00    +0.000 C 
ATOM     21  C   UNL     1      -5.993  46.101  17.650  0.00  0.00    +0.000 C 
ATOM     22  C   UNL     1      -4.763  45.967  18.031  0.00  0.00    +0.000 C 
ATOM     23  C   UNL     1      -8.343  46.480  18.309  0.00  0.00    +0.000 C 
ATOM     24  C   UNL     1      -3.207  40.830  17.254  0.00  0.00    +0.000 C 
ATOM     25  C   UNL     1      -2.386  43.368  19.651  0.00  0.00    +0.000 C 
ATOM     26  C   UNL     1      -3.771  46.897  17.379  0.00  0.00    +0.000 C 
ENDROOT
BRANCH   9  27
ATOM     27  O   UNL     1      -7.594  44.625  12.416  0.00  0.00    +0.000 OA
ATOM     28  H   UNL     1      -7.448  43.662  12.437  0.00  0.00    +0.000 HD
ENDBRANCH   9  27
BRANCH  10  29
ATOM     29  O   UNL     1      -4.447  45.641  13.887  0.00  0.00    +0.000 OA
ATOM     30  H   UNL     1      -3.919  45.674  13.067  0.00  0.00    +0.000 HD
ENDBRANCH  10  29
BRANCH  14  31
ATOM     31  O   UNL     1      -0.318  40.581  14.395  0.00  0.00    +0.000 OA
ATOM     32  H   UNL     1       0.326  41.125  13.895  0.00  0.00    +0.000 HD
ENDBRANCH  14  31
BRANCH  15  33
ATOM     33  O   UNL     1      -0.167  42.456  16.310  0.00  0.00    +0.000 OA
ATOM     34  C   UNL     1       0.178  43.719  15.806  0.00  0.00    +0.000 C 
ENDBRANCH  15  33
BRANCH  20  35
ATOM     35  O   UNL     1      -4.697  45.089  20.257  0.00  0.00    +0.000 OA
BRANCH  35  37
ATOM     36  O   UNL     1      -3.039  46.581  20.942  0.00  0.00    +0.000 OA
ATOM     37  C   UNL     1      -4.194  46.226  20.802  0.00  0.00    +0.000 C 
ATOM     38  C   UNL     1      -5.215  47.149  21.356  0.00  0.00    +0.000 C 
ENDBRANCH  35  37
ENDBRANCH  20  35
BRANCH   6  39
ATOM     39  C   UNL     1      -6.275  41.868  11.491  0.00  0.00    +0.000 C 
BRANCH  39  41
ATOM     40  O   UNL     1      -7.553  39.927  12.541  0.00  0.00    +0.000 OA
ATOM     41  C   UNL     1      -7.458  41.339  12.229  0.00  0.00    +0.000 C 
ATOM     42  C   UNL     1      -7.146  40.767  13.536  0.00  0.00    +0.000 C 
ATOM     43  C   UNL     1      -8.877  41.849  11.801  0.00  0.00    +0.000 C 
BRANCH  42  44
ATOM     44  C   UNL     1      -7.997  40.955  14.676  0.00  0.00    +0.000 C 
ATOM     45  C   UNL     1      -9.222  40.094  14.855  0.00  0.00    +0.000 C 
BRANCH  44  46
ATOM     46  C   UNL     1      -7.441  41.505  15.862  0.00  0.00    +0.000 C 
ATOM     47  C   UNL     1      -7.061  41.944  16.911  0.00  0.00    +0.000 C 
ATOM     48  C   UNL     1      -6.711  42.495  18.301  0.00  0.00    +0.000 C 
ENDBRANCH  44  46
ENDBRANCH  42  44
ENDBRANCH  39  41
BRANCH  39  49
ATOM     49  O   UNL     1      -6.164  41.741  10.114  0.00  0.00    +0.000 OA
ATOM     50  H   UNL     1      -6.615  40.944   9.774  0.00  0.00    +0.000 HD
ENDBRANCH  39  49
ENDBRANCH   6  39
BRANCH   9  51
ATOM     51  C   UNL     1      -6.449  46.481  11.488  0.00  0.00    +0.000 C 
BRANCH  51  52
ATOM     52  O   UNL     1      -6.574  47.581  10.746  0.00  0.00    +0.000 OA
ATOM     53  H   UNL     1      -6.458  47.374   9.800  0.00  0.00    +0.000 HD
ENDBRANCH  51  52
ENDBRANCH   9  51
TORSDOF 13
ENDMDL
MODEL 6
REMARK VINA RESULT:      -7.0      3.120      7.282
REMARK  Name = 101808841_CandidaspongiolideA.pdbqt.pdb
REMARK  13 active torsions:
REMARK  status: ('A' for Active; 'I' for Inactive)
REMARK    1  A    between atoms: C_6  and  C_39
REMARK    2  A    between atoms: C_9  and  O_27
REMARK    3  A    between atoms: C_9  and  C_51
REMARK    4  A    between atoms: C_10  and  O_29
REMARK    5  A    between atoms: C_14  and  O_31
REMARK    6  A    between atoms: C_15  and  O_33
REMARK    7  A    between atoms: C_20  and  O_35
REMARK    8  A    between atoms: O_35  and  C_37
REMARK    9  A    between atoms: C_39  and  C_41
REMARK   10  A    between atoms: C_39  and  O_49
REMARK   11  A    between atoms: C_42  and  C_44
REMARK   12  A    between atoms: C_44  and  C_46
REMARK   13  A    between atoms: C_51  and  O_52
REMARK                            x       y       z     vdW  Elec       q    Type
REMARK                         _______ _______ _______ _____ _____    ______ ____
ROOT
ATOM      1  O   UNL     1      -3.708  42.324  14.012  0.00  0.00    +0.000 OA
ATOM      2  O   UNL     1      -4.898  44.473  10.658  0.00  0.00    +0.000 OA
ATOM      3  O   UNL     1      -3.059  40.478  12.792  0.00  0.00    +0.000 OA
ATOM      4  O   UNL     1      -8.466  47.133  15.525  0.00  0.00    +0.000 OA
ATOM      5  O   UNL     1      -3.508  44.318  16.032  0.00  0.00    +0.000 OA
ATOM      6  C   UNL     1      -5.729  42.953  12.253  0.00  0.00    +0.000 C 
ATOM      7  C   UNL     1      -5.642  44.309  11.626  0.00  0.00    +0.000 C 
ATOM      8  C   UNL     1      -4.701  42.587  13.166  0.00  0.00    +0.000 C 
ATOM      9  C   UNL     1      -6.443  45.440  12.327  0.00  0.00    +0.000 C 
ATOM     10  C   UNL     1      -5.750  45.870  13.609  0.00  0.00    +0.000 C 
ATOM     11  C   UNL     1      -6.461  46.358  14.745  0.00  0.00    +0.000 C 
ATOM     12  C   UNL     1      -2.884  41.303  13.677  0.00  0.00    +0.000 C 
ATOM     13  C   UNL     1      -7.312  46.839  15.820  0.00  0.00    +0.000 C 
ATOM     14  C   UNL     1      -1.654  41.316  14.503  0.00  0.00    +0.000 C 
ATOM     15  C   UNL     1      -1.424  42.199  15.627  0.00  0.00    +0.000 C 
ATOM     16  C   UNL     1      -6.770  46.959  17.212  0.00  0.00    +0.000 C 
ATOM     17  C   UNL     1      -2.308  42.401  16.768  0.00  0.00    +0.000 C 
ATOM     18  C   UNL     1      -2.842  44.346  18.332  0.00  0.00    +0.000 C 
ATOM     19  C   UNL     1      -2.919  43.754  16.955  0.00  0.00    +0.000 C 
ATOM     20  C   UNL     1      -3.714  45.474  18.670  0.00  0.00    +0.000 C 
ATOM     21  C   UNL     1      -5.406  46.719  17.514  0.00  0.00    +0.000 C 
ATOM     22  C   UNL     1      -4.152  46.509  17.762  0.00  0.00    +0.000 C 
ATOM     23  C   UNL     1      -7.620  47.357  18.400  0.00  0.00    +0.000 C 
ATOM     24  C   UNL     1      -3.106  41.208  17.299  0.00  0.00    +0.000 C 
ATOM     25  C   UNL     1      -1.804  43.857  19.335  0.00  0.00    +0.000 C 
ATOM     26  C   UNL     1      -3.178  47.290  16.916  0.00  0.00    +0.000 C 
ENDROOT
BRANCH   9  27
ATOM     27  O   UNL     1      -7.744  44.954  12.661  0.00  0.00    +0.000 OA
ATOM     28  H   UNL     1      -8.289  45.729  12.889  0.00  0.00    +0.000 HD
ENDBRANCH   9  27
BRANCH  10  29
ATOM     29  O   UNL     1      -4.371  45.809  13.659  0.00  0.00    +0.000 OA
ATOM     30  H   UNL     1      -3.958  45.517  12.824  0.00  0.00    +0.000 HD
ENDBRANCH  10  29
BRANCH  14  31
ATOM     31  O   UNL     1      -0.616  40.466  14.163  0.00  0.00    +0.000 OA
ATOM     32  H   UNL     1      -0.534  39.741  14.818  0.00  0.00    +0.000 HD
ENDBRANCH  14  31
BRANCH  15  33
ATOM     33  O   UNL     1      -0.087  42.475  15.863  0.00  0.00    +0.000 OA
ATOM     34  C   UNL     1       0.325  41.893  17.071  0.00  0.00    +0.000 C 
ENDBRANCH  15  33
BRANCH  20  35
ATOM     35  O   UNL     1      -3.883  45.819  20.038  0.00  0.00    +0.000 OA
BRANCH  35  37
ATOM     36  O   UNL     1      -5.972  44.837  20.374  0.00  0.00    +0.000 OA
ATOM     37  C   UNL     1      -4.824  45.085  20.687  0.00  0.00    +0.000 C 
ATOM     38  C   UNL     1      -4.391  44.551  22.002  0.00  0.00    +0.000 C 
ENDBRANCH  35  37
ENDBRANCH  20  35
BRANCH   6  39
ATOM     39  C   UNL     1      -6.766  42.023  11.854  0.00  0.00    +0.000 C 
BRANCH  39  41
ATOM     40  O   UNL     1      -8.501  42.183  13.716  0.00  0.00    +0.000 OA
ATOM     41  C   UNL     1      -7.661  41.375  12.855  0.00  0.00    +0.000 C 
ATOM     42  C   UNL     1      -9.085  41.605  12.627  0.00  0.00    +0.000 C 
ATOM     43  C   UNL     1      -7.079  40.191  13.701  0.00  0.00    +0.000 C 
BRANCH  42  44
ATOM     44  C   UNL     1     -10.067  40.579  12.831  0.00  0.00    +0.000 C 
ATOM     45  C   UNL     1     -10.824  40.505  14.133  0.00  0.00    +0.000 C 
BRANCH  44  46
ATOM     46  C   UNL     1     -10.717  40.018  11.699  0.00  0.00    +0.000 C 
ATOM     47  C   UNL     1     -11.258  39.452  10.790  0.00  0.00    +0.000 C 
ATOM     48  C   UNL     1     -11.910  38.604   9.689  0.00  0.00    +0.000 C 
ENDBRANCH  44  46
ENDBRANCH  42  44
ENDBRANCH  39  41
BRANCH  39  49
ATOM     49  O   UNL     1      -7.086  42.047  10.504  0.00  0.00    +0.000 OA
ATOM     50  H   UNL     1      -6.295  42.085   9.932  0.00  0.00    +0.000 HD
ENDBRANCH  39  49
ENDBRANCH   6  39
BRANCH   9  51
ATOM     51  C   UNL     1      -6.581  46.617  11.437  0.00  0.00    +0.000 C 
BRANCH  51  52
ATOM     52  O   UNL     1      -6.719  47.688  10.655  0.00  0.00    +0.000 OA
ATOM     53  H   UNL     1      -7.120  48.426  11.151  0.00  0.00    +0.000 HD
ENDBRANCH  51  52
ENDBRANCH   9  51
TORSDOF 13
ENDMDL
MODEL 7
REMARK VINA RESULT:      -6.9      2.566      6.809
REMARK  Name = 101808841_CandidaspongiolideA.pdbqt.pdb
REMARK  13 active torsions:
REMARK  status: ('A' for Active; 'I' for Inactive)
REMARK    1  A    between atoms: C_6  and  C_39
REMARK    2  A    between atoms: C_9  and  O_27
REMARK    3  A    between atoms: C_9  and  C_51
REMARK    4  A    between atoms: C_10  and  O_29
REMARK    5  A    between atoms: C_14  and  O_31
REMARK    6  A    between atoms: C_15  and  O_33
REMARK    7  A    between atoms: C_20  and  O_35
REMARK    8  A    between atoms: O_35  and  C_37
REMARK    9  A    between atoms: C_39  and  C_41
REMARK   10  A    between atoms: C_39  and  O_49
REMARK   11  A    between atoms: C_42  and  C_44
REMARK   12  A    between atoms: C_44  and  C_46
REMARK   13  A    between atoms: C_51  and  O_52
REMARK                            x       y       z     vdW  Elec       q    Type
REMARK                         _______ _______ _______ _____ _____    ______ ____
ROOT
ATOM      1  O   UNL     1      -5.991  42.057  15.251  0.00  0.00    +0.000 OA
ATOM      2  O   UNL     1      -4.924  44.534  12.087  0.00  0.00    +0.000 OA
ATOM      3  O   UNL     1      -4.400  40.465  14.746  0.00  0.00    +0.000 OA
ATOM      4  O   UNL     1     -11.211  46.154  13.247  0.00  0.00    +0.000 OA
ATOM      5  O   UNL     1      -7.537  43.759  16.925  0.00  0.00    +0.000 OA
ATOM      6  C   UNL     1      -6.354  42.737  12.609  0.00  0.00    +0.000 C 
ATOM      7  C   UNL     1      -6.087  44.170  12.268  0.00  0.00    +0.000 C 
ATOM      8  C   UNL     1      -6.174  42.343  13.964  0.00  0.00    +0.000 C 
ATOM      9  C   UNL     1      -7.320  45.114  12.266  0.00  0.00    +0.000 C 
ATOM     10  C   UNL     1      -7.759  45.422  13.687  0.00  0.00    +0.000 C 
ATOM     11  C   UNL     1      -9.117  45.681  14.036  0.00  0.00    +0.000 C 
ATOM     12  C   UNL     1      -5.007  41.172  15.538  0.00  0.00    +0.000 C 
ATOM     13  C   UNL     1     -10.535  45.928  14.245  0.00  0.00    +0.000 C 
ATOM     14  C   UNL     1      -4.685  41.181  16.984  0.00  0.00    +0.000 C 
ATOM     15  C   UNL     1      -5.423  41.917  17.990  0.00  0.00    +0.000 C 
ATOM     16  C   UNL     1     -11.107  45.903  15.630  0.00  0.00    +0.000 C 
ATOM     17  C   UNL     1      -6.863  41.876  18.212  0.00  0.00    +0.000 C 
ATOM     18  C   UNL     1      -8.620  43.528  19.049  0.00  0.00    +0.000 C 
ATOM     19  C   UNL     1      -7.648  43.128  17.978  0.00  0.00    +0.000 C 
ATOM     20  C   UNL     1      -9.657  44.513  18.735  0.00  0.00    +0.000 C 
ATOM     21  C   UNL     1     -10.292  45.747  16.779  0.00  0.00    +0.000 C 
ATOM     22  C   UNL     1      -9.525  45.620  17.816  0.00  0.00    +0.000 C 
ATOM     23  C   UNL     1     -12.586  46.052  15.917  0.00  0.00    +0.000 C 
ATOM     24  C   UNL     1      -7.602  40.553  18.000  0.00  0.00    +0.000 C 
ATOM     25  C   UNL     1      -8.474  43.001  20.472  0.00  0.00    +0.000 C 
ATOM     26  C   UNL     1      -8.380  46.597  17.906  0.00  0.00    +0.000 C 
ENDROOT
BRANCH   9  27
ATOM     27  O   UNL     1      -8.401  44.470  11.591  0.00  0.00    +0.000 OA
ATOM     28  H   UNL     1      -8.625  43.673  12.105  0.00  0.00    +0.000 HD
ENDBRANCH   9  27
BRANCH  10  29
ATOM     29  O   UNL     1      -6.792  45.481  14.671  0.00  0.00    +0.000 OA
ATOM     30  H   UNL     1      -6.857  44.766  15.332  0.00  0.00    +0.000 HD
ENDBRANCH  10  29
BRANCH  14  31
ATOM     31  O   UNL     1      -3.572  40.485  17.421  0.00  0.00    +0.000 OA
ATOM     32  H   UNL     1      -3.132  40.963  18.156  0.00  0.00    +0.000 HD
ENDBRANCH  14  31
BRANCH  15  33
ATOM     33  O   UNL     1      -4.667  42.278  19.093  0.00  0.00    +0.000 OA
ATOM     34  C   UNL     1      -4.159  43.576  18.932  0.00  0.00    +0.000 C 
ENDBRANCH  15  33
BRANCH  20  35
ATOM     35  O   UNL     1     -10.760  44.648  19.621  0.00  0.00    +0.000 OA
BRANCH  35  37
ATOM     36  O   UNL     1     -12.636  43.833  18.498  0.00  0.00    +0.000 OA
ATOM     37  C   UNL     1     -11.787  43.796  19.367  0.00  0.00    +0.000 C 
ATOM     38  C   UNL     1     -11.915  42.679  20.335  0.00  0.00    +0.000 C 
ENDBRANCH  35  37
ENDBRANCH  20  35
BRANCH   6  39
ATOM     39  C   UNL     1      -6.678  41.781  11.570  0.00  0.00    +0.000 C 
BRANCH  39  41
ATOM     40  O   UNL     1      -8.251  39.780  11.412  0.00  0.00    +0.000 OA
ATOM     41  C   UNL     1      -8.050  41.215  11.430  0.00  0.00    +0.000 C 
ATOM     42  C   UNL     1      -8.501  40.437  12.581  0.00  0.00    +0.000 C 
ATOM     43  C   UNL     1      -9.006  41.862  10.371  0.00  0.00    +0.000 C 
BRANCH  42  44
ATOM     44  C   UNL     1      -9.850  40.500  13.066  0.00  0.00    +0.000 C 
ATOM     45  C   UNL     1     -10.946  39.753  12.349  0.00  0.00    +0.000 C 
BRANCH  44  46
ATOM     46  C   UNL     1     -10.070  40.760  14.446  0.00  0.00    +0.000 C 
ATOM     47  C   UNL     1     -10.357  40.959  15.593  0.00  0.00    +0.000 C 
ATOM     48  C   UNL     1     -10.862  41.213  17.021  0.00  0.00    +0.000 C 
ENDBRANCH  44  46
ENDBRANCH  42  44
ENDBRANCH  39  41
BRANCH  39  49
ATOM     49  O   UNL     1      -5.753  41.700  10.539  0.00  0.00    +0.000 OA
ATOM     50  H   UNL     1      -5.168  40.923  10.622  0.00  0.00    +0.000 HD
ENDBRANCH  39  49
ENDBRANCH   6  39
BRANCH   9  51
ATOM     51  C   UNL     1      -7.007  46.386  11.571  0.00  0.00    +0.000 C 
BRANCH  51  52
ATOM     52  O   UNL     1      -6.710  47.515  10.928  0.00  0.00    +0.000 OA
ATOM     53  H   UNL     1      -6.262  48.143  11.525  0.00  0.00    +0.000 HD
ENDBRANCH  51  52
ENDBRANCH   9  51
TORSDOF 13
ENDMDL
MODEL 8
REMARK VINA RESULT:      -6.8      3.907      6.141
REMARK  Name = 101808841_CandidaspongiolideA.pdbqt.pdb
REMARK  13 active torsions:
REMARK  status: ('A' for Active; 'I' for Inactive)
REMARK    1  A    between atoms: C_6  and  C_39
REMARK    2  A    between atoms: C_9  and  O_27
REMARK    3  A    between atoms: C_9  and  C_51
REMARK    4  A    between atoms: C_10  and  O_29
REMARK    5  A    between atoms: C_14  and  O_31
REMARK    6  A    between atoms: C_15  and  O_33
REMARK    7  A    between atoms: C_20  and  O_35
REMARK    8  A    between atoms: O_35  and  C_37
REMARK    9  A    between atoms: C_39  and  C_41
REMARK   10  A    between atoms: C_39  and  O_49
REMARK   11  A    between atoms: C_42  and  C_44
REMARK   12  A    between atoms: C_44  and  C_46
REMARK   13  A    between atoms: C_51  and  O_52
REMARK                            x       y       z     vdW  Elec       q    Type
REMARK                         _______ _______ _______ _____ _____    ______ ____
ROOT
ATOM      1  O   UNL     1      -5.943  41.575  14.921  0.00  0.00    +0.000 OA
ATOM      2  O   UNL     1      -2.972  40.186  17.476  0.00  0.00    +0.000 OA
ATOM      3  O   UNL     1      -5.063  40.519  13.069  0.00  0.00    +0.000 OA
ATOM      4  O   UNL     1      -5.096  45.681  20.441  0.00  0.00    +0.000 OA
ATOM      5  O   UNL     1      -7.982  42.452  16.700  0.00  0.00    +0.000 OA
ATOM      6  C   UNL     1      -3.463  41.987  16.041  0.00  0.00    +0.000 C 
ATOM      7  C   UNL     1      -3.256  41.382  17.394  0.00  0.00    +0.000 C 
ATOM      8  C   UNL     1      -4.731  41.794  15.424  0.00  0.00    +0.000 C 
ATOM      9  C   UNL     1      -3.517  42.314  18.609  0.00  0.00    +0.000 C 
ATOM     10  C   UNL     1      -5.009  42.522  18.811  0.00  0.00    +0.000 C 
ATOM     11  C   UNL     1      -5.554  43.724  19.350  0.00  0.00    +0.000 C 
ATOM     12  C   UNL     1      -6.001  40.840  13.785  0.00  0.00    +0.000 C 
ATOM     13  C   UNL     1      -5.967  45.000  19.913  0.00  0.00    +0.000 C 
ATOM     14  C   UNL     1      -7.385  40.394  13.507  0.00  0.00    +0.000 C 
ATOM     15  C   UNL     1      -8.554  40.814  14.253  0.00  0.00    +0.000 C 
ATOM     16  C   UNL     1      -7.402  45.427  19.834  0.00  0.00    +0.000 C 
ATOM     17  C   UNL     1      -8.951  42.186  14.544  0.00  0.00    +0.000 C 
ATOM     18  C   UNL     1     -10.186  43.355  16.447  0.00  0.00    +0.000 C 
ATOM     19  C   UNL     1      -8.961  42.628  15.973  0.00  0.00    +0.000 C 
ATOM     20  C   UNL     1     -10.120  44.118  17.696  0.00  0.00    +0.000 C 
ATOM     21  C   UNL     1      -8.414  44.580  19.316  0.00  0.00    +0.000 C 
ATOM     22  C   UNL     1      -9.324  43.782  18.854  0.00  0.00    +0.000 C 
ATOM     23  C   UNL     1      -7.889  46.780  20.307  0.00  0.00    +0.000 C 
ATOM     24  C   UNL     1      -8.684  43.266  13.494  0.00  0.00    +0.000 C 
ATOM     25  C   UNL     1     -11.509  43.224  15.702  0.00  0.00    +0.000 C 
ATOM     26  C   UNL     1      -9.379  42.416  19.488  0.00  0.00    +0.000 C 
ENDROOT
BRANCH   9  27
ATOM     27  O   UNL     1      -2.916  43.586  18.360  0.00  0.00    +0.000 OA
ATOM     28  H   UNL     1      -3.075  44.137  19.148  0.00  0.00    +0.000 HD
ENDBRANCH   9  27
BRANCH  10  29
ATOM     29  O   UNL     1      -5.863  41.488  18.483  0.00  0.00    +0.000 OA
ATOM     30  H   UNL     1      -5.668  40.652  18.948  0.00  0.00    +0.000 HD
ENDBRANCH  10  29
BRANCH  14  31
ATOM     31  O   UNL     1      -7.596  39.470  12.498  0.00  0.00    +0.000 OA
ATOM     32  H   UNL     1      -8.511  39.540  12.151  0.00  0.00    +0.000 HD
ENDBRANCH  14  31
BRANCH  15  33
ATOM     33  O   UNL     1      -9.586  39.891  14.250  0.00  0.00    +0.000 OA
ATOM     34  C   UNL     1     -10.669  40.373  13.500  0.00  0.00    +0.000 C 
ENDBRANCH  15  33
BRANCH  20  35
ATOM     35  O   UNL     1     -11.148  45.059  17.975  0.00  0.00    +0.000 OA
BRANCH  35  37
ATOM     36  O   UNL     1     -10.218  46.791  16.718  0.00  0.00    +0.000 OA
ATOM     37  C   UNL     1     -10.827  46.343  17.671  0.00  0.00    +0.000 C 
ATOM     38  C   UNL     1     -11.242  47.340  18.688  0.00  0.00    +0.000 C 
ENDBRANCH  35  37
ENDBRANCH  20  35
BRANCH   6  39
ATOM     39  C   UNL     1      -2.371  42.649  15.356  0.00  0.00    +0.000 C 
BRANCH  39  41
ATOM     40  O   UNL     1       0.133  43.032  15.061  0.00  0.00    +0.000 OA
ATOM     41  C   UNL     1      -0.960  42.196  15.517  0.00  0.00    +0.000 C 
ATOM     42  C   UNL     1      -0.154  43.039  16.395  0.00  0.00    +0.000 C 
ATOM     43  C   UNL     1      -0.623  40.706  15.167  0.00  0.00    +0.000 C 
BRANCH  42  44
ATOM     44  C   UNL     1       0.805  42.492  17.312  0.00  0.00    +0.000 C 
ATOM     45  C   UNL     1       2.230  42.273  16.873  0.00  0.00    +0.000 C 
BRANCH  44  46
ATOM     46  C   UNL     1       0.602  42.678  18.706  0.00  0.00    +0.000 C 
ATOM     47  C   UNL     1       0.529  42.807  19.896  0.00  0.00    +0.000 C 
ATOM     48  C   UNL     1       0.564  42.904  21.428  0.00  0.00    +0.000 C 
ENDBRANCH  44  46
ENDBRANCH  42  44
ENDBRANCH  39  41
BRANCH  39  49
ATOM     49  O   UNL     1      -2.752  43.473  14.307  0.00  0.00    +0.000 OA
ATOM     50  H   UNL     1      -2.753  43.010  13.447  0.00  0.00    +0.000 HD
ENDBRANCH  39  49
ENDBRANCH   6  39
BRANCH   9  51
ATOM     51  C   UNL     1      -2.938  41.741  19.846  0.00  0.00    +0.000 C 
BRANCH  51  52
ATOM     52  O   UNL     1      -2.441  41.211  20.964  0.00  0.00    +0.000 OA
ATOM     53  H   UNL     1      -1.536  40.879  20.814  0.00  0.00    +0.000 HD
ENDBRANCH  51  52
ENDBRANCH   9  51
TORSDOF 13
ENDMDL
MODEL 9
REMARK VINA RESULT:      -6.8      4.916      7.403
REMARK  Name = 101808841_CandidaspongiolideA.pdbqt.pdb
REMARK  13 active torsions:
REMARK  status: ('A' for Active; 'I' for Inactive)
REMARK    1  A    between atoms: C_6  and  C_39
REMARK    2  A    between atoms: C_9  and  O_27
REMARK    3  A    between atoms: C_9  and  C_51
REMARK    4  A    between atoms: C_10  and  O_29
REMARK    5  A    between atoms: C_14  and  O_31
REMARK    6  A    between atoms: C_15  and  O_33
REMARK    7  A    between atoms: C_20  and  O_35
REMARK    8  A    between atoms: O_35  and  C_37
REMARK    9  A    between atoms: C_39  and  C_41
REMARK   10  A    between atoms: C_39  and  O_49
REMARK   11  A    between atoms: C_42  and  C_44
REMARK   12  A    between atoms: C_44  and  C_46
REMARK   13  A    between atoms: C_51  and  O_52
REMARK                            x       y       z     vdW  Elec       q    Type
REMARK                         _______ _______ _______ _____ _____    ______ ____
ROOT
ATOM      1  O   UNL     1     -13.710  42.869  12.052  0.00  0.00    +0.000 OA
ATOM      2  O   UNL     1     -13.754  39.415   9.738  0.00  0.00    +0.000 OA
ATOM      3  O   UNL     1     -15.537  43.793  10.989  0.00  0.00    +0.000 OA
ATOM      4  O   UNL     1      -7.478  39.852  11.718  0.00  0.00    +0.000 OA
ATOM      5  O   UNL     1     -12.059  42.160  14.258  0.00  0.00    +0.000 OA
ATOM      6  C   UNL     1     -12.851  41.590   9.772  0.00  0.00    +0.000 C 
ATOM      7  C   UNL     1     -12.738  40.101   9.870  0.00  0.00    +0.000 C 
ATOM      8  C   UNL     1     -13.296  42.290  10.928  0.00  0.00    +0.000 C 
ATOM      9  C   UNL     1     -11.335  39.542  10.231  0.00  0.00    +0.000 C 
ATOM     10  C   UNL     1     -11.033  39.769  11.703  0.00  0.00    +0.000 C 
ATOM     11  C   UNL     1      -9.712  39.975  12.196  0.00  0.00    +0.000 C 
ATOM     12  C   UNL     1     -14.898  43.517  11.995  0.00  0.00    +0.000 C 
ATOM     13  C   UNL     1      -8.316  40.168  12.556  0.00  0.00    +0.000 C 
ATOM     14  C   UNL     1     -15.401  43.832  13.352  0.00  0.00    +0.000 C 
ATOM     15  C   UNL     1     -14.658  43.623  14.578  0.00  0.00    +0.000 C 
ATOM     16  C   UNL     1      -7.956  40.727  13.899  0.00  0.00    +0.000 C 
ATOM     17  C   UNL     1     -13.308  44.092  14.864  0.00  0.00    +0.000 C 
ATOM     18  C   UNL     1     -11.352  43.248  16.271  0.00  0.00    +0.000 C 
ATOM     19  C   UNL     1     -12.236  43.068  15.072  0.00  0.00    +0.000 C 
ATOM     20  C   UNL     1     -10.086  42.514  16.337  0.00  0.00    +0.000 C 
ATOM     21  C   UNL     1      -8.932  40.985  14.895  0.00  0.00    +0.000 C 
ATOM     22  C   UNL     1      -9.840  41.198  15.794  0.00  0.00    +0.000 C 
ATOM     23  C   UNL     1      -6.534  41.048  14.308  0.00  0.00    +0.000 C 
ATOM     24  C   UNL     1     -12.865  45.444  14.303  0.00  0.00    +0.000 C 
ATOM     25  C   UNL     1     -11.804  44.099  17.453  0.00  0.00    +0.000 C 
ATOM     26  C   UNL     1     -10.736  40.027  16.108  0.00  0.00    +0.000 C 
ENDROOT
BRANCH   9  27
ATOM     27  O   UNL     1     -10.347  40.225   9.459  0.00  0.00    +0.000 OA
ATOM     28  H   UNL     1      -9.564  39.645   9.420  0.00  0.00    +0.000 HD
ENDBRANCH   9  27
BRANCH  10  29
ATOM     29  O   UNL     1     -12.085  39.744  12.597  0.00  0.00    +0.000 OA
ATOM     30  H   UNL     1     -12.959  39.641  12.176  0.00  0.00    +0.000 HD
ENDBRANCH  10  29
BRANCH  14  31
ATOM     31  O   UNL     1     -16.691  44.314  13.487  0.00  0.00    +0.000 OA
ATOM     32  H   UNL     1     -17.186  44.218  12.646  0.00  0.00    +0.000 HD
ENDBRANCH  14  31
BRANCH  15  33
ATOM     33  O   UNL     1     -15.454  43.406  15.690  0.00  0.00    +0.000 OA
ATOM     34  C   UNL     1     -15.420  44.522  16.539  0.00  0.00    +0.000 C 
ENDBRANCH  15  33
BRANCH  20  35
ATOM     35  O   UNL     1      -9.111  42.921  17.287  0.00  0.00    +0.000 OA
BRANCH  35  37
ATOM     36  O   UNL     1      -9.767  41.882  19.271  0.00  0.00    +0.000 OA
ATOM     37  C   UNL     1      -8.993  42.091  18.356  0.00  0.00    +0.000 C 
ATOM     38  C   UNL     1      -7.698  41.373  18.440  0.00  0.00    +0.000 C 
ENDBRANCH  35  37
ENDBRANCH  20  35
BRANCH   6  39
ATOM     39  C   UNL     1     -12.614  42.265   8.513  0.00  0.00    +0.000 C 
BRANCH  39  41
ATOM     40  O   UNL     1     -15.054  42.778   7.974  0.00  0.00    +0.000 OA
ATOM     41  C   UNL     1     -13.709  42.478   7.524  0.00  0.00    +0.000 C 
ATOM     42  C   UNL     1     -14.286  43.820   7.544  0.00  0.00    +0.000 C 
ATOM     43  C   UNL     1     -13.802  41.493   6.308  0.00  0.00    +0.000 C 
BRANCH  42  44
ATOM     44  C   UNL     1     -14.663  44.508   6.342  0.00  0.00    +0.000 C 
ATOM     45  C   UNL     1     -16.121  44.723   6.021  0.00  0.00    +0.000 C 
BRANCH  44  46
ATOM     46  C   UNL     1     -13.754  45.439   5.772  0.00  0.00    +0.000 C 
ATOM     47  C   UNL     1     -12.925  46.144   5.269  0.00  0.00    +0.000 C 
ATOM     48  C   UNL     1     -11.774  46.933   4.627  0.00  0.00    +0.000 C 
ENDBRANCH  44  46
ENDBRANCH  42  44
ENDBRANCH  39  41
BRANCH  39  49
ATOM     49  O   UNL     1     -11.429  42.983   8.446  0.00  0.00    +0.000 OA
ATOM     50  H   UNL     1     -10.667  42.480   8.795  0.00  0.00    +0.000 HD
ENDBRANCH  39  49
ENDBRANCH   6  39
BRANCH   9  51
ATOM     51  C   UNL     1     -11.257  38.091   9.941  0.00  0.00    +0.000 C 
BRANCH  51  52
ATOM     52  O   UNL     1     -11.159  36.788   9.676  0.00  0.00    +0.000 OA
ATOM     53  H   UNL     1     -10.648  36.640   8.858  0.00  0.00    +0.000 HD
ENDBRANCH  51  52
ENDBRANCH   9  51
TORSDOF 13
ENDMDL
