MODEL 1
REMARK VINA RESULT:      -6.9      0.000      0.000
REMARK  Name = 102471178_CandidaspongiolideCore.pdbqt.pdb
REMARK  13 active torsions:
REMARK  status: ('A' for Active; 'I' for Inactive)
REMARK    1  A    between atoms: C_6  and  C_39
REMARK    2  A    between atoms: C_8  and  O_27
REMARK    3  A    between atoms: C_8  and  C_51
REMARK    4  A    between atoms: C_10  and  O_29
REMARK    5  A    between atoms: C_15  and  O_31
REMARK    6  A    between atoms: C_16  and  O_33
REMARK    7  A    between atoms: C_21  and  O_35
REMARK    8  A    between atoms: O_35  and  C_37
REMARK    9  A    between atoms: C_39  and  C_41
REMARK   10  A    between atoms: C_39  and  O_49
REMARK   11  A    between atoms: C_42  and  C_44
REMARK   12  A    between atoms: C_44  and  C_46
REMARK   13  A    between atoms: C_51  and  O_52
REMARK                            x       y       z     vdW  Elec       q    Type
REMARK                         _______ _______ _______ _____ _____    ______ ____
ROOT
ATOM      1  O   UNL     1      -4.112  41.493  14.569  0.00  0.00    +0.000 OA
ATOM      2  O   UNL     1      -4.437  43.696  15.130  0.00  0.00    +0.000 OA
ATOM      3  O   UNL     1      -6.315  48.250  14.708  0.00  0.00    +0.000 OA
ATOM      4  O   UNL     1      -4.353  40.492  16.578  0.00  0.00    +0.000 OA
ATOM      5  O   UNL     1      -3.363  43.360  18.362  0.00  0.00    +0.000 OA
ATOM      6  C   UNL     1      -5.091  42.865  12.978  0.00  0.00    +0.000 C 
ATOM      7  C   UNL     1      -5.025  44.078  12.237  0.00  0.00    +0.000 C 
ATOM      8  C   UNL     1      -4.922  45.233  11.341  0.00  0.00    +0.000 C 
ATOM      9  C   UNL     1      -4.525  42.758  14.348  0.00  0.00    +0.000 C 
ATOM     10  C   UNL     1      -5.927  46.312  11.681  0.00  0.00    +0.000 C 
ATOM     11  C   UNL     1      -6.252  46.721  13.002  0.00  0.00    +0.000 C 
ATOM     12  C   UNL     1      -6.511  47.085  14.379  0.00  0.00    +0.000 C 
ATOM     13  C   UNL     1      -3.718  41.223  15.827  0.00  0.00    +0.000 C 
ATOM     14  C   UNL     1      -6.959  46.054  15.364  0.00  0.00    +0.000 C 
ATOM     15  C   UNL     1      -2.321  41.592  16.165  0.00  0.00    +0.000 C 
ATOM     16  C   UNL     1      -1.715  42.875  15.874  0.00  0.00    +0.000 C 
ATOM     17  C   UNL     1      -1.754  44.047  16.740  0.00  0.00    +0.000 C 
ATOM     18  C   UNL     1      -6.585  46.178  16.724  0.00  0.00    +0.000 C 
ATOM     19  C   UNL     1      -3.665  45.562  17.530  0.00  0.00    +0.000 C 
ATOM     20  C   UNL     1      -7.554  44.720  14.933  0.00  0.00    +0.000 C 
ATOM     21  C   UNL     1      -4.861  45.735  18.347  0.00  0.00    +0.000 C 
ATOM     22  C   UNL     1      -2.942  44.253  17.624  0.00  0.00    +0.000 C 
ATOM     23  C   UNL     1      -6.136  46.304  17.935  0.00  0.00    +0.000 C 
ATOM     24  C   UNL     1      -0.505  44.885  16.995  0.00  0.00    +0.000 C 
ATOM     25  C   UNL     1      -3.374  46.566  16.423  0.00  0.00    +0.000 C 
ATOM     26  C   UNL     1      -7.038  47.029  18.901  0.00  0.00    +0.000 C 
ENDROOT
BRANCH   8  27
ATOM     27  O   UNL     1      -5.212  44.735  10.033  0.00  0.00    +0.000 OA
ATOM     28  H   UNL     1      -4.358  44.791   9.558  0.00  0.00    +0.000 HD
ENDBRANCH   8  27
BRANCH  10  29
ATOM     29  O   UNL     1      -6.526  46.969  10.618  0.00  0.00    +0.000 OA
ATOM     30  H   UNL     1      -6.017  46.874   9.791  0.00  0.00    +0.000 HD
ENDBRANCH  10  29
BRANCH  15  31
ATOM     31  O   UNL     1      -1.708  40.911  17.205  0.00  0.00    +0.000 OA
ATOM     32  H   UNL     1      -0.775  40.707  16.979  0.00  0.00    +0.000 HD
ENDBRANCH  15  31
BRANCH  16  33
ATOM     33  O   UNL     1      -0.650  42.838  14.992  0.00  0.00    +0.000 OA
ATOM     34  C   UNL     1      -0.604  41.576  14.373  0.00  0.00    +0.000 C 
ENDBRANCH  16  33
BRANCH  21  35
ATOM     35  O   UNL     1      -4.671  45.467  19.727  0.00  0.00    +0.000 OA
BRANCH  35  37
ATOM     36  O   UNL     1      -3.854  47.567  20.358  0.00  0.00    +0.000 OA
ATOM     37  C   UNL     1      -3.825  46.349  20.328  0.00  0.00    +0.000 C 
ATOM     38  C   UNL     1      -2.719  45.720  21.095  0.00  0.00    +0.000 C 
ENDBRANCH  35  37
ENDBRANCH  21  35
BRANCH   6  39
ATOM     39  C   UNL     1      -5.809  41.761  12.385  0.00  0.00    +0.000 C 
BRANCH  39  41
ATOM     40  O   UNL     1      -7.836  40.228  12.598  0.00  0.00    +0.000 OA
ATOM     41  C   UNL     1      -7.249  41.546  12.701  0.00  0.00    +0.000 C 
ATOM     42  C   UNL     1      -7.436  40.647  13.836  0.00  0.00    +0.000 C 
ATOM     43  C   UNL     1      -8.299  42.622  12.249  0.00  0.00    +0.000 C 
BRANCH  42  44
ATOM     44  C   UNL     1      -8.447  40.804  14.837  0.00  0.00    +0.000 C 
ATOM     45  C   UNL     1      -9.836  40.254  14.606  0.00  0.00    +0.000 C 
BRANCH  44  46
ATOM     46  C   UNL     1      -8.093  41.037  16.189  0.00  0.00    +0.000 C 
ATOM     47  C   UNL     1      -7.782  41.281  17.322  0.00  0.00    +0.000 C 
ATOM     48  C   UNL     1      -7.383  41.663  18.753  0.00  0.00    +0.000 C 
ENDBRANCH  44  46
ENDBRANCH  42  44
ENDBRANCH  39  41
BRANCH  39  49
ATOM     49  O   UNL     1      -5.081  40.898  11.583  0.00  0.00    +0.000 OA
ATOM     50  H   UNL     1      -5.412  39.979  11.572  0.00  0.00    +0.000 HD
ENDBRANCH  39  49
ENDBRANCH   6  39
BRANCH   8  51
ATOM     51  C   UNL     1      -3.560  45.792  11.316  0.00  0.00    +0.000 C 
BRANCH  51  52
ATOM     52  O   UNL     1      -2.336  46.316  11.254  0.00  0.00    +0.000 OA
ATOM     53  H   UNL     1      -1.997  46.521  12.149  0.00  0.00    +0.000 HD
ENDBRANCH  51  52
ENDBRANCH   8  51
TORSDOF 13
ENDMDL
MODEL 2
REMARK VINA RESULT:      -6.7      2.944      6.580
REMARK  Name = 102471178_CandidaspongiolideCore.pdbqt.pdb
REMARK  13 active torsions:
REMARK  status: ('A' for Active; 'I' for Inactive)
REMARK    1  A    between atoms: C_6  and  C_39
REMARK    2  A    between atoms: C_8  and  O_27
REMARK    3  A    between atoms: C_8  and  C_51
REMARK    4  A    between atoms: C_10  and  O_29
REMARK    5  A    between atoms: C_15  and  O_31
REMARK    6  A    between atoms: C_16  and  O_33
REMARK    7  A    between atoms: C_21  and  O_35
REMARK    8  A    between atoms: O_35  and  C_37
REMARK    9  A    between atoms: C_39  and  C_41
REMARK   10  A    between atoms: C_39  and  O_49
REMARK   11  A    between atoms: C_42  and  C_44
REMARK   12  A    between atoms: C_44  and  C_46
REMARK   13  A    between atoms: C_51  and  O_52
REMARK                            x       y       z     vdW  Elec       q    Type
REMARK                         _______ _______ _______ _____ _____    ______ ____
ROOT
ATOM      1  O   UNL     1      -5.413  45.282  16.029  0.00  0.00    +0.000 OA
ATOM      2  O   UNL     1      -7.413  44.154  16.083  0.00  0.00    +0.000 OA
ATOM      3  O   UNL     1     -10.435  40.266  15.645  0.00  0.00    +0.000 OA
ATOM      4  O   UNL     1      -5.487  46.392  17.994  0.00  0.00    +0.000 OA
ATOM      5  O   UNL     1      -9.005  46.430  18.082  0.00  0.00    +0.000 OA
ATOM      6  C   UNL     1      -5.498  43.212  14.989  0.00  0.00    +0.000 C 
ATOM      7  C   UNL     1      -6.162  42.364  14.060  0.00  0.00    +0.000 C 
ATOM      8  C   UNL     1      -6.714  41.512  13.003  0.00  0.00    +0.000 C 
ATOM      9  C   UNL     1      -6.234  44.245  15.765  0.00  0.00    +0.000 C 
ATOM     10  C   UNL     1      -7.481  40.333  13.562  0.00  0.00    +0.000 C 
ATOM     11  C   UNL     1      -8.365  40.402  14.672  0.00  0.00    +0.000 C 
ATOM     12  C   UNL     1      -9.256  40.566  15.801  0.00  0.00    +0.000 C 
ATOM     13  C   UNL     1      -5.911  46.219  16.857  0.00  0.00    +0.000 C 
ATOM     14  C   UNL     1      -8.751  41.126  17.091  0.00  0.00    +0.000 C 
ATOM     15  C   UNL     1      -6.780  47.245  16.231  0.00  0.00    +0.000 C 
ATOM     16  C   UNL     1      -7.876  46.956  15.328  0.00  0.00    +0.000 C 
ATOM     17  C   UNL     1      -9.251  46.684  15.723  0.00  0.00    +0.000 C 
ATOM     18  C   UNL     1      -9.618  41.891  17.908  0.00  0.00    +0.000 C 
ATOM     19  C   UNL     1     -10.337  44.768  17.035  0.00  0.00    +0.000 C 
ATOM     20  C   UNL     1      -7.269  41.163  17.437  0.00  0.00    +0.000 C 
ATOM     21  C   UNL     1     -10.532  44.084  18.309  0.00  0.00    +0.000 C 
ATOM     22  C   UNL     1      -9.508  46.016  17.036  0.00  0.00    +0.000 C 
ATOM     23  C   UNL     1     -10.436  42.654  18.566  0.00  0.00    +0.000 C 
ATOM     24  C   UNL     1     -10.427  47.329  14.995  0.00  0.00    +0.000 C 
ATOM     25  C   UNL     1     -10.717  44.052  15.746  0.00  0.00    +0.000 C 
ATOM     26  C   UNL     1     -11.243  41.979  19.645  0.00  0.00    +0.000 C 
ENDROOT
BRANCH   8  27
ATOM     27  O   UNL     1      -5.587  41.019  12.275  0.00  0.00    +0.000 OA
ATOM     28  H   UNL     1      -4.934  41.746  12.318  0.00  0.00    +0.000 HD
ENDBRANCH   8  27
BRANCH  10  29
ATOM     29  O   UNL     1      -7.339  39.122  12.902  0.00  0.00    +0.000 OA
ATOM     30  H   UNL     1      -8.188  38.650  12.812  0.00  0.00    +0.000 HD
ENDBRANCH  10  29
BRANCH  15  31
ATOM     31  O   UNL     1      -6.896  48.470  16.871  0.00  0.00    +0.000 OA
ATOM     32  H   UNL     1      -7.119  48.342  17.818  0.00  0.00    +0.000 HD
ENDBRANCH  15  31
BRANCH  16  33
ATOM     33  O   UNL     1      -7.725  47.446  14.043  0.00  0.00    +0.000 OA
ATOM     34  C   UNL     1      -7.351  46.395  13.186  0.00  0.00    +0.000 C 
ENDBRANCH  16  33
BRANCH  21  35
ATOM     35  O   UNL     1     -11.031  44.911  19.347  0.00  0.00    +0.000 OA
BRANCH  35  37
ATOM     36  O   UNL     1     -13.307  44.721  18.843  0.00  0.00    +0.000 OA
ATOM     37  C   UNL     1     -12.299  45.348  19.115  0.00  0.00    +0.000 C 
ATOM     38  C   UNL     1     -12.481  46.817  19.251  0.00  0.00    +0.000 C 
ENDBRANCH  35  37
ENDBRANCH  21  35
BRANCH   6  39
ATOM     39  C   UNL     1      -4.091  42.975  15.220  0.00  0.00    +0.000 C 
BRANCH  39  41
ATOM     40  O   UNL     1      -2.409  42.496  17.076  0.00  0.00    +0.000 OA
ATOM     41  C   UNL     1      -3.648  42.180  16.399  0.00  0.00    +0.000 C 
ATOM     42  C   UNL     1      -3.565  42.991  17.611  0.00  0.00    +0.000 C 
ATOM     43  C   UNL     1      -3.859  40.624  16.394  0.00  0.00    +0.000 C 
BRANCH  42  44
ATOM     44  C   UNL     1      -3.934  42.535  18.917  0.00  0.00    +0.000 C 
ATOM     45  C   UNL     1      -2.890  41.952  19.841  0.00  0.00    +0.000 C 
BRANCH  44  46
ATOM     46  C   UNL     1      -5.111  43.018  19.543  0.00  0.00    +0.000 C 
ATOM     47  C   UNL     1      -6.132  43.415  20.031  0.00  0.00    +0.000 C 
ATOM     48  C   UNL     1      -7.474  43.891  20.602  0.00  0.00    +0.000 C 
ENDBRANCH  44  46
ENDBRANCH  42  44
ENDBRANCH  39  41
BRANCH  39  49
ATOM     49  O   UNL     1      -3.202  43.574  14.342  0.00  0.00    +0.000 OA
ATOM     50  H   UNL     1      -3.224  43.212  13.436  0.00  0.00    +0.000 HD
ENDBRANCH  39  49
ENDBRANCH   6  39
BRANCH   8  51
ATOM     51  C   UNL     1      -7.555  42.272  12.064  0.00  0.00    +0.000 C 
BRANCH  51  52
ATOM     52  O   UNL     1      -8.325  42.991  11.246  0.00  0.00    +0.000 OA
ATOM     53  H   UNL     1      -7.836  43.242  10.437  0.00  0.00    +0.000 HD
ENDBRANCH  51  52
ENDBRANCH   8  51
TORSDOF 13
ENDMDL
MODEL 3
REMARK VINA RESULT:      -6.7      1.834      2.535
REMARK  Name = 102471178_CandidaspongiolideCore.pdbqt.pdb
REMARK  13 active torsions:
REMARK  status: ('A' for Active; 'I' for Inactive)
REMARK    1  A    between atoms: C_6  and  C_39
REMARK    2  A    between atoms: C_8  and  O_27
REMARK    3  A    between atoms: C_8  and  C_51
REMARK    4  A    between atoms: C_10  and  O_29
REMARK    5  A    between atoms: C_15  and  O_31
REMARK    6  A    between atoms: C_16  and  O_33
REMARK    7  A    between atoms: C_21  and  O_35
REMARK    8  A    between atoms: O_35  and  C_37
REMARK    9  A    between atoms: C_39  and  C_41
REMARK   10  A    between atoms: C_39  and  O_49
REMARK   11  A    between atoms: C_42  and  C_44
REMARK   12  A    between atoms: C_44  and  C_46
REMARK   13  A    between atoms: C_51  and  O_52
REMARK                            x       y       z     vdW  Elec       q    Type
REMARK                         _______ _______ _______ _____ _____    ______ ____
ROOT
ATOM      1  O   UNL     1      -4.638  41.543  15.532  0.00  0.00    +0.000 OA
ATOM      2  O   UNL     1      -3.960  43.698  15.946  0.00  0.00    +0.000 OA
ATOM      3  O   UNL     1      -4.314  48.629  15.992  0.00  0.00    +0.000 OA
ATOM      4  O   UNL     1      -4.170  40.554  17.507  0.00  0.00    +0.000 OA
ATOM      5  O   UNL     1      -1.619  42.848  18.292  0.00  0.00    +0.000 OA
ATOM      6  C   UNL     1      -5.792  43.247  14.465  0.00  0.00    +0.000 C 
ATOM      7  C   UNL     1      -5.726  44.417  13.659  0.00  0.00    +0.000 C 
ATOM      8  C   UNL     1      -5.722  45.530  12.706  0.00  0.00    +0.000 C 
ATOM      9  C   UNL     1      -4.698  42.884  15.404  0.00  0.00    +0.000 C 
ATOM     10  C   UNL     1      -6.053  46.850  13.368  0.00  0.00    +0.000 C 
ATOM     11  C   UNL     1      -5.555  47.263  14.632  0.00  0.00    +0.000 C 
ATOM     12  C   UNL     1      -4.990  47.609  15.920  0.00  0.00    +0.000 C 
ATOM     13  C   UNL     1      -3.789  41.088  16.473  0.00  0.00    +0.000 C 
ATOM     14  C   UNL     1      -5.196  46.717  17.102  0.00  0.00    +0.000 C 
ATOM     15  C   UNL     1      -2.367  40.973  16.064  0.00  0.00    +0.000 C 
ATOM     16  C   UNL     1      -1.619  42.012  15.387  0.00  0.00    +0.000 C 
ATOM     17  C   UNL     1      -0.875  43.082  16.038  0.00  0.00    +0.000 C 
ATOM     18  C   UNL     1      -4.194  46.635  18.099  0.00  0.00    +0.000 C 
ATOM     19  C   UNL     1      -1.597  45.077  17.477  0.00  0.00    +0.000 C 
ATOM     20  C   UNL     1      -6.299  45.669  17.149  0.00  0.00    +0.000 C 
ATOM     21  C   UNL     1      -2.129  45.573  18.742  0.00  0.00    +0.000 C 
ATOM     22  C   UNL     1      -1.358  43.603  17.353  0.00  0.00    +0.000 C 
ATOM     23  C   UNL     1      -3.201  46.540  18.929  0.00  0.00    +0.000 C 
ATOM     24  C   UNL     1       0.529  43.464  15.578  0.00  0.00    +0.000 C 
ATOM     25  C   UNL     1      -1.587  46.000  16.266  0.00  0.00    +0.000 C 
ATOM     26  C   UNL     1      -3.251  47.456  20.125  0.00  0.00    +0.000 C 
ENDROOT
BRANCH   8  27
ATOM     27  O   UNL     1      -6.745  45.229  11.754  0.00  0.00    +0.000 OA
ATOM     28  H   UNL     1      -6.275  45.198  10.896  0.00  0.00    +0.000 HD
ENDBRANCH   8  27
BRANCH  10  29
ATOM     29  O   UNL     1      -6.857  47.726  12.655  0.00  0.00    +0.000 OA
ATOM     30  H   UNL     1      -6.609  48.657  12.802  0.00  0.00    +0.000 HD
ENDBRANCH  10  29
BRANCH  15  31
ATOM     31  O   UNL     1      -1.569  40.073  16.752  0.00  0.00    +0.000 OA
ATOM     32  H   UNL     1      -0.657  40.078  16.392  0.00  0.00    +0.000 HD
ENDBRANCH  15  31
BRANCH  16  33
ATOM     33  O   UNL     1      -1.184  41.691  14.114  0.00  0.00    +0.000 OA
ATOM     34  C   UNL     1      -2.081  40.776  13.533  0.00  0.00    +0.000 C 
ENDBRANCH  16  33
BRANCH  21  35
ATOM     35  O   UNL     1      -1.387  45.177  19.884  0.00  0.00    +0.000 OA
BRANCH  35  37
ATOM     36  O   UNL     1       0.239  46.856  19.816  0.00  0.00    +0.000 OA
ATOM     37  C   UNL     1      -0.130  45.700  19.909  0.00  0.00    +0.000 C 
ATOM     38  C   UNL     1       0.950  44.701  20.119  0.00  0.00    +0.000 C 
ENDBRANCH  35  37
ENDBRANCH  21  35
BRANCH   6  39
ATOM     39  C   UNL     1      -7.005  42.464  14.405  0.00  0.00    +0.000 C 
BRANCH  39  41
ATOM     40  O   UNL     1      -8.865  41.502  15.861  0.00  0.00    +0.000 OA
ATOM     41  C   UNL     1      -8.055  42.628  15.449  0.00  0.00    +0.000 C 
ATOM     42  C   UNL     1      -7.784  41.821  16.635  0.00  0.00    +0.000 C 
ATOM     43  C   UNL     1      -8.933  43.931  15.452  0.00  0.00    +0.000 C 
BRANCH  42  44
ATOM     44  C   UNL     1      -8.039  42.244  17.979  0.00  0.00    +0.000 C 
ATOM     45  C   UNL     1      -9.330  41.860  18.664  0.00  0.00    +0.000 C 
BRANCH  44  46
ATOM     46  C   UNL     1      -6.968  42.605  18.835  0.00  0.00    +0.000 C 
ATOM     47  C   UNL     1      -6.036  42.874  19.540  0.00  0.00    +0.000 C 
ATOM     48  C   UNL     1      -4.803  43.172  20.403  0.00  0.00    +0.000 C 
ENDBRANCH  44  46
ENDBRANCH  42  44
ENDBRANCH  39  41
BRANCH  39  49
ATOM     49  O   UNL     1      -7.099  41.530  13.387  0.00  0.00    +0.000 OA
ATOM     50  H   UNL     1      -7.833  41.685  12.762  0.00  0.00    +0.000 HD
ENDBRANCH  39  49
ENDBRANCH   6  39
BRANCH   8  51
ATOM     51  C   UNL     1      -4.447  45.628  11.977  0.00  0.00    +0.000 C 
BRANCH  51  52
ATOM     52  O   UNL     1      -3.284  45.673  11.325  0.00  0.00    +0.000 OA
ATOM     53  H   UNL     1      -2.697  44.943  11.606  0.00  0.00    +0.000 HD
ENDBRANCH  51  52
ENDBRANCH   8  51
TORSDOF 13
ENDMDL
MODEL 4
REMARK VINA RESULT:      -6.7      2.927      7.526
REMARK  Name = 102471178_CandidaspongiolideCore.pdbqt.pdb
REMARK  13 active torsions:
REMARK  status: ('A' for Active; 'I' for Inactive)
REMARK    1  A    between atoms: C_6  and  C_39
REMARK    2  A    between atoms: C_8  and  O_27
REMARK    3  A    between atoms: C_8  and  C_51
REMARK    4  A    between atoms: C_10  and  O_29
REMARK    5  A    between atoms: C_15  and  O_31
REMARK    6  A    between atoms: C_16  and  O_33
REMARK    7  A    between atoms: C_21  and  O_35
REMARK    8  A    between atoms: O_35  and  C_37
REMARK    9  A    between atoms: C_39  and  C_41
REMARK   10  A    between atoms: C_39  and  O_49
REMARK   11  A    between atoms: C_42  and  C_44
REMARK   12  A    between atoms: C_44  and  C_46
REMARK   13  A    between atoms: C_51  and  O_52
REMARK                            x       y       z     vdW  Elec       q    Type
REMARK                         _______ _______ _______ _____ _____    ______ ____
ROOT
ATOM      1  O   UNL     1      -6.766  41.584  16.598  0.00  0.00    +0.000 OA
ATOM      2  O   UNL     1      -8.287  41.801  14.890  0.00  0.00    +0.000 OA
ATOM      3  O   UNL     1      -9.824  42.061  10.199  0.00  0.00    +0.000 OA
ATOM      4  O   UNL     1      -7.799  40.062  17.908  0.00  0.00    +0.000 OA
ATOM      5  O   UNL     1     -11.011  40.962  16.783  0.00  0.00    +0.000 OA
ATOM      6  C   UNL     1      -5.936  42.049  14.484  0.00  0.00    +0.000 C 
ATOM      7  C   UNL     1      -5.991  42.880  13.331  0.00  0.00    +0.000 C 
ATOM      8  C   UNL     1      -5.901  43.797  12.192  0.00  0.00    +0.000 C 
ATOM      9  C   UNL     1      -7.140  41.793  15.319  0.00  0.00    +0.000 C 
ATOM     10  C   UNL     1      -6.468  43.194  10.926  0.00  0.00    +0.000 C 
ATOM     11  C   UNL     1      -7.662  42.426  10.866  0.00  0.00    +0.000 C 
ATOM     12  C   UNL     1      -8.894  41.667  10.894  0.00  0.00    +0.000 C 
ATOM     13  C   UNL     1      -7.748  41.189  17.430  0.00  0.00    +0.000 C 
ATOM     14  C   UNL     1      -9.028  40.472  11.782  0.00  0.00    +0.000 C 
ATOM     15  C   UNL     1      -8.592  42.270  17.999  0.00  0.00    +0.000 C 
ATOM     16  C   UNL     1      -9.193  43.336  17.226  0.00  0.00    +0.000 C 
ATOM     17  C   UNL     1     -10.496  43.281  16.575  0.00  0.00    +0.000 C 
ATOM     18  C   UNL     1     -10.293  40.146  12.330  0.00  0.00    +0.000 C 
ATOM     19  C   UNL     1     -11.411  41.881  14.632  0.00  0.00    +0.000 C 
ATOM     20  C   UNL     1      -7.821  39.750  12.364  0.00  0.00    +0.000 C 
ATOM     21  C   UNL     1     -11.838  40.581  14.127  0.00  0.00    +0.000 C 
ATOM     22  C   UNL     1     -10.996  41.966  16.069  0.00  0.00    +0.000 C 
ATOM     23  C   UNL     1     -11.458  39.955  12.868  0.00  0.00    +0.000 C 
ATOM     24  C   UNL     1     -11.479  44.444  16.670  0.00  0.00    +0.000 C 
ATOM     25  C   UNL     1     -11.122  43.001  13.642  0.00  0.00    +0.000 C 
ATOM     26  C   UNL     1     -12.374  39.007  12.138  0.00  0.00    +0.000 C 
ENDROOT
BRANCH   8  27
ATOM     27  O   UNL     1      -4.505  44.037  11.997  0.00  0.00    +0.000 OA
ATOM     28  H   UNL     1      -4.206  44.424  12.844  0.00  0.00    +0.000 HD
ENDBRANCH   8  27
BRANCH  10  29
ATOM     29  O   UNL     1      -5.793  43.461   9.745  0.00  0.00    +0.000 OA
ATOM     30  H   UNL     1      -5.798  42.699   9.136  0.00  0.00    +0.000 HD
ENDBRANCH  10  29
BRANCH  15  31
ATOM     31  O   UNL     1      -9.241  42.017  19.197  0.00  0.00    +0.000 OA
ATOM     32  H   UNL     1      -9.677  41.139  19.172  0.00  0.00    +0.000 HD
ENDBRANCH  15  31
BRANCH  16  33
ATOM     33  O   UNL     1      -8.750  44.610  17.534  0.00  0.00    +0.000 OA
ATOM     34  C   UNL     1      -7.765  44.996  16.607  0.00  0.00    +0.000 C 
ENDBRANCH  16  33
BRANCH  21  35
ATOM     35  O   UNL     1     -12.863  39.965  14.889  0.00  0.00    +0.000 OA
BRANCH  35  37
ATOM     36  O   UNL     1     -14.458  41.576  14.312  0.00  0.00    +0.000 OA
ATOM     37  C   UNL     1     -14.103  40.446  14.600  0.00  0.00    +0.000 C 
ATOM     38  C   UNL     1     -15.180  39.422  14.601  0.00  0.00    +0.000 C 
ENDBRANCH  35  37
ENDBRANCH  21  35
BRANCH   6  39
ATOM     39  C   UNL     1      -4.684  41.386  14.769  0.00  0.00    +0.000 C 
BRANCH  39  41
ATOM     40  O   UNL     1      -2.233  41.991  15.133  0.00  0.00    +0.000 OA
ATOM     41  C   UNL     1      -3.619  42.093  15.534  0.00  0.00    +0.000 C 
ATOM     42  C   UNL     1      -2.929  43.094  14.726  0.00  0.00    +0.000 C 
ATOM     43  C   UNL     1      -3.706  42.136  17.102  0.00  0.00    +0.000 C 
BRANCH  42  44
ATOM     44  C   UNL     1      -2.490  44.367  15.212  0.00  0.00    +0.000 C 
ATOM     45  C   UNL     1      -1.020  44.714  15.212  0.00  0.00    +0.000 C 
BRANCH  44  46
ATOM     46  C   UNL     1      -3.384  45.466  15.263  0.00  0.00    +0.000 C 
ATOM     47  C   UNL     1      -4.142  46.391  15.354  0.00  0.00    +0.000 C 
ATOM     48  C   UNL     1      -5.100  47.574  15.542  0.00  0.00    +0.000 C 
ENDBRANCH  44  46
ENDBRANCH  42  44
ENDBRANCH  39  41
BRANCH  39  49
ATOM     49  O   UNL     1      -4.511  40.118  14.240  0.00  0.00    +0.000 OA
ATOM     50  H   UNL     1      -4.491  39.403  14.905  0.00  0.00    +0.000 HD
ENDBRANCH  39  49
ENDBRANCH   6  39
BRANCH   8  51
ATOM     51  C   UNL     1      -6.542  45.092  12.474  0.00  0.00    +0.000 C 
BRANCH  51  52
ATOM     52  O   UNL     1      -7.119  46.257  12.773  0.00  0.00    +0.000 OA
ATOM     53  H   UNL     1      -7.750  46.155  13.514  0.00  0.00    +0.000 HD
ENDBRANCH  51  52
ENDBRANCH   8  51
TORSDOF 13
ENDMDL
MODEL 5
REMARK VINA RESULT:      -6.6      3.027      6.929
REMARK  Name = 102471178_CandidaspongiolideCore.pdbqt.pdb
REMARK  13 active torsions:
REMARK  status: ('A' for Active; 'I' for Inactive)
REMARK    1  A    between atoms: C_6  and  C_39
REMARK    2  A    between atoms: C_8  and  O_27
REMARK    3  A    between atoms: C_8  and  C_51
REMARK    4  A    between atoms: C_10  and  O_29
REMARK    5  A    between atoms: C_15  and  O_31
REMARK    6  A    between atoms: C_16  and  O_33
REMARK    7  A    between atoms: C_21  and  O_35
REMARK    8  A    between atoms: O_35  and  C_37
REMARK    9  A    between atoms: C_39  and  C_41
REMARK   10  A    between atoms: C_39  and  O_49
REMARK   11  A    between atoms: C_42  and  C_44
REMARK   12  A    between atoms: C_44  and  C_46
REMARK   13  A    between atoms: C_51  and  O_52
REMARK                            x       y       z     vdW  Elec       q    Type
REMARK                         _______ _______ _______ _____ _____    ______ ____
ROOT
ATOM      1  O   UNL     1      -5.887  45.459  14.534  0.00  0.00    +0.000 OA
ATOM      2  O   UNL     1      -7.759  44.172  14.871  0.00  0.00    +0.000 OA
ATOM      3  O   UNL     1     -10.409  40.006  15.114  0.00  0.00    +0.000 OA
ATOM      4  O   UNL     1      -5.936  46.786  16.361  0.00  0.00    +0.000 OA
ATOM      5  O   UNL     1      -9.428  46.520  16.719  0.00  0.00    +0.000 OA
ATOM      6  C   UNL     1      -5.839  43.280  13.745  0.00  0.00    +0.000 C 
ATOM      7  C   UNL     1      -6.477  42.271  12.972  0.00  0.00    +0.000 C 
ATOM      8  C   UNL     1      -7.014  41.253  12.065  0.00  0.00    +0.000 C 
ATOM      9  C   UNL     1      -6.618  44.329  14.454  0.00  0.00    +0.000 C 
ATOM     10  C   UNL     1      -7.622  40.086  12.811  0.00  0.00    +0.000 C 
ATOM     11  C   UNL     1      -8.432  40.208  13.972  0.00  0.00    +0.000 C 
ATOM     12  C   UNL     1      -9.257  40.425  15.142  0.00  0.00    +0.000 C 
ATOM     13  C   UNL     1      -6.417  46.440  15.288  0.00  0.00    +0.000 C 
ATOM     14  C   UNL     1      -8.723  41.179  16.317  0.00  0.00    +0.000 C 
ATOM     15  C   UNL     1      -7.423  47.303  14.619  0.00  0.00    +0.000 C 
ATOM     16  C   UNL     1      -8.543  46.811  13.843  0.00  0.00    +0.000 C 
ATOM     17  C   UNL     1      -9.856  46.466  14.373  0.00  0.00    +0.000 C 
ATOM     18  C   UNL     1      -9.604  41.956  17.108  0.00  0.00    +0.000 C 
ATOM     19  C   UNL     1     -10.658  44.632  15.974  0.00  0.00    +0.000 C 
ATOM     20  C   UNL     1      -7.232  41.390  16.540  0.00  0.00    +0.000 C 
ATOM     21  C   UNL     1     -10.699  44.091  17.328  0.00  0.00    +0.000 C 
ATOM     22  C   UNL     1      -9.957  45.940  15.769  0.00  0.00    +0.000 C 
ATOM     23  C   UNL     1     -10.447  42.716  17.737  0.00  0.00    +0.000 C 
ATOM     24  C   UNL     1     -11.135  46.912  13.671  0.00  0.00    +0.000 C 
ATOM     25  C   UNL     1     -11.052  43.736  14.808  0.00  0.00    +0.000 C 
ATOM     26  C   UNL     1     -11.110  42.107  18.945  0.00  0.00    +0.000 C 
ENDROOT
BRANCH   8  27
ATOM     27  O   UNL     1      -5.895  40.778  11.311  0.00  0.00    +0.000 OA
ATOM     28  H   UNL     1      -5.799  41.429  10.587  0.00  0.00    +0.000 HD
ENDBRANCH   8  27
BRANCH  10  29
ATOM     29  O   UNL     1      -7.408  38.822  12.284  0.00  0.00    +0.000 OA
ATOM     30  H   UNL     1      -7.421  38.822  11.308  0.00  0.00    +0.000 HD
ENDBRANCH  10  29
BRANCH  15  31
ATOM     31  O   UNL     1      -7.615  48.580  15.124  0.00  0.00    +0.000 OA
ATOM     32  H   UNL     1      -6.778  48.929  15.499  0.00  0.00    +0.000 HD
ENDBRANCH  15  31
BRANCH  16  33
ATOM     33  O   UNL     1      -8.528  47.154  12.503  0.00  0.00    +0.000 OA
ATOM     34  C   UNL     1      -7.829  46.171  11.780  0.00  0.00    +0.000 C 
ENDBRANCH  16  33
BRANCH  21  35
ATOM     35  O   UNL     1     -11.206  44.988  18.303  0.00  0.00    +0.000 OA
BRANCH  35  37
ATOM     36  O   UNL     1     -13.488  44.554  18.032  0.00  0.00    +0.000 OA
ATOM     37  C   UNL     1     -12.520  45.289  18.115  0.00  0.00    +0.000 C 
ATOM     38  C   UNL     1     -12.816  46.743  18.037  0.00  0.00    +0.000 C 
ENDBRANCH  35  37
ENDBRANCH  21  35
BRANCH   6  39
ATOM     39  C   UNL     1      -4.403  43.199  13.890  0.00  0.00    +0.000 C 
BRANCH  39  41
ATOM     40  O   UNL     1      -4.079  40.725  14.414  0.00  0.00    +0.000 OA
ATOM     41  C   UNL     1      -3.793  42.113  14.705  0.00  0.00    +0.000 C 
ATOM     42  C   UNL     1      -2.922  41.250  13.911  0.00  0.00    +0.000 C 
ATOM     43  C   UNL     1      -3.662  42.305  16.258  0.00  0.00    +0.000 C 
BRANCH  42  44
ATOM     44  C   UNL     1      -1.689  40.693  14.378  0.00  0.00    +0.000 C 
ATOM     45  C   UNL     1      -0.496  41.588  14.622  0.00  0.00    +0.000 C 
BRANCH  44  46
ATOM     46  C   UNL     1      -1.670  39.443  15.047  0.00  0.00    +0.000 C 
ATOM     47  C   UNL     1      -1.702  38.381  15.602  0.00  0.00    +0.000 C 
ATOM     48  C   UNL     1      -1.808  37.010  16.283  0.00  0.00    +0.000 C 
ENDBRANCH  44  46
ENDBRANCH  42  44
ENDBRANCH  39  41
BRANCH  39  49
ATOM     49  O   UNL     1      -3.656  44.205  13.300  0.00  0.00    +0.000 OA
ATOM     50  H   UNL     1      -3.862  44.362  12.358  0.00  0.00    +0.000 HD
ENDBRANCH  39  49
ENDBRANCH   6  39
BRANCH   8  51
ATOM     51  C   UNL     1      -7.986  41.817  11.115  0.00  0.00    +0.000 C 
BRANCH  51  52
ATOM     52  O   UNL     1      -8.896  42.333  10.288  0.00  0.00    +0.000 OA
ATOM     53  H   UNL     1      -9.420  41.627   9.859  0.00  0.00    +0.000 HD
ENDBRANCH  51  52
ENDBRANCH   8  51
TORSDOF 13
ENDMDL
MODEL 6
REMARK VINA RESULT:      -6.5      2.576      6.328
REMARK  Name = 102471178_CandidaspongiolideCore.pdbqt.pdb
REMARK  13 active torsions:
REMARK  status: ('A' for Active; 'I' for Inactive)
REMARK    1  A    between atoms: C_6  and  C_39
REMARK    2  A    between atoms: C_8  and  O_27
REMARK    3  A    between atoms: C_8  and  C_51
REMARK    4  A    between atoms: C_10  and  O_29
REMARK    5  A    between atoms: C_15  and  O_31
REMARK    6  A    between atoms: C_16  and  O_33
REMARK    7  A    between atoms: C_21  and  O_35
REMARK    8  A    between atoms: O_35  and  C_37
REMARK    9  A    between atoms: C_39  and  C_41
REMARK   10  A    between atoms: C_39  and  O_49
REMARK   11  A    between atoms: C_42  and  C_44
REMARK   12  A    between atoms: C_44  and  C_46
REMARK   13  A    between atoms: C_51  and  O_52
REMARK                            x       y       z     vdW  Elec       q    Type
REMARK                         _______ _______ _______ _____ _____    ______ ____
ROOT
ATOM      1  O   UNL     1      -4.397  45.026  16.110  0.00  0.00    +0.000 OA
ATOM      2  O   UNL     1      -6.551  44.230  16.169  0.00  0.00    +0.000 OA
ATOM      3  O   UNL     1     -10.157  40.880  15.710  0.00  0.00    +0.000 OA
ATOM      4  O   UNL     1      -4.278  46.105  18.090  0.00  0.00    +0.000 OA
ATOM      5  O   UNL     1      -7.744  46.701  18.214  0.00  0.00    +0.000 OA
ATOM      6  C   UNL     1      -4.819  43.011  15.045  0.00  0.00    +0.000 C 
ATOM      7  C   UNL     1      -5.616  42.293  14.111  0.00  0.00    +0.000 C 
ATOM      8  C   UNL     1      -6.305  41.555  13.049  0.00  0.00    +0.000 C 
ATOM      9  C   UNL     1      -5.374  44.137  15.841  0.00  0.00    +0.000 C 
ATOM     10  C   UNL     1      -7.246  40.506  13.599  0.00  0.00    +0.000 C 
ATOM     11  C   UNL     1      -8.098  40.699  14.719  0.00  0.00    +0.000 C 
ATOM     12  C   UNL     1      -8.944  40.985  15.858  0.00  0.00    +0.000 C 
ATOM     13  C   UNL     1      -4.733  46.018  16.956  0.00  0.00    +0.000 C 
ATOM     14  C   UNL     1      -8.346  41.439  17.151  0.00  0.00    +0.000 C 
ATOM     15  C   UNL     1      -5.432  47.179  16.351  0.00  0.00    +0.000 C 
ATOM     16  C   UNL     1      -6.566  47.081  15.456  0.00  0.00    +0.000 C 
ATOM     17  C   UNL     1      -7.965  47.025  15.861  0.00  0.00    +0.000 C 
ATOM     18  C   UNL     1      -9.074  42.321  17.987  0.00  0.00    +0.000 C 
ATOM     19  C   UNL     1      -9.332  45.288  17.158  0.00  0.00    +0.000 C 
ATOM     20  C   UNL     1      -6.875  41.235  17.483  0.00  0.00    +0.000 C 
ATOM     21  C   UNL     1      -9.624  44.625  18.425  0.00  0.00    +0.000 C 
ATOM     22  C   UNL     1      -8.314  46.388  17.167  0.00  0.00    +0.000 C 
ATOM     23  C   UNL     1      -9.755  43.195  18.662  0.00  0.00    +0.000 C 
ATOM     24  C   UNL     1      -9.028  47.860  15.153  0.00  0.00    +0.000 C 
ATOM     25  C   UNL     1      -9.831  44.661  15.863  0.00  0.00    +0.000 C 
ATOM     26  C   UNL     1     -10.651  42.642  19.740  0.00  0.00    +0.000 C 
ENDROOT
BRANCH   8  27
ATOM     27  O   UNL     1      -5.276  40.899  12.303  0.00  0.00    +0.000 OA
ATOM     28  H   UNL     1      -5.761  40.328  11.674  0.00  0.00    +0.000 HD
ENDBRANCH   8  27
BRANCH  10  29
ATOM     29  O   UNL     1      -7.304  39.297  12.922  0.00  0.00    +0.000 OA
ATOM     30  H   UNL     1      -6.417  38.949  12.713  0.00  0.00    +0.000 HD
ENDBRANCH  10  29
BRANCH  15  31
ATOM     31  O   UNL     1      -5.347  48.397  17.008  0.00  0.00    +0.000 OA
ATOM     32  H   UNL     1      -6.190  48.891  16.924  0.00  0.00    +0.000 HD
ENDBRANCH  15  31
BRANCH  16  33
ATOM     33  O   UNL     1      -6.349  47.559  14.176  0.00  0.00    +0.000 OA
ATOM     34  C   UNL     1      -6.090  46.478  13.314  0.00  0.00    +0.000 C 
ENDBRANCH  16  33
BRANCH  21  35
ATOM     35  O   UNL     1      -9.977  45.506  19.479  0.00  0.00    +0.000 OA
BRANCH  35  37
ATOM     36  O   UNL     1     -12.259  45.707  19.006  0.00  0.00    +0.000 OA
ATOM     37  C   UNL     1     -11.154  46.153  19.258  0.00  0.00    +0.000 C 
ATOM     38  C   UNL     1     -11.079  47.632  19.381  0.00  0.00    +0.000 C 
ENDBRANCH  35  37
ENDBRANCH  21  35
BRANCH   6  39
ATOM     39  C   UNL     1      -3.466  42.550  15.259  0.00  0.00    +0.000 C 
BRANCH  39  41
ATOM     40  O   UNL     1      -3.818  40.147  16.036  0.00  0.00    +0.000 OA
ATOM     41  C   UNL     1      -3.194  41.440  16.214  0.00  0.00    +0.000 C 
ATOM     42  C   UNL     1      -2.544  40.303  15.568  0.00  0.00    +0.000 C 
ATOM     43  C   UNL     1      -3.086  41.761  17.747  0.00  0.00    +0.000 C 
BRANCH  42  44
ATOM     44  C   UNL     1      -1.519  39.506  16.171  0.00  0.00    +0.000 C 
ATOM     45  C   UNL     1      -1.677  38.006  16.259  0.00  0.00    +0.000 C 
BRANCH  44  46
ATOM     46  C   UNL     1      -0.192  39.994  16.270  0.00  0.00    +0.000 C 
ATOM     47  C   UNL     1       0.915  40.443  16.383  0.00  0.00    +0.000 C 
ATOM     48  C   UNL     1       2.305  41.060  16.579  0.00  0.00    +0.000 C 
ENDBRANCH  44  46
ENDBRANCH  42  44
ENDBRANCH  39  41
BRANCH  39  49
ATOM     49  O   UNL     1      -2.459  43.230  14.594  0.00  0.00    +0.000 OA
ATOM     50  H   UNL     1      -2.719  44.109  14.256  0.00  0.00    +0.000 HD
ENDBRANCH  39  49
ENDBRANCH   6  39
BRANCH   8  51
ATOM     51  C   UNL     1      -7.021  42.453  12.128  0.00  0.00    +0.000 C 
BRANCH  51  52
ATOM     52  O   UNL     1      -7.647  43.301  11.311  0.00  0.00    +0.000 OA
ATOM     53  H   UNL     1      -8.616  43.165  11.341  0.00  0.00    +0.000 HD
ENDBRANCH  51  52
ENDBRANCH   8  51
TORSDOF 13
ENDMDL
MODEL 7
REMARK VINA RESULT:      -6.4      2.868      5.432
REMARK  Name = 102471178_CandidaspongiolideCore.pdbqt.pdb
REMARK  13 active torsions:
REMARK  status: ('A' for Active; 'I' for Inactive)
REMARK    1  A    between atoms: C_6  and  C_39
REMARK    2  A    between atoms: C_8  and  O_27
REMARK    3  A    between atoms: C_8  and  C_51
REMARK    4  A    between atoms: C_10  and  O_29
REMARK    5  A    between atoms: C_15  and  O_31
REMARK    6  A    between atoms: C_16  and  O_33
REMARK    7  A    between atoms: C_21  and  O_35
REMARK    8  A    between atoms: O_35  and  C_37
REMARK    9  A    between atoms: C_39  and  C_41
REMARK   10  A    between atoms: C_39  and  O_49
REMARK   11  A    between atoms: C_42  and  C_44
REMARK   12  A    between atoms: C_44  and  C_46
REMARK   13  A    between atoms: C_51  and  O_52
REMARK                            x       y       z     vdW  Elec       q    Type
REMARK                         _______ _______ _______ _____ _____    ______ ____
ROOT
ATOM      1  O   UNL     1      -6.264  42.230  12.913  0.00  0.00    +0.000 OA
ATOM      2  O   UNL     1      -7.133  42.862  14.943  0.00  0.00    +0.000 OA
ATOM      3  O   UNL     1     -10.349  42.845  18.698  0.00  0.00    +0.000 OA
ATOM      4  O   UNL     1      -4.096  41.904  13.450  0.00  0.00    +0.000 OA
ATOM      5  O   UNL     1      -4.206  44.162  16.148  0.00  0.00    +0.000 OA
ATOM      6  C   UNL     1      -8.462  41.645  13.361  0.00  0.00    +0.000 C 
ATOM      7  C   UNL     1      -9.755  42.068  13.776  0.00  0.00    +0.000 C 
ATOM      8  C   UNL     1     -11.134  42.483  14.047  0.00  0.00    +0.000 C 
ATOM      9  C   UNL     1      -7.227  42.310  13.854  0.00  0.00    +0.000 C 
ATOM     10  C   UNL     1     -11.611  42.029  15.409  0.00  0.00    +0.000 C 
ATOM     11  C   UNL     1     -10.826  42.076  16.592  0.00  0.00    +0.000 C 
ATOM     12  C   UNL     1      -9.961  42.171  17.750  0.00  0.00    +0.000 C 
ATOM     13  C   UNL     1      -5.047  42.661  13.292  0.00  0.00    +0.000 C 
ATOM     14  C   UNL     1      -8.625  41.502  17.754  0.00  0.00    +0.000 C 
ATOM     15  C   UNL     1      -4.818  44.125  13.204  0.00  0.00    +0.000 C 
ATOM     16  C   UNL     1      -5.723  45.131  13.719  0.00  0.00    +0.000 C 
ATOM     17  C   UNL     1      -5.713  45.668  15.074  0.00  0.00    +0.000 C 
ATOM     18  C   UNL     1      -7.557  42.081  18.483  0.00  0.00    +0.000 C 
ATOM     19  C   UNL     1      -6.192  44.619  17.364  0.00  0.00    +0.000 C 
ATOM     20  C   UNL     1      -8.269  40.386  16.783  0.00  0.00    +0.000 C 
ATOM     21  C   UNL     1      -5.782  43.710  18.428  0.00  0.00    +0.000 C 
ATOM     22  C   UNL     1      -5.267  44.787  16.197  0.00  0.00    +0.000 C 
ATOM     23  C   UNL     1      -6.600  42.708  19.096  0.00  0.00    +0.000 C 
ATOM     24  C   UNL     1      -5.841  47.166  15.334  0.00  0.00    +0.000 C 
ATOM     25  C   UNL     1      -7.631  45.118  17.330  0.00  0.00    +0.000 C 
ATOM     26  C   UNL     1      -6.356  42.300  20.526  0.00  0.00    +0.000 C 
ENDROOT
BRANCH   8  27
ATOM     27  O   UNL     1     -11.933  41.844  13.048  0.00  0.00    +0.000 OA
ATOM     28  H   UNL     1     -11.691  40.898  13.114  0.00  0.00    +0.000 HD
ENDBRANCH   8  27
BRANCH  10  29
ATOM     29  O   UNL     1     -12.922  41.589  15.501  0.00  0.00    +0.000 OA
ATOM     30  H   UNL     1     -13.027  40.876  16.159  0.00  0.00    +0.000 HD
ENDBRANCH  10  29
BRANCH  15  31
ATOM     31  O   UNL     1      -3.510  44.566  13.077  0.00  0.00    +0.000 OA
ATOM     32  H   UNL     1      -3.000  43.962  12.496  0.00  0.00    +0.000 HD
ENDBRANCH  15  31
BRANCH  16  33
ATOM     33  O   UNL     1      -6.281  45.965  12.767  0.00  0.00    +0.000 OA
ATOM     34  C   UNL     1      -7.594  45.544  12.492  0.00  0.00    +0.000 C 
ENDBRANCH  16  33
BRANCH  21  35
ATOM     35  O   UNL     1      -4.493  43.972  18.958  0.00  0.00    +0.000 OA
BRANCH  35  37
ATOM     36  O   UNL     1      -5.096  45.611  20.513  0.00  0.00    +0.000 OA
ATOM     37  C   UNL     1      -4.418  45.168  19.604  0.00  0.00    +0.000 C 
ATOM     38  C   UNL     1      -3.310  46.048  19.149  0.00  0.00    +0.000 C 
ENDBRANCH  35  37
ENDBRANCH  21  35
BRANCH   6  39
ATOM     39  C   UNL     1      -8.385  40.481  12.508  0.00  0.00    +0.000 C 
BRANCH  39  41
ATOM     40  O   UNL     1      -9.155  39.237  10.419  0.00  0.00    +0.000 OA
ATOM     41  C   UNL     1      -9.275  40.363  11.319  0.00  0.00    +0.000 C 
ATOM     42  C   UNL     1     -10.124  39.176  11.380  0.00  0.00    +0.000 C 
ATOM     43  C   UNL     1      -9.626  41.654  10.496  0.00  0.00    +0.000 C 
BRANCH  42  44
ATOM     44  C   UNL     1     -11.485  39.130  10.941  0.00  0.00    +0.000 C 
ATOM     45  C   UNL     1     -11.807  38.851   9.491  0.00  0.00    +0.000 C 
BRANCH  44  46
ATOM     46  C   UNL     1     -12.532  38.881  11.864  0.00  0.00    +0.000 C 
ATOM     47  C   UNL     1     -13.386  38.680  12.682  0.00  0.00    +0.000 C 
ATOM     48  C   UNL     1     -14.435  38.451  13.778  0.00  0.00    +0.000 C 
ENDBRANCH  44  46
ENDBRANCH  42  44
ENDBRANCH  39  41
BRANCH  39  49
ATOM     49  O   UNL     1      -7.509  39.479  12.891  0.00  0.00    +0.000 OA
ATOM     50  H   UNL     1      -6.565  39.713  12.804  0.00  0.00    +0.000 HD
ENDBRANCH  39  49
ENDBRANCH   6  39
BRANCH   8  51
ATOM     51  C   UNL     1     -11.312  43.937  13.900  0.00  0.00    +0.000 C 
BRANCH  51  52
ATOM     52  O   UNL     1     -11.507  45.252  13.795  0.00  0.00    +0.000 OA
ATOM     53  H   UNL     1     -11.883  45.481  12.921  0.00  0.00    +0.000 HD
ENDBRANCH  51  52
ENDBRANCH   8  51
TORSDOF 13
ENDMDL
MODEL 8
REMARK VINA RESULT:      -6.3     17.322     21.404
REMARK  Name = 102471178_CandidaspongiolideCore.pdbqt.pdb
REMARK  13 active torsions:
REMARK  status: ('A' for Active; 'I' for Inactive)
REMARK    1  A    between atoms: C_6  and  C_39
REMARK    2  A    between atoms: C_8  and  O_27
REMARK    3  A    between atoms: C_8  and  C_51
REMARK    4  A    between atoms: C_10  and  O_29
REMARK    5  A    between atoms: C_15  and  O_31
REMARK    6  A    between atoms: C_16  and  O_33
REMARK    7  A    between atoms: C_21  and  O_35
REMARK    8  A    between atoms: O_35  and  C_37
REMARK    9  A    between atoms: C_39  and  C_41
REMARK   10  A    between atoms: C_39  and  O_49
REMARK   11  A    between atoms: C_42  and  C_44
REMARK   12  A    between atoms: C_44  and  C_46
REMARK   13  A    between atoms: C_51  and  O_52
REMARK                            x       y       z     vdW  Elec       q    Type
REMARK                         _______ _______ _______ _____ _____    ______ ____
ROOT
ATOM      1  O   UNL     1     -16.654  29.667  26.922  0.00  0.00    +0.000 OA
ATOM      2  O   UNL     1     -18.211  31.250  26.335  0.00  0.00    +0.000 OA
ATOM      3  O   UNL     1     -20.422  34.562  23.405  0.00  0.00    +0.000 OA
ATOM      4  O   UNL     1     -17.977  28.057  27.791  0.00  0.00    +0.000 OA
ATOM      5  O   UNL     1     -20.504  30.331  28.703  0.00  0.00    +0.000 OA
ATOM      6  C   UNL     1     -16.193  30.979  25.068  0.00  0.00    +0.000 C 
ATOM      7  C   UNL     1     -16.090  32.288  24.522  0.00  0.00    +0.000 C 
ATOM      8  C   UNL     1     -15.820  33.614  23.958  0.00  0.00    +0.000 C 
ATOM      9  C   UNL     1     -17.150  30.663  26.161  0.00  0.00    +0.000 C 
ATOM     10  C   UNL     1     -16.873  34.034  22.956  0.00  0.00    +0.000 C 
ATOM     11  C   UNL     1     -18.269  33.828  23.123  0.00  0.00    +0.000 C 
ATOM     12  C   UNL     1     -19.673  33.591  23.379  0.00  0.00    +0.000 C 
ATOM     13  C   UNL     1     -17.491  29.180  27.857  0.00  0.00    +0.000 C 
ATOM     14  C   UNL     1     -20.171  32.207  23.648  0.00  0.00    +0.000 C 
ATOM     15  C   UNL     1     -17.554  29.936  29.132  0.00  0.00    +0.000 C 
ATOM     16  C   UNL     1     -17.715  31.373  29.229  0.00  0.00    +0.000 C 
ATOM     17  C   UNL     1     -18.987  32.082  29.270  0.00  0.00    +0.000 C 
ATOM     18  C   UNL     1     -21.277  32.018  24.512  0.00  0.00    +0.000 C 
ATOM     19  C   UNL     1     -20.871  32.376  27.556  0.00  0.00    +0.000 C 
ATOM     20  C   UNL     1     -19.372  30.967  23.273  0.00  0.00    +0.000 C 
ATOM     21  C   UNL     1     -21.976  31.788  26.806  0.00  0.00    +0.000 C 
ATOM     22  C   UNL     1     -20.161  31.504  28.547  0.00  0.00    +0.000 C 
ATOM     23  C   UNL     1     -22.237  31.908  25.379  0.00  0.00    +0.000 C 
ATOM     24  C   UNL     1     -19.232  33.212  30.266  0.00  0.00    +0.000 C 
ATOM     25  C   UNL     1     -20.301  33.714  27.106  0.00  0.00    +0.000 C 
ATOM     26  C   UNL     1     -23.633  31.862  24.815  0.00  0.00    +0.000 C 
ENDROOT
BRANCH   8  27
ATOM     27  O   UNL     1     -14.566  33.498  23.281  0.00  0.00    +0.000 OA
ATOM     28  H   UNL     1     -13.901  33.534  23.997  0.00  0.00    +0.000 HD
ENDBRANCH   8  27
BRANCH  10  29
ATOM     29  O   UNL     1     -16.433  34.711  21.829  0.00  0.00    +0.000 OA
ATOM     30  H   UNL     1     -15.466  34.838  21.830  0.00  0.00    +0.000 HD
ENDBRANCH  10  29
BRANCH  15  31
ATOM     31  O   UNL     1     -17.961  29.253  30.267  0.00  0.00    +0.000 OA
ATOM     32  H   UNL     1     -17.276  28.607  30.542  0.00  0.00    +0.000 HD
ENDBRANCH  15  31
BRANCH  16  33
ATOM     33  O   UNL     1     -16.653  32.047  29.803  0.00  0.00    +0.000 OA
ATOM     34  C   UNL     1     -15.778  32.483  28.792  0.00  0.00    +0.000 C 
ENDBRANCH  16  33
BRANCH  21  35
ATOM     35  O   UNL     1     -22.973  31.183  27.613  0.00  0.00    +0.000 OA
BRANCH  35  37
ATOM     36  O   UNL     1     -24.239  33.095  28.076  0.00  0.00    +0.000 OA
ATOM     37  C   UNL     1     -23.645  32.078  28.388  0.00  0.00    +0.000 C 
ATOM     38  C   UNL     1     -23.686  31.735  29.833  0.00  0.00    +0.000 C 
ENDBRANCH  35  37
ENDBRANCH  21  35
BRANCH   6  39
ATOM     39  C   UNL     1     -15.393  29.940  24.461  0.00  0.00    +0.000 C 
BRANCH  39  41
ATOM     40  O   UNL     1     -15.617  30.432  21.969  0.00  0.00    +0.000 OA
ATOM     41  C   UNL     1     -15.675  29.494  23.068  0.00  0.00    +0.000 C 
ATOM     42  C   UNL     1     -14.517  29.652  22.193  0.00  0.00    +0.000 C 
ATOM     43  C   UNL     1     -16.835  28.466  22.815  0.00  0.00    +0.000 C 
BRANCH  42  44
ATOM     44  C   UNL     1     -14.146  28.727  21.165  0.00  0.00    +0.000 C 
ATOM     45  C   UNL     1     -13.550  27.387  21.528  0.00  0.00    +0.000 C 
BRANCH  44  46
ATOM     46  C   UNL     1     -14.723  28.816  19.873  0.00  0.00    +0.000 C 
ATOM     47  C   UNL     1     -15.222  28.843  18.782  0.00  0.00    +0.000 C 
ATOM     48  C   UNL     1     -15.884  28.811  17.399  0.00  0.00    +0.000 C 
ENDBRANCH  44  46
ENDBRANCH  42  44
ENDBRANCH  39  41
BRANCH  39  49
ATOM     49  O   UNL     1     -14.422  29.352  25.254  0.00  0.00    +0.000 OA
ATOM     50  H   UNL     1     -14.597  28.419  25.484  0.00  0.00    +0.000 HD
ENDBRANCH  39  49
ENDBRANCH   6  39
BRANCH   8  51
ATOM     51  C   UNL     1     -15.670  34.638  25.005  0.00  0.00    +0.000 C 
BRANCH  51  52
ATOM     52  O   UNL     1     -15.554  35.539  25.981  0.00  0.00    +0.000 OA
ATOM     53  H   UNL     1     -15.007  35.191  26.715  0.00  0.00    +0.000 HD
ENDBRANCH  51  52
ENDBRANCH   8  51
TORSDOF 13
ENDMDL
MODEL 9
REMARK VINA RESULT:      -6.0      2.398      7.672
REMARK  Name = 102471178_CandidaspongiolideCore.pdbqt.pdb
REMARK  13 active torsions:
REMARK  status: ('A' for Active; 'I' for Inactive)
REMARK    1  A    between atoms: C_6  and  C_39
REMARK    2  A    between atoms: C_8  and  O_27
REMARK    3  A    between atoms: C_8  and  C_51
REMARK    4  A    between atoms: C_10  and  O_29
REMARK    5  A    between atoms: C_15  and  O_31
REMARK    6  A    between atoms: C_16  and  O_33
REMARK    7  A    between atoms: C_21  and  O_35
REMARK    8  A    between atoms: O_35  and  C_37
REMARK    9  A    between atoms: C_39  and  C_41
REMARK   10  A    between atoms: C_39  and  O_49
REMARK   11  A    between atoms: C_42  and  C_44
REMARK   12  A    between atoms: C_44  and  C_46
REMARK   13  A    between atoms: C_51  and  O_52
REMARK                            x       y       z     vdW  Elec       q    Type
REMARK                         _______ _______ _______ _____ _____    ______ ____
ROOT
ATOM      1  O   UNL     1      -5.593  45.986  15.374  0.00  0.00    +0.000 OA
ATOM      2  O   UNL     1      -6.760  44.013  15.239  0.00  0.00    +0.000 OA
ATOM      3  O   UNL     1     -10.006  40.563  16.653  0.00  0.00    +0.000 OA
ATOM      4  O   UNL     1      -5.817  46.769  13.268  0.00  0.00    +0.000 OA
ATOM      5  O   UNL     1      -6.218  43.555  11.891  0.00  0.00    +0.000 OA
ATOM      6  C   UNL     1      -6.696  45.267  17.282  0.00  0.00    +0.000 C 
ATOM      7  C   UNL     1      -6.930  44.210  18.205  0.00  0.00    +0.000 C 
ATOM      8  C   UNL     1      -7.082  43.210  19.264  0.00  0.00    +0.000 C 
ATOM      9  C   UNL     1      -6.377  44.999  15.855  0.00  0.00    +0.000 C 
ATOM     10  C   UNL     1      -8.444  42.550  19.237  0.00  0.00    +0.000 C 
ATOM     11  C   UNL     1      -9.116  42.143  18.054  0.00  0.00    +0.000 C 
ATOM     12  C   UNL     1      -9.723  41.746  16.801  0.00  0.00    +0.000 C 
ATOM     13  C   UNL     1      -5.356  45.945  14.050  0.00  0.00    +0.000 C 
ATOM     14  C   UNL     1      -9.947  42.750  15.716  0.00  0.00    +0.000 C 
ATOM     15  C   UNL     1      -4.257  45.048  13.613  0.00  0.00    +0.000 C 
ATOM     16  C   UNL     1      -4.098  43.674  14.042  0.00  0.00    +0.000 C 
ATOM     17  C   UNL     1      -4.694  42.510  13.400  0.00  0.00    +0.000 C 
ATOM     18  C   UNL     1      -9.884  42.342  14.362  0.00  0.00    +0.000 C 
ATOM     19  C   UNL     1      -7.120  41.733  13.116  0.00  0.00    +0.000 C 
ATOM     20  C   UNL     1      -9.953  44.249  15.983  0.00  0.00    +0.000 C 
ATOM     21  C   UNL     1      -8.424  41.924  12.490  0.00  0.00    +0.000 C 
ATOM     22  C   UNL     1      -6.014  42.660  12.714  0.00  0.00    +0.000 C 
ATOM     23  C   UNL     1      -9.726  41.921  13.144  0.00  0.00    +0.000 C 
ATOM     24  C   UNL     1      -3.882  41.245  13.141  0.00  0.00    +0.000 C 
ATOM     25  C   UNL     1      -7.010  40.826  14.334  0.00  0.00    +0.000 C 
ATOM     26  C   UNL     1     -10.977  41.477  12.432  0.00  0.00    +0.000 C 
ENDROOT
BRANCH   8  27
ATOM     27  O   UNL     1      -6.947  43.925  20.495  0.00  0.00    +0.000 OA
ATOM     28  H   UNL     1      -7.775  43.733  20.978  0.00  0.00    +0.000 HD
ENDBRANCH   8  27
BRANCH  10  29
ATOM     29  O   UNL     1      -9.039  42.288  20.461  0.00  0.00    +0.000 OA
ATOM     30  H   UNL     1      -8.422  42.413  21.206  0.00  0.00    +0.000 HD
ENDBRANCH  10  29
BRANCH  15  31
ATOM     31  O   UNL     1      -3.637  45.329  12.406  0.00  0.00    +0.000 OA
ATOM     32  H   UNL     1      -2.677  45.478  12.540  0.00  0.00    +0.000 HD
ENDBRANCH  15  31
BRANCH  16  33
ATOM     33  O   UNL     1      -2.950  43.413  14.770  0.00  0.00    +0.000 OA
ATOM     34  C   UNL     1      -3.279  43.303  16.133  0.00  0.00    +0.000 C 
ENDBRANCH  16  33
BRANCH  21  35
ATOM     35  O   UNL     1      -8.397  41.943  11.073  0.00  0.00    +0.000 OA
BRANCH  35  37
ATOM     36  O   UNL     1      -6.880  40.654   9.844  0.00  0.00    +0.000 OA
ATOM     37  C   UNL     1      -7.870  40.808  10.536  0.00  0.00    +0.000 C 
ATOM     38  C   UNL     1      -8.602  39.563  10.885  0.00  0.00    +0.000 C 
ENDBRANCH  35  37
ENDBRANCH  21  35
BRANCH   6  39
ATOM     39  C   UNL     1      -6.868  46.619  17.761  0.00  0.00    +0.000 C 
BRANCH  39  41
ATOM     40  O   UNL     1      -8.112  48.805  17.340  0.00  0.00    +0.000 OA
ATOM     41  C   UNL     1      -8.124  47.365  17.469  0.00  0.00    +0.000 C 
ATOM     42  C   UNL     1      -8.064  48.068  16.191  0.00  0.00    +0.000 C 
ATOM     43  C   UNL     1      -9.459  46.914  18.163  0.00  0.00    +0.000 C 
BRANCH  42  44
ATOM     44  C   UNL     1      -9.162  48.193  15.282  0.00  0.00    +0.000 C 
ATOM     45  C   UNL     1      -9.929  49.492  15.191  0.00  0.00    +0.000 C 
BRANCH  44  46
ATOM     46  C   UNL     1      -9.271  47.332  14.160  0.00  0.00    +0.000 C 
ATOM     47  C   UNL     1      -9.337  46.570  13.236  0.00  0.00    +0.000 C 
ATOM     48  C   UNL     1      -9.395  45.544  12.098  0.00  0.00    +0.000 C 
ENDBRANCH  44  46
ENDBRANCH  42  44
ENDBRANCH  39  41
BRANCH  39  49
ATOM     49  O   UNL     1      -5.796  47.189  18.429  0.00  0.00    +0.000 OA
ATOM     50  H   UNL     1      -5.617  46.804  19.308  0.00  0.00    +0.000 HD
ENDBRANCH  39  49
ENDBRANCH   6  39
BRANCH   8  51
ATOM     51  C   UNL     1      -6.019  42.192  19.219  0.00  0.00    +0.000 C 
BRANCH  51  52
ATOM     52  O   UNL     1      -5.050  41.279  19.135  0.00  0.00    +0.000 OA
ATOM     53  H   UNL     1      -4.186  41.702  18.956  0.00  0.00    +0.000 HD
ENDBRANCH  51  52
ENDBRANCH   8  51
TORSDOF 13
ENDMDL
