MODEL 1
REMARK VINA RESULT:      -6.3      0.000      0.000
REMARK  Name = 10281_Thymoquinone.pdbqt.pdb
REMARK  1 active torsions:
REMARK  status: ('A' for Active; 'I' for Inactive)
REMARK    1  A    between atoms: C_3  and  C_10
REMARK                            x       y       z     vdW  Elec       q    Type
REMARK                         _______ _______ _______ _____ _____    ______ ____
ROOT
ATOM      1  O   UNL     1       0.828  28.245  14.850  0.00  0.00    +0.000 OA
ATOM      2  O   UNL     1       5.383  30.987  15.674  0.00  0.00    +0.000 OA
ATOM      3  C   UNL     1       1.830  30.347  15.505  0.00  0.00    +0.000 C 
ATOM      4  C   UNL     1       1.821  28.916  15.052  0.00  0.00    +0.000 C 
ATOM      5  C   UNL     1       3.054  30.793  15.635  0.00  0.00    +0.000 C 
ATOM      6  C   UNL     1       4.389  28.823  14.997  0.00  0.00    +0.000 C 
ATOM      7  C   UNL     1       4.415  30.282  15.460  0.00  0.00    +0.000 C 
ATOM      8  C   UNL     1       3.166  28.384  14.870  0.00  0.00    +0.000 C 
ATOM      9  C   UNL     1       5.578  27.964  14.712  0.00  0.00    +0.000 C 
ENDROOT
BRANCH   3  10
ATOM     10  C   UNL     1       0.608  31.042  15.741  0.00  0.00    +0.000 C 
ATOM     11  C   UNL     1      -0.166  31.645  14.594  0.00  0.00    +0.000 C 
ATOM     12  C   UNL     1      -0.152  30.842  17.029  0.00  0.00    +0.000 C 
ENDBRANCH   3  10
TORSDOF 1
ENDMDL
MODEL 2
REMARK VINA RESULT:      -6.0      1.966      4.495
REMARK  Name = 10281_Thymoquinone.pdbqt.pdb
REMARK  1 active torsions:
REMARK  status: ('A' for Active; 'I' for Inactive)
REMARK    1  A    between atoms: C_3  and  C_10
REMARK                            x       y       z     vdW  Elec       q    Type
REMARK                         _______ _______ _______ _____ _____    ______ ____
ROOT
ATOM      1  O   UNL     1       4.532  27.242  13.733  0.00  0.00    +0.000 OA
ATOM      2  O   UNL     1       2.579  31.289  16.691  0.00  0.00    +0.000 OA
ATOM      3  C   UNL     1       5.032  29.237  15.007  0.00  0.00    +0.000 C 
ATOM      4  C   UNL     1       4.152  28.178  14.408  0.00  0.00    +0.000 C 
ATOM      5  C   UNL     1       4.326  30.111  15.681  0.00  0.00    +0.000 C 
ATOM      6  C   UNL     1       2.035  29.252  15.395  0.00  0.00    +0.000 C 
ATOM      7  C   UNL     1       2.919  30.340  16.011  0.00  0.00    +0.000 C 
ATOM      8  C   UNL     1       2.744  28.384  14.725  0.00  0.00    +0.000 C 
ATOM      9  C   UNL     1       0.549  29.146  15.514  0.00  0.00    +0.000 C 
ENDROOT
BRANCH   3  10
ATOM     10  C   UNL     1       6.442  29.209  14.805  0.00  0.00    +0.000 C 
ATOM     11  C   UNL     1       7.240  30.490  14.779  0.00  0.00    +0.000 C 
ATOM     12  C   UNL     1       7.225  27.938  15.033  0.00  0.00    +0.000 C 
ENDBRANCH   3  10
TORSDOF 1
ENDMDL
MODEL 3
REMARK VINA RESULT:      -5.9      2.231      3.297
REMARK  Name = 10281_Thymoquinone.pdbqt.pdb
REMARK  1 active torsions:
REMARK  status: ('A' for Active; 'I' for Inactive)
REMARK    1  A    between atoms: C_3  and  C_10
REMARK                            x       y       z     vdW  Elec       q    Type
REMARK                         _______ _______ _______ _____ _____    ______ ____
ROOT
ATOM      1  O   UNL     1       3.752  29.447  16.800  0.00  0.00    +0.000 OA
ATOM      2  O   UNL     1       3.139  34.498  15.051  0.00  0.00    +0.000 OA
ATOM      3  C   UNL     1       2.216  31.135  15.997  0.00  0.00    +0.000 C 
ATOM      4  C   UNL     1       3.550  30.576  16.398  0.00  0.00    +0.000 C 
ATOM      5  C   UNL     1       2.323  32.381  15.609  0.00  0.00    +0.000 C 
ATOM      6  C   UNL     1       4.738  32.794  15.868  0.00  0.00    +0.000 C 
ATOM      7  C   UNL     1       3.384  33.378  15.457  0.00  0.00    +0.000 C 
ATOM      8  C   UNL     1       4.624  31.552  16.254  0.00  0.00    +0.000 C 
ATOM      9  C   UNL     1       6.051  33.506  15.848  0.00  0.00    +0.000 C 
ENDROOT
BRANCH   3  10
ATOM     10  C   UNL     1       1.040  30.331  16.072  0.00  0.00    +0.000 C 
ATOM     11  C   UNL     1      -0.188  30.833  16.792  0.00  0.00    +0.000 C 
ATOM     12  C   UNL     1       0.832  29.186  15.111  0.00  0.00    +0.000 C 
ENDBRANCH   3  10
TORSDOF 1
ENDMDL
MODEL 4
REMARK VINA RESULT:      -5.2      2.094      3.390
REMARK  Name = 10281_Thymoquinone.pdbqt.pdb
REMARK  1 active torsions:
REMARK  status: ('A' for Active; 'I' for Inactive)
REMARK    1  A    between atoms: C_3  and  C_10
REMARK                            x       y       z     vdW  Elec       q    Type
REMARK                         _______ _______ _______ _____ _____    ______ ____
ROOT
ATOM      1  O   UNL     1       5.491  27.477  14.582  0.00  0.00    +0.000 OA
ATOM      2  O   UNL     1       5.232  32.519  16.441  0.00  0.00    +0.000 OA
ATOM      3  C   UNL     1       4.064  29.309  15.260  0.00  0.00    +0.000 C 
ATOM      4  C   UNL     1       5.368  28.611  15.000  0.00  0.00    +0.000 C 
ATOM      5  C   UNL     1       4.260  30.524  15.708  0.00  0.00    +0.000 C 
ATOM      6  C   UNL     1       6.720  30.664  15.753  0.00  0.00    +0.000 C 
ATOM      7  C   UNL     1       5.399  31.389  16.024  0.00  0.00    +0.000 C 
ATOM      8  C   UNL     1       6.517  29.454  15.307  0.00  0.00    +0.000 C 
ATOM      9  C   UNL     1       8.092  31.221  15.953  0.00  0.00    +0.000 C 
ENDROOT
BRANCH   3  10
ATOM     10  C   UNL     1       2.825  28.646  15.022  0.00  0.00    +0.000 C 
ATOM     11  C   UNL     1       1.551  29.151  15.654  0.00  0.00    +0.000 C 
ATOM     12  C   UNL     1       2.665  27.719  13.842  0.00  0.00    +0.000 C 
ENDBRANCH   3  10
TORSDOF 1
ENDMDL
MODEL 5
REMARK VINA RESULT:      -4.6     18.718     19.606
REMARK  Name = 10281_Thymoquinone.pdbqt.pdb
REMARK  1 active torsions:
REMARK  status: ('A' for Active; 'I' for Inactive)
REMARK    1  A    between atoms: C_3  and  C_10
REMARK                            x       y       z     vdW  Elec       q    Type
REMARK                         _______ _______ _______ _____ _____    ______ ____
ROOT
ATOM      1  O   UNL     1       0.499  24.003  -3.209  0.00  0.00    +0.000 OA
ATOM      2  O   UNL     1       1.580  29.035  -4.773  0.00  0.00    +0.000 OA
ATOM      3  C   UNL     1       1.821  25.994  -2.836  0.00  0.00    +0.000 C 
ATOM      4  C   UNL     1       0.787  25.143  -3.515  0.00  0.00    +0.000 C 
ATOM      5  C   UNL     1       1.901  27.175  -3.396  0.00  0.00    +0.000 C 
ATOM      6  C   UNL     1       0.210  27.014  -5.180  0.00  0.00    +0.000 C 
ATOM      7  C   UNL     1       1.262  27.894  -4.499  0.00  0.00    +0.000 C 
ATOM      8  C   UNL     1       0.134  25.838  -4.618  0.00  0.00    +0.000 C 
ATOM      9  C   UNL     1      -0.650  27.400  -6.340  0.00  0.00    +0.000 C 
ENDROOT
BRANCH   3  10
ATOM     10  C   UNL     1       2.570  25.486  -1.735  0.00  0.00    +0.000 C 
ATOM     11  C   UNL     1       2.004  25.530  -0.337  0.00  0.00    +0.000 C 
ATOM     12  C   UNL     1       3.720  24.536  -1.962  0.00  0.00    +0.000 C 
ENDBRANCH   3  10
TORSDOF 1
ENDMDL
MODEL 6
REMARK VINA RESULT:      -4.4      7.672      9.805
REMARK  Name = 10281_Thymoquinone.pdbqt.pdb
REMARK  1 active torsions:
REMARK  status: ('A' for Active; 'I' for Inactive)
REMARK    1  A    between atoms: C_3  and  C_10
REMARK                            x       y       z     vdW  Elec       q    Type
REMARK                         _______ _______ _______ _____ _____    ______ ____
ROOT
ATOM      1  O   UNL     1       9.970  38.134  17.656  0.00  0.00    +0.000 OA
ATOM      2  O   UNL     1       7.131  33.573  17.367  0.00  0.00    +0.000 OA
ATOM      3  C   UNL     1       8.898  36.510  16.220  0.00  0.00    +0.000 C 
ATOM      4  C   UNL     1       9.329  37.110  17.526  0.00  0.00    +0.000 C 
ATOM      5  C   UNL     1       8.222  35.404  16.408  0.00  0.00    +0.000 C 
ATOM      6  C   UNL     1       8.217  35.218  18.865  0.00  0.00    +0.000 C 
ATOM      7  C   UNL     1       7.770  34.593  17.540  0.00  0.00    +0.000 C 
ATOM      8  C   UNL     1       8.890  36.319  18.670  0.00  0.00    +0.000 C 
ATOM      9  C   UNL     1       7.944  34.681  20.233  0.00  0.00    +0.000 C 
ENDROOT
BRANCH   3  10
ATOM     10  C   UNL     1       9.236  37.138  14.985  0.00  0.00    +0.000 C 
ATOM     11  C   UNL     1       8.275  38.095  14.323  0.00  0.00    +0.000 C 
ATOM     12  C   UNL     1      10.672  37.208  14.528  0.00  0.00    +0.000 C 
ENDBRANCH   3  10
TORSDOF 1
ENDMDL
MODEL 7
REMARK VINA RESULT:      -4.4     15.068     16.611
REMARK  Name = 10281_Thymoquinone.pdbqt.pdb
REMARK  1 active torsions:
REMARK  status: ('A' for Active; 'I' for Inactive)
REMARK    1  A    between atoms: C_3  and  C_10
REMARK                            x       y       z     vdW  Elec       q    Type
REMARK                         _______ _______ _______ _____ _____    ______ ____
ROOT
ATOM      1  O   UNL     1      -4.182  16.489  10.474  0.00  0.00    +0.000 OA
ATOM      2  O   UNL     1      -8.387  17.615  13.635  0.00  0.00    +0.000 OA
ATOM      3  C   UNL     1      -6.578  16.793  10.617  0.00  0.00    +0.000 C 
ATOM      4  C   UNL     1      -5.170  16.737  11.136  0.00  0.00    +0.000 C 
ATOM      5  C   UNL     1      -7.423  17.084  11.574  0.00  0.00    +0.000 C 
ATOM      6  C   UNL     1      -5.933  17.312  13.523  0.00  0.00    +0.000 C 
ATOM      7  C   UNL     1      -7.374  17.371  13.008  0.00  0.00    +0.000 C 
ATOM      8  C   UNL     1      -5.096  17.021  12.564  0.00  0.00    +0.000 C 
ATOM      9  C   UNL     1      -5.485  17.550  14.928  0.00  0.00    +0.000 C 
ENDROOT
BRANCH   3  10
ATOM     10  C   UNL     1      -6.855  16.540   9.241  0.00  0.00    +0.000 C 
ATOM     11  C   UNL     1      -7.054  15.128   8.746  0.00  0.00    +0.000 C 
ATOM     12  C   UNL     1      -7.368  17.641   8.347  0.00  0.00    +0.000 C 
ENDBRANCH   3  10
TORSDOF 1
ENDMDL
MODEL 8
REMARK VINA RESULT:      -4.3      9.791     11.509
REMARK  Name = 10281_Thymoquinone.pdbqt.pdb
REMARK  1 active torsions:
REMARK  status: ('A' for Active; 'I' for Inactive)
REMARK    1  A    between atoms: C_3  and  C_10
REMARK                            x       y       z     vdW  Elec       q    Type
REMARK                         _______ _______ _______ _____ _____    ______ ____
ROOT
ATOM      1  O   UNL     1      10.998  35.984  14.601  0.00  0.00    +0.000 OA
ATOM      2  O   UNL     1      10.630  40.477  17.537  0.00  0.00    +0.000 OA
ATOM      3  C   UNL     1       9.535  37.544  15.731  0.00  0.00    +0.000 C 
ATOM      4  C   UNL     1      10.851  36.991  15.264  0.00  0.00    +0.000 C 
ATOM      5  C   UNL     1       9.704  38.641  16.426  0.00  0.00    +0.000 C 
ATOM      6  C   UNL     1      12.154  38.900  16.389  0.00  0.00    +0.000 C 
ATOM      7  C   UNL     1      10.821  39.476  16.874  0.00  0.00    +0.000 C 
ATOM      8  C   UNL     1      11.979  37.807  15.697  0.00  0.00    +0.000 C 
ATOM      9  C   UNL     1      13.510  39.473  16.644  0.00  0.00    +0.000 C 
ENDROOT
BRANCH   3  10
ATOM     10  C   UNL     1       8.314  36.882  15.410  0.00  0.00    +0.000 C 
ATOM     11  C   UNL     1       7.860  35.682  16.204  0.00  0.00    +0.000 C 
ATOM     12  C   UNL     1       7.259  37.577  14.585  0.00  0.00    +0.000 C 
ENDBRANCH   3  10
TORSDOF 1
ENDMDL
MODEL 9
REMARK VINA RESULT:      -4.3     19.968     20.902
REMARK  Name = 10281_Thymoquinone.pdbqt.pdb
REMARK  1 active torsions:
REMARK  status: ('A' for Active; 'I' for Inactive)
REMARK    1  A    between atoms: C_3  and  C_10
REMARK                            x       y       z     vdW  Elec       q    Type
REMARK                         _______ _______ _______ _____ _____    ______ ____
ROOT
ATOM      1  O   UNL     1       1.247  24.858  -5.345  0.00  0.00    +0.000 OA
ATOM      2  O   UNL     1      -3.283  27.556  -4.273  0.00  0.00    +0.000 OA
ATOM      3  C   UNL     1       0.264  26.900  -4.498  0.00  0.00    +0.000 C 
ATOM      4  C   UNL     1       0.260  25.516  -5.081  0.00  0.00    +0.000 C 
ATOM      5  C   UNL     1      -0.956  27.344  -4.329  0.00  0.00    +0.000 C 
ATOM      6  C   UNL     1      -2.309  25.453  -5.145  0.00  0.00    +0.000 C 
ATOM      7  C   UNL     1      -2.322  26.865  -4.551  0.00  0.00    +0.000 C 
ATOM      8  C   UNL     1      -1.090  25.016  -5.311  0.00  0.00    +0.000 C 
ATOM      9  C   UNL     1      -3.506  24.635  -5.505  0.00  0.00    +0.000 C 
ENDROOT
BRANCH   3  10
ATOM     10  C   UNL     1       1.493  27.561  -4.206  0.00  0.00    +0.000 C 
ATOM     11  C   UNL     1       1.803  28.907  -4.814  0.00  0.00    +0.000 C 
ATOM     12  C   UNL     1       2.306  27.169  -2.997  0.00  0.00    +0.000 C 
ENDBRANCH   3  10
TORSDOF 1
ENDMDL
