MODEL 1
REMARK VINA RESULT:      -7.9      0.000      0.000
REMARK  Name = 10288191_Binimetinib.pdbqt.pdb
REMARK  6 active torsions:
REMARK  status: ('A' for Active; 'I' for Inactive)
REMARK    1  A    between atoms: C_6  and  N_21
REMARK    2  A    between atoms: C_7  and  C_14
REMARK    3  A    between atoms: N_13  and  O_16
REMARK    4  A    between atoms: O_16  and  C_17
REMARK    5  A    between atoms: C_18  and  O_19
REMARK    6  A    between atoms: N_21  and  C_25
REMARK                            x       y       z     vdW  Elec       q    Type
REMARK                         _______ _______ _______ _____ _____    ______ ____
ROOT
ATOM      1  F   UNL     1       3.763  29.137  16.000  0.00  0.00    +0.000 F 
ATOM      2  N   UNL     1       8.170  28.898  15.023  0.00  0.00    +0.000 N 
ATOM      3  N   UNL     1       6.254  27.810  15.159  0.00  0.00    +0.000 NA
ATOM      4  C   UNL     1       7.266  29.845  15.410  0.00  0.00    +0.000 A 
ATOM      5  C   UNL     1       6.068  29.141  15.485  0.00  0.00    +0.000 A 
ATOM      6  C   UNL     1       4.937  31.217  16.159  0.00  0.00    +0.000 A 
ATOM      7  C   UNL     1       6.187  31.885  16.081  0.00  0.00    +0.000 A 
ATOM      8  C   UNL     1       7.361  31.206  15.706  0.00  0.00    +0.000 A 
ATOM      9  C   UNL     1       4.902  29.833  15.864  0.00  0.00    +0.000 A 
ATOM     10  C   UNL     1       7.540  27.699  14.882  0.00  0.00    +0.000 A 
ATOM     11  C   UNL     1       9.556  29.125  14.782  0.00  0.00    +0.000 C 
ENDROOT
BRANCH   7  14
ATOM     12  O   UNL     1       5.603  34.160  15.855  0.00  0.00    +0.000 OA
ATOM     13  N   UNL     1       7.255  33.663  17.382  0.00  0.00    +0.000 N 
ATOM     14  C   UNL     1       6.316  33.338  16.424  0.00  0.00    +0.000 C 
ATOM     15  H   UNL     1       8.054  33.069  17.571  0.00  0.00    +0.000 HD
BRANCH  13  16
ATOM     16  O   UNL     1       7.534  35.044  17.461  0.00  0.00    +0.000 OA
BRANCH  16  17
ATOM     17  C   UNL     1       8.493  35.283  16.569  0.00  0.00    +0.000 C 
ATOM     18  C   UNL     1       9.594  35.570  15.542  0.00  0.00    +0.000 C 
BRANCH  18  19
ATOM     19  O   UNL     1      10.547  35.828  14.653  0.00  0.00    +0.000 OA
ATOM     20  H   UNL     1      11.068  35.025  14.478  0.00  0.00    +0.000 HD
ENDBRANCH  18  19
ENDBRANCH  16  17
ENDBRANCH  13  16
ENDBRANCH   7  14
BRANCH   6  21
ATOM     21  N   UNL     1       3.760  31.934  16.495  0.00  0.00    +0.000 N 
ATOM     22  H   UNL     1       3.952  32.856  16.916  0.00  0.00    +0.000 HD
BRANCH  21  25
ATOM     23 BR   UNL     1      -1.920  31.836  14.278  0.00  0.00    +0.000 Br
ATOM     24  F   UNL     1       3.081  33.198  14.140  0.00  0.00    +0.000 F 
ATOM     25  C   UNL     1       2.445  31.857  15.990  0.00  0.00    +0.000 A 
ATOM     26  C   UNL     1       2.120  32.534  14.802  0.00  0.00    +0.000 A 
ATOM     27  C   UNL     1       1.410  31.197  16.657  0.00  0.00    +0.000 A 
ATOM     28  C   UNL     1       0.830  32.534  14.282  0.00  0.00    +0.000 A 
ATOM     29  C   UNL     1       0.111  31.185  16.150  0.00  0.00    +0.000 A 
ATOM     30  C   UNL     1      -0.168  31.854  14.965  0.00  0.00    +0.000 A 
ENDBRANCH  21  25
ENDBRANCH   6  21
TORSDOF 6
ENDMDL
MODEL 2
REMARK VINA RESULT:      -7.6      1.908      2.431
REMARK  Name = 10288191_Binimetinib.pdbqt.pdb
REMARK  6 active torsions:
REMARK  status: ('A' for Active; 'I' for Inactive)
REMARK    1  A    between atoms: C_6  and  N_21
REMARK    2  A    between atoms: C_7  and  C_14
REMARK    3  A    between atoms: N_13  and  O_16
REMARK    4  A    between atoms: O_16  and  C_17
REMARK    5  A    between atoms: C_18  and  O_19
REMARK    6  A    between atoms: N_21  and  C_25
REMARK                            x       y       z     vdW  Elec       q    Type
REMARK                         _______ _______ _______ _____ _____    ______ ____
ROOT
ATOM      1  F   UNL     1       3.680  30.588  15.049  0.00  0.00    +0.000 F 
ATOM      2  N   UNL     1       7.865  28.908  15.359  0.00  0.00    +0.000 N 
ATOM      3  N   UNL     1       5.773  28.535  14.763  0.00  0.00    +0.000 NA
ATOM      4  C   UNL     1       7.223  30.085  15.614  0.00  0.00    +0.000 A 
ATOM      5  C   UNL     1       5.910  29.831  15.228  0.00  0.00    +0.000 A 
ATOM      6  C   UNL     1       5.319  32.129  15.867  0.00  0.00    +0.000 A 
ATOM      7  C   UNL     1       6.668  32.332  16.261  0.00  0.00    +0.000 A 
ATOM      8  C   UNL     1       7.631  31.314  16.138  0.00  0.00    +0.000 A 
ATOM      9  C   UNL     1       4.957  30.859  15.360  0.00  0.00    +0.000 A 
ATOM     10  C   UNL     1       6.979  28.006  14.854  0.00  0.00    +0.000 A 
ATOM     11  C   UNL     1       9.254  28.660  15.567  0.00  0.00    +0.000 C 
ENDROOT
BRANCH   7  14
ATOM     12  O   UNL     1       7.127  34.645  16.156  0.00  0.00    +0.000 OA
ATOM     13  N   UNL     1       7.506  33.605  18.177  0.00  0.00    +0.000 N 
ATOM     14  C   UNL     1       7.118  33.633  16.853  0.00  0.00    +0.000 C 
ATOM     15  H   UNL     1       7.834  32.756  18.620  0.00  0.00    +0.000 HD
BRANCH  13  16
ATOM     16  O   UNL     1       8.181  34.771  18.598  0.00  0.00    +0.000 OA
BRANCH  16  17
ATOM     17  C   UNL     1       8.166  34.750  19.929  0.00  0.00    +0.000 C 
ATOM     18  C   UNL     1       8.150  34.740  21.462  0.00  0.00    +0.000 C 
BRANCH  18  19
ATOM     19  O   UNL     1       8.136  34.739  22.790  0.00  0.00    +0.000 OA
ATOM     20  H   UNL     1       7.535  34.049  23.118  0.00  0.00    +0.000 HD
ENDBRANCH  18  19
ENDBRANCH  16  17
ENDBRANCH  13  16
ENDBRANCH   7  14
BRANCH   6  21
ATOM     21  N   UNL     1       4.377  33.187  15.959  0.00  0.00    +0.000 N 
ATOM     22  H   UNL     1       4.799  34.119  15.827  0.00  0.00    +0.000 HD
BRANCH  21  25
ATOM     23 BR   UNL     1      -1.632  33.518  14.975  0.00  0.00    +0.000 Br
ATOM     24  F   UNL     1       3.328  33.945  13.524  0.00  0.00    +0.000 F 
ATOM     25  C   UNL     1       2.982  33.214  15.754  0.00  0.00    +0.000 A 
ATOM     26  C   UNL     1       2.474  33.631  14.512  0.00  0.00    +0.000 A 
ATOM     27  C   UNL     1       2.058  32.917  16.758  0.00  0.00    +0.000 A 
ATOM     28  C   UNL     1       1.108  33.723  14.266  0.00  0.00    +0.000 A 
ATOM     29  C   UNL     1       0.685  33.002  16.531  0.00  0.00    +0.000 A 
ATOM     30  C   UNL     1       0.221  33.404  15.285  0.00  0.00    +0.000 A 
ENDBRANCH  21  25
ENDBRANCH   6  21
TORSDOF 6
ENDMDL
MODEL 3
REMARK VINA RESULT:      -7.5      1.710      2.004
REMARK  Name = 10288191_Binimetinib.pdbqt.pdb
REMARK  6 active torsions:
REMARK  status: ('A' for Active; 'I' for Inactive)
REMARK    1  A    between atoms: C_6  and  N_21
REMARK    2  A    between atoms: C_7  and  C_14
REMARK    3  A    between atoms: N_13  and  O_16
REMARK    4  A    between atoms: O_16  and  C_17
REMARK    5  A    between atoms: C_18  and  O_19
REMARK    6  A    between atoms: N_21  and  C_25
REMARK                            x       y       z     vdW  Elec       q    Type
REMARK                         _______ _______ _______ _____ _____    ______ ____
ROOT
ATOM      1  F   UNL     1       4.576  30.491  15.188  0.00  0.00    +0.000 F 
ATOM      2  N   UNL     1       8.706  28.655  15.229  0.00  0.00    +0.000 N 
ATOM      3  N   UNL     1       6.566  28.358  14.780  0.00  0.00    +0.000 NA
ATOM      4  C   UNL     1       8.128  29.857  15.516  0.00  0.00    +0.000 A 
ATOM      5  C   UNL     1       6.783  29.650  15.223  0.00  0.00    +0.000 A 
ATOM      6  C   UNL     1       6.324  31.974  15.879  0.00  0.00    +0.000 A 
ATOM      7  C   UNL     1       7.703  32.128  16.177  0.00  0.00    +0.000 A 
ATOM      8  C   UNL     1       8.616  31.073  15.999  0.00  0.00    +0.000 A 
ATOM      9  C   UNL     1       5.881  30.715  15.409  0.00  0.00    +0.000 A 
ATOM     10  C   UNL     1       7.754  27.784  14.794  0.00  0.00    +0.000 A 
ATOM     11  C   UNL     1      10.095  28.355  15.344  0.00  0.00    +0.000 C 
ENDROOT
BRANCH   7  14
ATOM     12  O   UNL     1       7.841  33.826  17.811  0.00  0.00    +0.000 OA
ATOM     13  N   UNL     1       9.177  34.070  15.950  0.00  0.00    +0.000 N 
ATOM     14  C   UNL     1       8.242  33.415  16.725  0.00  0.00    +0.000 C 
ATOM     15  H   UNL     1       9.230  33.935  14.948  0.00  0.00    +0.000 HD
BRANCH  13  16
ATOM     16  O   UNL     1       9.435  35.394  16.366  0.00  0.00    +0.000 OA
BRANCH  16  17
ATOM     17  C   UNL     1       8.499  36.153  15.799  0.00  0.00    +0.000 C 
ATOM     18  C   UNL     1       7.426  37.036  15.153  0.00  0.00    +0.000 C 
BRANCH  18  19
ATOM     19  O   UNL     1       6.499  37.809  14.597  0.00  0.00    +0.000 OA
ATOM     20  H   UNL     1       6.013  38.296  15.283  0.00  0.00    +0.000 HD
ENDBRANCH  18  19
ENDBRANCH  16  17
ENDBRANCH  13  16
ENDBRANCH   7  14
BRANCH   6  21
ATOM     21  N   UNL     1       5.432  33.068  16.025  0.00  0.00    +0.000 N 
ATOM     22  H   UNL     1       5.876  33.981  15.846  0.00  0.00    +0.000 HD
BRANCH  21  25
ATOM     23 BR   UNL     1      -0.620  33.626  15.526  0.00  0.00    +0.000 Br
ATOM     24  F   UNL     1       4.238  34.180  13.801  0.00  0.00    +0.000 F 
ATOM     25  C   UNL     1       4.027  33.145  15.925  0.00  0.00    +0.000 A 
ATOM     26  C   UNL     1       3.446  33.742  14.793  0.00  0.00    +0.000 A 
ATOM     27  C   UNL     1       3.166  32.722  16.940  0.00  0.00    +0.000 A 
ATOM     28  C   UNL     1       2.069  33.889  14.660  0.00  0.00    +0.000 A 
ATOM     29  C   UNL     1       1.783  32.859  16.825  0.00  0.00    +0.000 A 
ATOM     30  C   UNL     1       1.246  33.442  15.684  0.00  0.00    +0.000 A 
ENDBRANCH  21  25
ENDBRANCH   6  21
TORSDOF 6
ENDMDL
MODEL 4
REMARK VINA RESULT:      -7.5      3.589      6.458
REMARK  Name = 10288191_Binimetinib.pdbqt.pdb
REMARK  6 active torsions:
REMARK  status: ('A' for Active; 'I' for Inactive)
REMARK    1  A    between atoms: C_6  and  N_21
REMARK    2  A    between atoms: C_7  and  C_14
REMARK    3  A    between atoms: N_13  and  O_16
REMARK    4  A    between atoms: O_16  and  C_17
REMARK    5  A    between atoms: C_18  and  O_19
REMARK    6  A    between atoms: N_21  and  C_25
REMARK                            x       y       z     vdW  Elec       q    Type
REMARK                         _______ _______ _______ _____ _____    ______ ____
ROOT
ATOM      1  F   UNL     1       6.523  34.352  16.453  0.00  0.00    +0.000 F 
ATOM      2  N   UNL     1      10.192  36.643  15.141  0.00  0.00    +0.000 N 
ATOM      3  N   UNL     1       8.048  36.742  15.653  0.00  0.00    +0.000 NA
ATOM      4  C   UNL     1       9.863  35.362  15.480  0.00  0.00    +0.000 A 
ATOM      5  C   UNL     1       8.512  35.448  15.803  0.00  0.00    +0.000 A 
ATOM      6  C   UNL     1       8.518  33.039  16.292  0.00  0.00    +0.000 A 
ATOM      7  C   UNL     1       9.893  33.004  15.938  0.00  0.00    +0.000 A 
ATOM      8  C   UNL     1      10.577  34.163  15.529  0.00  0.00    +0.000 A 
ATOM      9  C   UNL     1       7.840  34.278  16.207  0.00  0.00    +0.000 A 
ATOM     10  C   UNL     1       9.093  37.440  15.253  0.00  0.00    +0.000 A 
ATOM     11  C   UNL     1      11.488  37.089  14.749  0.00  0.00    +0.000 C 
ENDROOT
BRANCH   7  14
ATOM     12  O   UNL     1      11.040  31.253  17.028  0.00  0.00    +0.000 OA
ATOM     13  N   UNL     1      10.921  31.139  14.729  0.00  0.00    +0.000 N 
ATOM     14  C   UNL     1      10.668  31.722  15.955  0.00  0.00    +0.000 C 
ATOM     15  H   UNL     1      10.939  31.680  13.874  0.00  0.00    +0.000 HD
BRANCH  13  16
ATOM     16  O   UNL     1      11.883  30.106  14.777  0.00  0.00    +0.000 OA
BRANCH  16  17
ATOM     17  C   UNL     1      11.209  28.964  14.655  0.00  0.00    +0.000 C 
ATOM     18  C   UNL     1      10.444  27.645  14.505  0.00  0.00    +0.000 C 
BRANCH  18  19
ATOM     19  O   UNL     1       9.787  26.498  14.372  0.00  0.00    +0.000 OA
ATOM     20  H   UNL     1       9.248  26.327  15.162  0.00  0.00    +0.000 HD
ENDBRANCH  18  19
ENDBRANCH  16  17
ENDBRANCH  13  16
ENDBRANCH   7  14
BRANCH   6  21
ATOM     21  N   UNL     1       7.863  31.865  16.745  0.00  0.00    +0.000 N 
ATOM     22  H   UNL     1       7.681  31.867  17.760  0.00  0.00    +0.000 HD
BRANCH  21  25
ATOM     23 BR   UNL     1       4.190  27.824  14.030  0.00  0.00    +0.000 Br
ATOM     24  F   UNL     1       5.116  32.030  16.918  0.00  0.00    +0.000 F 
ATOM     25  C   UNL     1       7.043  30.936  16.071  0.00  0.00    +0.000 A 
ATOM     26  C   UNL     1       5.647  31.027  16.199  0.00  0.00    +0.000 A 
ATOM     27  C   UNL     1       7.551  29.866  15.331  0.00  0.00    +0.000 A 
ATOM     28  C   UNL     1       4.789  30.113  15.597  0.00  0.00    +0.000 A 
ATOM     29  C   UNL     1       6.707  28.939  14.719  0.00  0.00    +0.000 A 
ATOM     30  C   UNL     1       5.331  29.072  14.857  0.00  0.00    +0.000 A 
ENDBRANCH  21  25
ENDBRANCH   6  21
TORSDOF 6
ENDMDL
MODEL 5
REMARK VINA RESULT:      -7.2      2.810      4.074
REMARK  Name = 10288191_Binimetinib.pdbqt.pdb
REMARK  6 active torsions:
REMARK  status: ('A' for Active; 'I' for Inactive)
REMARK    1  A    between atoms: C_6  and  N_21
REMARK    2  A    between atoms: C_7  and  C_14
REMARK    3  A    between atoms: N_13  and  O_16
REMARK    4  A    between atoms: O_16  and  C_17
REMARK    5  A    between atoms: C_18  and  O_19
REMARK    6  A    between atoms: N_21  and  C_25
REMARK                            x       y       z     vdW  Elec       q    Type
REMARK                         _______ _______ _______ _____ _____    ______ ____
ROOT
ATOM      1  F   UNL     1       7.666  26.878  14.656  0.00  0.00    +0.000 F 
ATOM      2  N   UNL     1      11.522  27.703  16.865  0.00  0.00    +0.000 N 
ATOM      3  N   UNL     1      10.238  26.182  15.910  0.00  0.00    +0.000 NA
ATOM      4  C   UNL     1      10.456  28.408  16.385  0.00  0.00    +0.000 A 
ATOM      5  C   UNL     1       9.664  27.434  15.785  0.00  0.00    +0.000 A 
ATOM      6  C   UNL     1       8.055  29.185  15.162  0.00  0.00    +0.000 A 
ATOM      7  C   UNL     1       8.892  30.137  15.801  0.00  0.00    +0.000 A 
ATOM      8  C   UNL     1      10.099  29.757  16.418  0.00  0.00    +0.000 A 
ATOM      9  C   UNL     1       8.458  27.829  15.175  0.00  0.00    +0.000 A 
ATOM     10  C   UNL     1      11.365  26.383  16.568  0.00  0.00    +0.000 A 
ATOM     11  C   UNL     1      12.640  28.257  17.553  0.00  0.00    +0.000 C 
ENDROOT
BRANCH   7  14
ATOM     12  O   UNL     1       8.012  32.129  14.892  0.00  0.00    +0.000 OA
ATOM     13  N   UNL     1       8.757  32.226  17.070  0.00  0.00    +0.000 N 
ATOM     14  C   UNL     1       8.512  31.584  15.873  0.00  0.00    +0.000 C 
ATOM     15  H   UNL     1       9.465  31.901  17.716  0.00  0.00    +0.000 HD
BRANCH  13  16
ATOM     16  O   UNL     1       8.649  33.632  16.995  0.00  0.00    +0.000 OA
BRANCH  16  17
ATOM     17  C   UNL     1       8.354  34.049  18.225  0.00  0.00    +0.000 C 
ATOM     18  C   UNL     1       8.025  34.537  19.640  0.00  0.00    +0.000 C 
BRANCH  18  19
ATOM     19  O   UNL     1       7.747  34.966  20.866  0.00  0.00    +0.000 OA
ATOM     20  H   UNL     1       7.100  34.375  21.289  0.00  0.00    +0.000 HD
ENDBRANCH  18  19
ENDBRANCH  16  17
ENDBRANCH  13  16
ENDBRANCH   7  14
BRANCH   6  21
ATOM     21  N   UNL     1       6.866  29.600  14.508  0.00  0.00    +0.000 N 
ATOM     22  H   UNL     1       6.954  29.623  13.481  0.00  0.00    +0.000 HD
BRANCH  21  25
ATOM     23 BR   UNL     1       0.964  29.391  16.030  0.00  0.00    +0.000 Br
ATOM     24  F   UNL     1       5.154  27.691  13.492  0.00  0.00    +0.000 F 
ATOM     25  C   UNL     1       5.515  29.556  14.913  0.00  0.00    +0.000 A 
ATOM     26  C   UNL     1       4.659  28.590  14.358  0.00  0.00    +0.000 A 
ATOM     27  C   UNL     1       4.953  30.483  15.793  0.00  0.00    +0.000 A 
ATOM     28  C   UNL     1       3.308  28.528  14.682  0.00  0.00    +0.000 A 
ATOM     29  C   UNL     1       3.601  30.436  16.132  0.00  0.00    +0.000 A 
ATOM     30  C   UNL     1       2.789  29.457  15.573  0.00  0.00    +0.000 A 
ENDBRANCH  21  25
ENDBRANCH   6  21
TORSDOF 6
ENDMDL
MODEL 6
REMARK VINA RESULT:      -7.2      4.259      6.743
REMARK  Name = 10288191_Binimetinib.pdbqt.pdb
REMARK  6 active torsions:
REMARK  status: ('A' for Active; 'I' for Inactive)
REMARK    1  A    between atoms: C_6  and  N_21
REMARK    2  A    between atoms: C_7  and  C_14
REMARK    3  A    between atoms: N_13  and  O_16
REMARK    4  A    between atoms: O_16  and  C_17
REMARK    5  A    between atoms: C_18  and  O_19
REMARK    6  A    between atoms: N_21  and  C_25
REMARK                            x       y       z     vdW  Elec       q    Type
REMARK                         _______ _______ _______ _____ _____    ______ ____
ROOT
ATOM      1  F   UNL     1       4.790  32.125  17.283  0.00  0.00    +0.000 F 
ATOM      2  N   UNL     1       2.731  28.892  14.888  0.00  0.00    +0.000 N 
ATOM      3  N   UNL     1       2.483  30.659  16.186  0.00  0.00    +0.000 NA
ATOM      4  C   UNL     1       4.005  29.297  15.159  0.00  0.00    +0.000 A 
ATOM      5  C   UNL     1       3.827  30.412  15.974  0.00  0.00    +0.000 A 
ATOM      6  C   UNL     1       6.269  30.661  16.100  0.00  0.00    +0.000 A 
ATOM      7  C   UNL     1       6.396  29.510  15.279  0.00  0.00    +0.000 A 
ATOM      8  C   UNL     1       5.267  28.818  14.802  0.00  0.00    +0.000 A 
ATOM      9  C   UNL     1       4.966  31.091  16.446  0.00  0.00    +0.000 A 
ATOM     10  C   UNL     1       1.847  29.720  15.511  0.00  0.00    +0.000 A 
ATOM     11  C   UNL     1       2.371  27.787  14.062  0.00  0.00    +0.000 C 
ENDROOT
BRANCH   7  14
ATOM     12  O   UNL     1       8.663  29.736  14.661  0.00  0.00    +0.000 OA
ATOM     13  N   UNL     1       7.856  27.587  14.868  0.00  0.00    +0.000 N 
ATOM     14  C   UNL     1       7.741  28.962  14.909  0.00  0.00    +0.000 C 
ATOM     15  H   UNL     1       7.054  26.988  14.717  0.00  0.00    +0.000 HD
BRANCH  13  16
ATOM     16  O   UNL     1       9.040  27.133  14.248  0.00  0.00    +0.000 OA
BRANCH  16  17
ATOM     17  C   UNL     1       9.873  26.800  15.232  0.00  0.00    +0.000 C 
ATOM     18  C   UNL     1      10.838  26.408  16.356  0.00  0.00    +0.000 C 
BRANCH  18  19
ATOM     19  O   UNL     1      11.679  26.063  17.325  0.00  0.00    +0.000 OA
ATOM     20  H   UNL     1      11.765  25.096  17.366  0.00  0.00    +0.000 HD
ENDBRANCH  18  19
ENDBRANCH  16  17
ENDBRANCH  13  16
ENDBRANCH   7  14
BRANCH   6  21
ATOM     21  N   UNL     1       7.422  31.366  16.530  0.00  0.00    +0.000 N 
ATOM     22  H   UNL     1       8.204  30.746  16.792  0.00  0.00    +0.000 HD
BRANCH  21  25
ATOM     23 BR   UNL     1       9.531  36.997  15.515  0.00  0.00    +0.000 Br
ATOM     24  F   UNL     1      10.047  31.847  15.833  0.00  0.00    +0.000 F 
ATOM     25  C   UNL     1       7.867  32.678  16.264  0.00  0.00    +0.000 A 
ATOM     26  C   UNL     1       9.216  32.897  15.937  0.00  0.00    +0.000 A 
ATOM     27  C   UNL     1       7.044  33.800  16.381  0.00  0.00    +0.000 A 
ATOM     28  C   UNL     1       9.722  34.173  15.710  0.00  0.00    +0.000 A 
ATOM     29  C   UNL     1       7.533  35.087  16.156  0.00  0.00    +0.000 A 
ATOM     30  C   UNL     1       8.870  35.262  15.821  0.00  0.00    +0.000 A 
ENDBRANCH  21  25
ENDBRANCH   6  21
TORSDOF 6
ENDMDL
MODEL 7
REMARK VINA RESULT:      -7.0      4.011      7.024
REMARK  Name = 10288191_Binimetinib.pdbqt.pdb
REMARK  6 active torsions:
REMARK  status: ('A' for Active; 'I' for Inactive)
REMARK    1  A    between atoms: C_6  and  N_21
REMARK    2  A    between atoms: C_7  and  C_14
REMARK    3  A    between atoms: N_13  and  O_16
REMARK    4  A    between atoms: O_16  and  C_17
REMARK    5  A    between atoms: C_18  and  O_19
REMARK    6  A    between atoms: N_21  and  C_25
REMARK                            x       y       z     vdW  Elec       q    Type
REMARK                         _______ _______ _______ _____ _____    ______ ____
ROOT
ATOM      1  F   UNL     1       9.465  33.121  16.787  0.00  0.00    +0.000 F 
ATOM      2  N   UNL     1       7.573  29.227  15.488  0.00  0.00    +0.000 N 
ATOM      3  N   UNL     1       9.405  30.237  16.192  0.00  0.00    +0.000 NA
ATOM      4  C   UNL     1       7.196  30.525  15.676  0.00  0.00    +0.000 A 
ATOM      5  C   UNL     1       8.361  31.142  16.123  0.00  0.00    +0.000 A 
ATOM      6  C   UNL     1       7.131  33.264  16.277  0.00  0.00    +0.000 A 
ATOM      7  C   UNL     1       5.974  32.591  15.804  0.00  0.00    +0.000 A 
ATOM      8  C   UNL     1       5.996  31.217  15.500  0.00  0.00    +0.000 A 
ATOM      9  C   UNL     1       8.324  32.517  16.420  0.00  0.00    +0.000 A 
ATOM     10  C   UNL     1       8.891  29.086  15.802  0.00  0.00    +0.000 A 
ATOM     11  C   UNL     1       6.720  28.172  15.050  0.00  0.00    +0.000 C 
ENDROOT
BRANCH   7  14
ATOM     12  O   UNL     1       4.677  34.334  14.883  0.00  0.00    +0.000 OA
ATOM     13  N   UNL     1       3.564  32.794  16.188  0.00  0.00    +0.000 N 
ATOM     14  C   UNL     1       4.686  33.321  15.579  0.00  0.00    +0.000 C 
ATOM     15  H   UNL     1       3.628  32.212  17.013  0.00  0.00    +0.000 HD
BRANCH  13  16
ATOM     16  O   UNL     1       2.451  33.663  16.181  0.00  0.00    +0.000 OA
BRANCH  16  17
ATOM     17  C   UNL     1       1.444  32.974  15.648  0.00  0.00    +0.000 C 
ATOM     18  C   UNL     1       0.288  32.171  15.043  0.00  0.00    +0.000 C 
BRANCH  18  19
ATOM     19  O   UNL     1      -0.713  31.468  14.523  0.00  0.00    +0.000 OA
ATOM     20  H   UNL     1      -1.542  31.973  14.581  0.00  0.00    +0.000 HD
ENDBRANCH  18  19
ENDBRANCH  16  17
ENDBRANCH  13  16
ENDBRANCH   7  14
BRANCH   6  21
ATOM     21  N   UNL     1       7.071  34.639  16.620  0.00  0.00    +0.000 N 
ATOM     22  H   UNL     1       6.341  34.853  17.317  0.00  0.00    +0.000 HD
BRANCH  21  25
ATOM     23 BR   UNL     1      11.145  39.175  16.498  0.00  0.00    +0.000 Br
ATOM     24  F   UNL     1       8.100  35.751  18.925  0.00  0.00    +0.000 F 
ATOM     25  C   UNL     1       8.042  35.660  16.555  0.00  0.00    +0.000 A 
ATOM     26  C   UNL     1       8.529  36.228  17.744  0.00  0.00    +0.000 A 
ATOM     27  C   UNL     1       8.500  36.201  15.351  0.00  0.00    +0.000 A 
ATOM     28  C   UNL     1       9.451  37.269  17.743  0.00  0.00    +0.000 A 
ATOM     29  C   UNL     1       9.425  37.244  15.329  0.00  0.00    +0.000 A 
ATOM     30  C   UNL     1       9.894  37.769  16.526  0.00  0.00    +0.000 A 
ENDBRANCH  21  25
ENDBRANCH   6  21
TORSDOF 6
ENDMDL
MODEL 8
REMARK VINA RESULT:      -7.0      4.245      6.817
REMARK  Name = 10288191_Binimetinib.pdbqt.pdb
REMARK  6 active torsions:
REMARK  status: ('A' for Active; 'I' for Inactive)
REMARK    1  A    between atoms: C_6  and  N_21
REMARK    2  A    between atoms: C_7  and  C_14
REMARK    3  A    between atoms: N_13  and  O_16
REMARK    4  A    between atoms: O_16  and  C_17
REMARK    5  A    between atoms: C_18  and  O_19
REMARK    6  A    between atoms: N_21  and  C_25
REMARK                            x       y       z     vdW  Elec       q    Type
REMARK                         _______ _______ _______ _____ _____    ______ ____
ROOT
ATOM      1  F   UNL     1       6.103  32.530  16.512  0.00  0.00    +0.000 F 
ATOM      2  N   UNL     1       4.382  28.704  14.829  0.00  0.00    +0.000 N 
ATOM      3  N   UNL     1       3.991  30.797  15.410  0.00  0.00    +0.000 NA
ATOM      4  C   UNL     1       5.591  29.171  15.257  0.00  0.00    +0.000 A 
ATOM      5  C   UNL     1       5.324  30.489  15.614  0.00  0.00    +0.000 A 
ATOM      6  C   UNL     1       7.687  30.757  16.236  0.00  0.00    +0.000 A 
ATOM      7  C   UNL     1       7.903  29.401  15.871  0.00  0.00    +0.000 A 
ATOM      8  C   UNL     1       6.858  28.597  15.379  0.00  0.00    +0.000 A 
ATOM      9  C   UNL     1       6.379  31.281  16.107  0.00  0.00    +0.000 A 
ATOM     10  C   UNL     1       3.450  29.693  14.932  0.00  0.00    +0.000 A 
ATOM     11  C   UNL     1       4.129  27.393  14.330  0.00  0.00    +0.000 C 
ENDROOT
BRANCH   7  14
ATOM     12  O   UNL     1       9.836  28.834  17.100  0.00  0.00    +0.000 OA
ATOM     13  N   UNL     1       9.750  28.110  14.914  0.00  0.00    +0.000 N 
ATOM     14  C   UNL     1       9.248  28.759  16.024  0.00  0.00    +0.000 C 
ATOM     15  H   UNL     1       9.455  28.350  13.976  0.00  0.00    +0.000 HD
BRANCH  13  16
ATOM     16  O   UNL     1      11.117  27.776  15.020  0.00  0.00    +0.000 OA
BRANCH  16  17
ATOM     17  C   UNL     1      11.759  28.550  14.147  0.00  0.00    +0.000 C 
ATOM     18  C   UNL     1      12.505  29.430  13.139  0.00  0.00    +0.000 C 
BRANCH  18  19
ATOM     19  O   UNL     1      13.156  30.187  12.262  0.00  0.00    +0.000 OA
ATOM     20  H   UNL     1      14.114  30.041  12.340  0.00  0.00    +0.000 HD
ENDBRANCH  18  19
ENDBRANCH  16  17
ENDBRANCH  13  16
ENDBRANCH   7  14
BRANCH   6  21
ATOM     21  N   UNL     1       8.767  31.559  16.686  0.00  0.00    +0.000 N 
ATOM     22  H   UNL     1       9.516  31.014  17.141  0.00  0.00    +0.000 HD
BRANCH  21  25
ATOM     23 BR   UNL     1      10.968  36.943  14.854  0.00  0.00    +0.000 Br
ATOM     24  F   UNL     1      10.364  31.808  14.452  0.00  0.00    +0.000 F 
ATOM     25  C   UNL     1       9.226  32.826  16.268  0.00  0.00    +0.000 A 
ATOM     26  C   UNL     1      10.061  32.920  15.142  0.00  0.00    +0.000 A 
ATOM     27  C   UNL     1       8.954  34.004  16.966  0.00  0.00    +0.000 A 
ATOM     28  C   UNL     1      10.583  34.135  14.710  0.00  0.00    +0.000 A 
ATOM     29  C   UNL     1       9.466  35.232  16.548  0.00  0.00    +0.000 A 
ATOM     30  C   UNL     1      10.277  35.287  15.421  0.00  0.00    +0.000 A 
ENDBRANCH  21  25
ENDBRANCH   6  21
TORSDOF 6
ENDMDL
MODEL 9
REMARK VINA RESULT:      -6.9      3.597      5.238
REMARK  Name = 10288191_Binimetinib.pdbqt.pdb
REMARK  6 active torsions:
REMARK  status: ('A' for Active; 'I' for Inactive)
REMARK    1  A    between atoms: C_6  and  N_21
REMARK    2  A    between atoms: C_7  and  C_14
REMARK    3  A    between atoms: N_13  and  O_16
REMARK    4  A    between atoms: O_16  and  C_17
REMARK    5  A    between atoms: C_18  and  O_19
REMARK    6  A    between atoms: N_21  and  C_25
REMARK                            x       y       z     vdW  Elec       q    Type
REMARK                         _______ _______ _______ _____ _____    ______ ____
ROOT
ATOM      1  F   UNL     1       9.023  29.208  17.273  0.00  0.00    +0.000 F 
ATOM      2  N   UNL     1      12.494  31.477  19.072  0.00  0.00    +0.000 N 
ATOM      3  N   UNL     1      11.245  29.659  19.153  0.00  0.00    +0.000 NA
ATOM      4  C   UNL     1      11.611  31.623  18.041  0.00  0.00    +0.000 A 
ATOM      5  C   UNL     1      10.838  30.467  18.107  0.00  0.00    +0.000 A 
ATOM      6  C   UNL     1       9.560  31.259  16.163  0.00  0.00    +0.000 A 
ATOM      7  C   UNL     1      10.368  32.427  16.148  0.00  0.00    +0.000 A 
ATOM      8  C   UNL     1      11.399  32.619  17.086  0.00  0.00    +0.000 A 
ATOM      9  C   UNL     1       9.807  30.291  17.164  0.00  0.00    +0.000 A 
ATOM     10  C   UNL     1      12.252  30.301  19.715  0.00  0.00    +0.000 A 
ATOM     11  C   UNL     1      13.525  32.398  19.416  0.00  0.00    +0.000 C 
ENDROOT
BRANCH   7  14
ATOM     12  O   UNL     1      10.292  33.292  13.954  0.00  0.00    +0.000 OA
ATOM     13  N   UNL     1       9.756  34.746  15.658  0.00  0.00    +0.000 N 
ATOM     14  C   UNL     1      10.137  33.520  15.150  0.00  0.00    +0.000 C 
ATOM     15  H   UNL     1       9.975  35.023  16.607  0.00  0.00    +0.000 HD
BRANCH  13  16
ATOM     16  O   UNL     1       9.828  35.799  14.720  0.00  0.00    +0.000 OA
BRANCH  16  17
ATOM     17  C   UNL     1       9.024  36.758  15.173  0.00  0.00    +0.000 C 
ATOM     18  C   UNL     1       8.093  37.864  15.682  0.00  0.00    +0.000 C 
BRANCH  18  19
ATOM     19  O   UNL     1       7.282  38.822  16.116  0.00  0.00    +0.000 OA
ATOM     20  H   UNL     1       7.362  39.610  15.553  0.00  0.00    +0.000 HD
ENDBRANCH  18  19
ENDBRANCH  16  17
ENDBRANCH  13  16
ENDBRANCH   7  14
BRANCH   6  21
ATOM     21  N   UNL     1       8.556  31.069  15.178  0.00  0.00    +0.000 N 
ATOM     22  H   UNL     1       8.936  30.978  14.223  0.00  0.00    +0.000 HD
BRANCH  21  25
ATOM     23 BR   UNL     1       2.917  28.753  15.347  0.00  0.00    +0.000 Br
ATOM     24  F   UNL     1       7.993  28.511  14.314  0.00  0.00    +0.000 F 
ATOM     25  C   UNL     1       7.247  30.550  15.269  0.00  0.00    +0.000 A 
ATOM     26  C   UNL     1       6.983  29.254  14.796  0.00  0.00    +0.000 A 
ATOM     27  C   UNL     1       6.164  31.294  15.742  0.00  0.00    +0.000 A 
ATOM     28  C   UNL     1       5.704  28.707  14.815  0.00  0.00    +0.000 A 
ATOM     29  C   UNL     1       4.875  30.764  15.770  0.00  0.00    +0.000 A 
ATOM     30  C   UNL     1       4.656  29.472  15.307  0.00  0.00    +0.000 A 
ENDBRANCH  21  25
ENDBRANCH   6  21
TORSDOF 6
ENDMDL
