MODEL 1
REMARK VINA RESULT:      -8.8      0.000      0.000
REMARK  Name = 10639_Physcion.pdbqt.pdb
REMARK  3 active torsions:
REMARK  status: ('A' for Active; 'I' for Inactive)
REMARK    1  A    between atoms: C_10  and  O_18
REMARK    2  A    between atoms: C_12  and  O_20
REMARK    3  A    between atoms: C_15  and  O_22
REMARK                            x       y       z     vdW  Elec       q    Type
REMARK                         _______ _______ _______ _____ _____    ______ ____
ROOT
ATOM      1  O   UNL     1       2.449  34.482  15.196  0.00  0.00    +0.000 OA
ATOM      2  O   UNL     1       0.982  29.361  15.235  0.00  0.00    +0.000 OA
ATOM      3  C   UNL     1       0.339  31.602  15.076  0.00  0.00    +0.000 A 
ATOM      4  C   UNL     1       0.732  32.938  15.068  0.00  0.00    +0.000 A 
ATOM      5  C   UNL     1       3.174  32.215  15.365  0.00  0.00    +0.000 A 
ATOM      6  C   UNL     1       2.752  30.885  15.370  0.00  0.00    +0.000 A 
ATOM      7  C   UNL     1       2.161  33.291  15.211  0.00  0.00    +0.000 C 
ATOM      8  C   UNL     1       1.332  30.533  15.228  0.00  0.00    +0.000 C 
ATOM      9  C   UNL     1      -1.006  31.252  14.942  0.00  0.00    +0.000 A 
ATOM     10  C   UNL     1      -0.250  33.928  14.921  0.00  0.00    +0.000 A 
ATOM     11  C   UNL     1      -1.968  32.245  14.797  0.00  0.00    +0.000 A 
ATOM     12  C   UNL     1       4.543  32.476  15.506  0.00  0.00    +0.000 A 
ATOM     13  C   UNL     1       3.669  29.838  15.512  0.00  0.00    +0.000 A 
ATOM     14  C   UNL     1      -1.596  33.585  14.786  0.00  0.00    +0.000 A 
ATOM     15  C   UNL     1       5.028  30.105  15.652  0.00  0.00    +0.000 A 
ATOM     16  C   UNL     1       5.457  31.430  15.648  0.00  0.00    +0.000 A 
ATOM     17  C   UNL     1      -3.411  31.866  14.652  0.00  0.00    +0.000 C 
ENDROOT
BRANCH  10  18
ATOM     18  O   UNL     1       0.037  35.267  14.900  0.00  0.00    +0.000 OA
ATOM     19  H   UNL     1       0.347  35.540  15.795  0.00  0.00    +0.000 HD
ENDBRANCH  10  18
BRANCH  12  20
ATOM     20  O   UNL     1       5.030  33.751  15.510  0.00  0.00    +0.000 OA
ATOM     21  H   UNL     1       5.576  33.897  16.303  0.00  0.00    +0.000 HD
ENDBRANCH  12  20
BRANCH  15  22
ATOM     22  O   UNL     1       5.844  29.010  15.785  0.00  0.00    +0.000 OA
ATOM     23  C   UNL     1       5.759  28.076  14.743  0.00  0.00    +0.000 C 
ENDBRANCH  15  22
TORSDOF 3
ENDMDL
MODEL 2
REMARK VINA RESULT:      -8.2      2.153      3.904
REMARK  Name = 10639_Physcion.pdbqt.pdb
REMARK  3 active torsions:
REMARK  status: ('A' for Active; 'I' for Inactive)
REMARK    1  A    between atoms: C_10  and  O_18
REMARK    2  A    between atoms: C_12  and  O_20
REMARK    3  A    between atoms: C_15  and  O_22
REMARK                            x       y       z     vdW  Elec       q    Type
REMARK                         _______ _______ _______ _____ _____    ______ ____
ROOT
ATOM      1  O   UNL     1       6.019  32.482  15.960  0.00  0.00    +0.000 OA
ATOM      2  O   UNL     1       4.018  27.670  14.853  0.00  0.00    +0.000 OA
ATOM      3  C   UNL     1       3.609  29.915  15.361  0.00  0.00    +0.000 A 
ATOM      4  C   UNL     1       4.141  31.169  15.650  0.00  0.00    +0.000 A 
ATOM      5  C   UNL     1       6.508  30.204  15.445  0.00  0.00    +0.000 A 
ATOM      6  C   UNL     1       5.947  28.959  15.158  0.00  0.00    +0.000 A 
ATOM      7  C   UNL     1       5.607  31.357  15.702  0.00  0.00    +0.000 C 
ATOM      8  C   UNL     1       4.490  28.770  15.106  0.00  0.00    +0.000 C 
ATOM      9  C   UNL     1       2.227  29.719  15.308  0.00  0.00    +0.000 A 
ATOM     10  C   UNL     1       3.262  32.235  15.887  0.00  0.00    +0.000 A 
ATOM     11  C   UNL     1       1.369  30.787  15.546  0.00  0.00    +0.000 A 
ATOM     12  C   UNL     1       7.904  30.309  15.478  0.00  0.00    +0.000 A 
ATOM     13  C   UNL     1       6.755  27.844  14.909  0.00  0.00    +0.000 A 
ATOM     14  C   UNL     1       1.880  32.048  15.836  0.00  0.00    +0.000 A 
ATOM     15  C   UNL     1       8.142  27.956  14.944  0.00  0.00    +0.000 A 
ATOM     16  C   UNL     1       8.709  29.196  15.229  0.00  0.00    +0.000 A 
ATOM     17  C   UNL     1      -0.114  30.575  15.488  0.00  0.00    +0.000 C 
ENDROOT
BRANCH  10  18
ATOM     18  O   UNL     1       3.689  33.503  16.179  0.00  0.00    +0.000 OA
ATOM     19  H   UNL     1       3.865  33.982  15.335  0.00  0.00    +0.000 HD
ENDBRANCH  10  18
BRANCH  12  20
ATOM     20  O   UNL     1       8.524  31.494  15.751  0.00  0.00    +0.000 OA
ATOM     21  H   UNL     1       9.291  31.342  16.332  0.00  0.00    +0.000 HD
ENDBRANCH  12  20
BRANCH  15  22
ATOM     22  O   UNL     1       8.844  26.806  14.686  0.00  0.00    +0.000 OA
ATOM     23  C   UNL     1      10.150  26.781  15.194  0.00  0.00    +0.000 C 
ENDBRANCH  15  22
TORSDOF 3
ENDMDL
MODEL 3
REMARK VINA RESULT:      -6.8     33.475     34.664
REMARK  Name = 10639_Physcion.pdbqt.pdb
REMARK  3 active torsions:
REMARK  status: ('A' for Active; 'I' for Inactive)
REMARK    1  A    between atoms: C_10  and  O_18
REMARK    2  A    between atoms: C_12  and  O_20
REMARK    3  A    between atoms: C_15  and  O_22
REMARK                            x       y       z     vdW  Elec       q    Type
REMARK                         _______ _______ _______ _____ _____    ______ ____
ROOT
ATOM      1  O   UNL     1       4.079  60.182  -5.610  0.00  0.00    +0.000 OA
ATOM      2  O   UNL     1       2.794  55.554  -7.916  0.00  0.00    +0.000 OA
ATOM      3  C   UNL     1       4.478  56.989  -7.160  0.00  0.00    +0.000 A 
ATOM      4  C   UNL     1       4.804  58.200  -6.557  0.00  0.00    +0.000 A 
ATOM      5  C   UNL     1       2.311  58.766  -6.361  0.00  0.00    +0.000 A 
ATOM      6  C   UNL     1       2.013  57.545  -6.968  0.00  0.00    +0.000 A 
ATOM      7  C   UNL     1       3.734  59.130  -6.137  0.00  0.00    +0.000 C 
ATOM      8  C   UNL     1       3.076  56.620  -7.386  0.00  0.00    +0.000 C 
ATOM      9  C   UNL     1       5.476  56.099  -7.562  0.00  0.00    +0.000 A 
ATOM     10  C   UNL     1       6.157  58.513  -6.360  0.00  0.00    +0.000 A 
ATOM     11  C   UNL     1       6.813  56.423  -7.361  0.00  0.00    +0.000 A 
ATOM     12  C   UNL     1       1.246  59.598  -5.989  0.00  0.00    +0.000 A 
ATOM     13  C   UNL     1       0.688  57.159  -7.199  0.00  0.00    +0.000 A 
ATOM     14  C   UNL     1       7.160  57.629  -6.760  0.00  0.00    +0.000 A 
ATOM     15  C   UNL     1      -0.364  57.990  -6.827  0.00  0.00    +0.000 A 
ATOM     16  C   UNL     1      -0.075  59.211  -6.221  0.00  0.00    +0.000 A 
ATOM     17  C   UNL     1       7.883  55.466  -7.794  0.00  0.00    +0.000 C 
ENDROOT
BRANCH  10  18
ATOM     18  O   UNL     1       6.576  59.678  -5.777  0.00  0.00    +0.000 OA
ATOM     19  H   UNL     1       7.211  60.127  -6.383  0.00  0.00    +0.000 HD
ENDBRANCH  10  18
BRANCH  12  20
ATOM     20  O   UNL     1       1.460  60.806  -5.391  0.00  0.00    +0.000 OA
ATOM     21  H   UNL     1       2.277  61.209  -5.737  0.00  0.00    +0.000 HD
ENDBRANCH  12  20
BRANCH  15  22
ATOM     22  O   UNL     1      -1.625  57.521  -7.097  0.00  0.00    +0.000 OA
ATOM     23  C   UNL     1      -2.554  58.499  -7.477  0.00  0.00    +0.000 C 
ENDBRANCH  15  22
TORSDOF 3
ENDMDL
MODEL 4
REMARK VINA RESULT:      -6.8      4.849      7.540
REMARK  Name = 10639_Physcion.pdbqt.pdb
REMARK  3 active torsions:
REMARK  status: ('A' for Active; 'I' for Inactive)
REMARK    1  A    between atoms: C_10  and  O_18
REMARK    2  A    between atoms: C_12  and  O_20
REMARK    3  A    between atoms: C_15  and  O_22
REMARK                            x       y       z     vdW  Elec       q    Type
REMARK                         _______ _______ _______ _____ _____    ______ ____
ROOT
ATOM      1  O   UNL     1       8.348  31.627  16.524  0.00  0.00    +0.000 OA
ATOM      2  O   UNL     1       8.822  26.777  14.371  0.00  0.00    +0.000 OA
ATOM      3  C   UNL     1       7.408  28.495  15.090  0.00  0.00    +0.000 A 
ATOM      4  C   UNL     1       7.294  29.763  15.654  0.00  0.00    +0.000 A 
ATOM      5  C   UNL     1       9.849  29.914  15.812  0.00  0.00    +0.000 A 
ATOM      6  C   UNL     1       9.933  28.642  15.245  0.00  0.00    +0.000 A 
ATOM      7  C   UNL     1       8.508  30.516  16.034  0.00  0.00    +0.000 C 
ATOM      8  C   UNL     1       8.727  27.892  14.867  0.00  0.00    +0.000 C 
ATOM      9  C   UNL     1       6.271  27.770  14.725  0.00  0.00    +0.000 A 
ATOM     10  C   UNL     1       6.014  30.301  15.849  0.00  0.00    +0.000 A 
ATOM     11  C   UNL     1       5.009  28.317  14.926  0.00  0.00    +0.000 A 
ATOM     12  C   UNL     1      11.040  30.570  16.147  0.00  0.00    +0.000 A 
ATOM     13  C   UNL     1      11.173  28.034  15.017  0.00  0.00    +0.000 A 
ATOM     14  C   UNL     1       4.874  29.582  15.487  0.00  0.00    +0.000 A 
ATOM     15  C   UNL     1      12.352  28.692  15.353  0.00  0.00    +0.000 A 
ATOM     16  C   UNL     1      12.277  29.963  15.919  0.00  0.00    +0.000 A 
ATOM     17  C   UNL     1       3.791  27.537  14.533  0.00  0.00    +0.000 C 
ENDROOT
BRANCH  10  18
ATOM     18  O   UNL     1       5.800  31.538  16.395  0.00  0.00    +0.000 OA
ATOM     19  H   UNL     1       6.497  32.155  16.069  0.00  0.00    +0.000 HD
ENDBRANCH  10  18
BRANCH  12  20
ATOM     20  O   UNL     1      11.037  31.816  16.705  0.00  0.00    +0.000 OA
ATOM     21  H   UNL     1      10.289  31.902  17.323  0.00  0.00    +0.000 HD
ENDBRANCH  12  20
BRANCH  15  22
ATOM     22  O   UNL     1      13.515  28.012  15.090  0.00  0.00    +0.000 OA
ATOM     23  C   UNL     1      14.422  27.950  16.157  0.00  0.00    +0.000 C 
ENDBRANCH  15  22
TORSDOF 3
ENDMDL
MODEL 5
REMARK VINA RESULT:      -6.7     33.539     34.152
REMARK  Name = 10639_Physcion.pdbqt.pdb
REMARK  3 active torsions:
REMARK  status: ('A' for Active; 'I' for Inactive)
REMARK    1  A    between atoms: C_10  and  O_18
REMARK    2  A    between atoms: C_12  and  O_20
REMARK    3  A    between atoms: C_15  and  O_22
REMARK                            x       y       z     vdW  Elec       q    Type
REMARK                         _______ _______ _______ _____ _____    ______ ____
ROOT
ATOM      1  O   UNL     1       3.962  60.005  -5.591  0.00  0.00    +0.000 OA
ATOM      2  O   UNL     1       2.600  55.570  -8.211  0.00  0.00    +0.000 OA
ATOM      3  C   UNL     1       1.909  57.546  -7.170  0.00  0.00    +0.000 A 
ATOM      4  C   UNL     1       2.274  58.702  -6.486  0.00  0.00    +0.000 A 
ATOM      5  C   UNL     1       4.737  58.004  -6.637  0.00  0.00    +0.000 A 
ATOM      6  C   UNL     1       4.342  56.854  -7.320  0.00  0.00    +0.000 A 
ATOM      7  C   UNL     1       3.698  58.972  -6.196  0.00  0.00    +0.000 C 
ATOM      8  C   UNL     1       2.926  56.584  -7.610  0.00  0.00    +0.000 C 
ATOM      9  C   UNL     1       0.568  57.276  -7.453  0.00  0.00    +0.000 A 
ATOM     10  C   UNL     1       1.269  59.593  -6.084  0.00  0.00    +0.000 A 
ATOM     11  C   UNL     1      -0.417  58.170  -7.047  0.00  0.00    +0.000 A 
ATOM     12  C   UNL     1       6.103  58.196  -6.396  0.00  0.00    +0.000 A 
ATOM     13  C   UNL     1       5.283  55.915  -7.755  0.00  0.00    +0.000 A 
ATOM     14  C   UNL     1      -0.073  59.330  -6.363  0.00  0.00    +0.000 A 
ATOM     15  C   UNL     1       6.639  56.111  -7.513  0.00  0.00    +0.000 A 
ATOM     16  C   UNL     1       7.042  57.257  -6.831  0.00  0.00    +0.000 A 
ATOM     17  C   UNL     1      -1.856  57.877  -7.352  0.00  0.00    +0.000 C 
ENDROOT
BRANCH  10  18
ATOM     18  O   UNL     1       1.528  60.755  -5.407  0.00  0.00    +0.000 OA
ATOM     19  H   UNL     1       1.064  60.728  -4.538  0.00  0.00    +0.000 HD
ENDBRANCH  10  18
BRANCH  12  20
ATOM     20  O   UNL     1       6.565  59.296  -5.733  0.00  0.00    +0.000 OA
ATOM     21  H   UNL     1       6.868  59.046  -4.842  0.00  0.00    +0.000 HD
ENDBRANCH  12  20
BRANCH  15  22
ATOM     22  O   UNL     1       7.481  55.132  -7.979  0.00  0.00    +0.000 OA
ATOM     23  C   UNL     1       8.625  55.599  -8.640  0.00  0.00    +0.000 C 
ENDBRANCH  15  22
TORSDOF 3
ENDMDL
MODEL 6
REMARK VINA RESULT:      -6.5     33.265     34.368
REMARK  Name = 10639_Physcion.pdbqt.pdb
REMARK  3 active torsions:
REMARK  status: ('A' for Active; 'I' for Inactive)
REMARK    1  A    between atoms: C_10  and  O_18
REMARK    2  A    between atoms: C_12  and  O_20
REMARK    3  A    between atoms: C_15  and  O_22
REMARK                            x       y       z     vdW  Elec       q    Type
REMARK                         _______ _______ _______ _____ _____    ______ ____
ROOT
ATOM      1  O   UNL     1       4.973  55.061  -7.817  0.00  0.00    +0.000 OA
ATOM      2  O   UNL     1       5.248  60.110  -6.139  0.00  0.00    +0.000 OA
ATOM      3  C   UNL     1       3.906  58.276  -6.686  0.00  0.00    +0.000 A 
ATOM      4  C   UNL     1       3.843  56.956  -7.125  0.00  0.00    +0.000 A 
ATOM      5  C   UNL     1       6.402  56.894  -7.277  0.00  0.00    +0.000 A 
ATOM      6  C   UNL     1       6.435  58.217  -6.834  0.00  0.00    +0.000 A 
ATOM      7  C   UNL     1       5.088  56.220  -7.436  0.00  0.00    +0.000 C 
ATOM      8  C   UNL     1       5.198  58.951  -6.525  0.00  0.00    +0.000 C 
ATOM      9  C   UNL     1       2.740  58.986  -6.388  0.00  0.00    +0.000 A 
ATOM     10  C   UNL     1       2.586  56.351  -7.264  0.00  0.00    +0.000 A 
ATOM     11  C   UNL     1       1.501  58.372  -6.531  0.00  0.00    +0.000 A 
ATOM     12  C   UNL     1       7.620  56.258  -7.552  0.00  0.00    +0.000 A 
ATOM     13  C   UNL     1       7.649  58.893  -6.670  0.00  0.00    +0.000 A 
ATOM     14  C   UNL     1       1.418  57.054  -6.969  0.00  0.00    +0.000 A 
ATOM     15  C   UNL     1       8.854  58.255  -6.945  0.00  0.00    +0.000 A 
ATOM     16  C   UNL     1       8.830  56.934  -7.387  0.00  0.00    +0.000 A 
ATOM     17  C   UNL     1       0.252  59.136  -6.211  0.00  0.00    +0.000 C 
ENDROOT
BRANCH  10  18
ATOM     18  O   UNL     1       2.423  55.060  -7.689  0.00  0.00    +0.000 OA
ATOM     19  H   UNL     1       2.655  55.007  -8.646  0.00  0.00    +0.000 HD
ENDBRANCH  10  18
BRANCH  12  20
ATOM     20  O   UNL     1       7.667  54.966  -7.988  0.00  0.00    +0.000 OA
ATOM     21  H   UNL     1       7.829  54.367  -7.237  0.00  0.00    +0.000 HD
ENDBRANCH  12  20
BRANCH  15  22
ATOM     22  O   UNL     1       9.988  59.004  -6.752  0.00  0.00    +0.000 OA
ATOM     23  C   UNL     1       9.772  60.278  -6.209  0.00  0.00    +0.000 C 
ENDBRANCH  15  22
TORSDOF 3
ENDMDL
MODEL 7
REMARK VINA RESULT:      -6.4     11.628     14.417
REMARK  Name = 10639_Physcion.pdbqt.pdb
REMARK  3 active torsions:
REMARK  status: ('A' for Active; 'I' for Inactive)
REMARK    1  A    between atoms: C_10  and  O_18
REMARK    2  A    between atoms: C_12  and  O_20
REMARK    3  A    between atoms: C_15  and  O_22
REMARK                            x       y       z     vdW  Elec       q    Type
REMARK                         _______ _______ _______ _____ _____    ______ ____
ROOT
ATOM      1  O   UNL     1      -9.477  39.902   9.847  0.00  0.00    +0.000 OA
ATOM      2  O   UNL     1      -8.667  40.976  15.002  0.00  0.00    +0.000 OA
ATOM      3  C   UNL     1     -10.142  40.254  13.339  0.00  0.00    +0.000 A 
ATOM      4  C   UNL     1     -10.345  39.976  11.989  0.00  0.00    +0.000 A 
ATOM      5  C   UNL     1      -7.920  40.648  11.494  0.00  0.00    +0.000 A 
ATOM      6  C   UNL     1      -7.745  40.919  12.852  0.00  0.00    +0.000 A 
ATOM      7  C   UNL     1      -9.242  40.163  11.021  0.00  0.00    +0.000 C 
ATOM      8  C   UNL     1      -8.840  40.733  13.816  0.00  0.00    +0.000 C 
ATOM      9  C   UNL     1     -11.172  40.083  14.266  0.00  0.00    +0.000 A 
ATOM     10  C   UNL     1     -11.605  39.520  11.577  0.00  0.00    +0.000 A 
ATOM     11  C   UNL     1     -12.416  39.630  13.841  0.00  0.00    +0.000 A 
ATOM     12  C   UNL     1      -6.832  40.847  10.634  0.00  0.00    +0.000 A 
ATOM     13  C   UNL     1      -6.518  41.377  13.344  0.00  0.00    +0.000 A 
ATOM     14  C   UNL     1     -12.638  39.347  12.498  0.00  0.00    +0.000 A 
ATOM     15  C   UNL     1      -5.442  41.573  12.484  0.00  0.00    +0.000 A 
ATOM     16  C   UNL     1      -5.608  41.305  11.127  0.00  0.00    +0.000 A 
ATOM     17  C   UNL     1     -13.520  39.447  14.839  0.00  0.00    +0.000 C 
ENDROOT
BRANCH  10  18
ATOM     18  O   UNL     1     -11.900  39.220  10.274  0.00  0.00    +0.000 OA
ATOM     19  H   UNL     1     -12.615  38.541  10.257  0.00  0.00    +0.000 HD
ENDBRANCH  10  18
BRANCH  12  20
ATOM     20  O   UNL     1      -6.928  40.604   9.295  0.00  0.00    +0.000 OA
ATOM     21  H   UNL     1      -6.632  39.697   9.099  0.00  0.00    +0.000 HD
ENDBRANCH  12  20
BRANCH  15  22
ATOM     22  O   UNL     1      -4.284  42.024  13.065  0.00  0.00    +0.000 OA
ATOM     23  C   UNL     1      -3.493  41.032  13.661  0.00  0.00    +0.000 C 
ENDBRANCH  15  22
TORSDOF 3
ENDMDL
MODEL 8
REMARK VINA RESULT:      -6.1     11.198     13.052
REMARK  Name = 10639_Physcion.pdbqt.pdb
REMARK  3 active torsions:
REMARK  status: ('A' for Active; 'I' for Inactive)
REMARK    1  A    between atoms: C_10  and  O_18
REMARK    2  A    between atoms: C_12  and  O_20
REMARK    3  A    between atoms: C_15  and  O_22
REMARK                            x       y       z     vdW  Elec       q    Type
REMARK                         _______ _______ _______ _____ _____    ______ ____
ROOT
ATOM      1  O   UNL     1       1.986  46.880  19.121  0.00  0.00    +0.000 OA
ATOM      2  O   UNL     1       0.628  41.941  17.656  0.00  0.00    +0.000 OA
ATOM      3  C   UNL     1       0.094  43.861  18.878  0.00  0.00    +0.000 A 
ATOM      4  C   UNL     1       0.457  45.151  19.256  0.00  0.00    +0.000 A 
ATOM      5  C   UNL     1       2.594  44.952  17.852  0.00  0.00    +0.000 A 
ATOM      6  C   UNL     1       2.205  43.662  17.490  0.00  0.00    +0.000 A 
ATOM      7  C   UNL     1       1.718  45.741  18.757  0.00  0.00    +0.000 C 
ATOM      8  C   UNL     1       0.952  43.074  17.985  0.00  0.00    +0.000 C 
ATOM      9  C   UNL     1      -1.094  43.288  19.340  0.00  0.00    +0.000 A 
ATOM     10  C   UNL     1      -0.393  45.867  20.111  0.00  0.00    +0.000 A 
ATOM     11  C   UNL     1      -1.925  44.012  20.187  0.00  0.00    +0.000 A 
ATOM     12  C   UNL     1       3.801  45.448  17.343  0.00  0.00    +0.000 A 
ATOM     13  C   UNL     1       2.997  42.881  16.641  0.00  0.00    +0.000 A 
ATOM     14  C   UNL     1      -1.581  45.302  20.576  0.00  0.00    +0.000 A 
ATOM     15  C   UNL     1       4.195  43.380  16.138  0.00  0.00    +0.000 A 
ATOM     16  C   UNL     1       4.590  44.667  16.495  0.00  0.00    +0.000 A 
ATOM     17  C   UNL     1      -3.199  43.395  20.681  0.00  0.00    +0.000 C 
ENDROOT
BRANCH  10  18
ATOM     18  O   UNL     1      -0.122  47.140  20.537  0.00  0.00    +0.000 OA
ATOM     19  H   UNL     1       0.123  47.111  21.492  0.00  0.00    +0.000 HD
ENDBRANCH  10  18
BRANCH  12  20
ATOM     20  O   UNL     1       4.246  46.700  17.652  0.00  0.00    +0.000 OA
ATOM     21  H   UNL     1       5.211  46.687  17.787  0.00  0.00    +0.000 HD
ENDBRANCH  12  20
BRANCH  15  22
ATOM     22  O   UNL     1       4.898  42.537  15.315  0.00  0.00    +0.000 OA
ATOM     23  C   UNL     1       4.909  41.192  15.711  0.00  0.00    +0.000 C 
ENDBRANCH  15  22
TORSDOF 3
ENDMDL
MODEL 9
REMARK VINA RESULT:      -5.9     21.004     23.032
REMARK  Name = 10639_Physcion.pdbqt.pdb
REMARK  3 active torsions:
REMARK  status: ('A' for Active; 'I' for Inactive)
REMARK    1  A    between atoms: C_10  and  O_18
REMARK    2  A    between atoms: C_12  and  O_20
REMARK    3  A    between atoms: C_15  and  O_22
REMARK                            x       y       z     vdW  Elec       q    Type
REMARK                         _______ _______ _______ _____ _____    ______ ____
ROOT
ATOM      1  O   UNL     1      -8.452  21.966  29.408  0.00  0.00    +0.000 OA
ATOM      2  O   UNL     1     -10.160  17.202  31.071  0.00  0.00    +0.000 OA
ATOM      3  C   UNL     1      -8.688  18.992  31.372  0.00  0.00    +0.000 A 
ATOM      4  C   UNL     1      -8.247  20.237  30.930  0.00  0.00    +0.000 A 
ATOM      5  C   UNL     1      -9.983  20.172  29.043  0.00  0.00    +0.000 A 
ATOM      6  C   UNL     1     -10.404  18.926  29.508  0.00  0.00    +0.000 A 
ATOM      7  C   UNL     1      -8.879  20.870  29.752  0.00  0.00    +0.000 C 
ATOM      8  C   UNL     1      -9.777  18.295  30.679  0.00  0.00    +0.000 C 
ATOM      9  C   UNL     1      -8.102  18.380  32.482  0.00  0.00    +0.000 A 
ATOM     10  C   UNL     1      -7.203  20.867  31.621  0.00  0.00    +0.000 A 
ATOM     11  C   UNL     1      -7.068  19.018  33.157  0.00  0.00    +0.000 A 
ATOM     12  C   UNL     1     -10.626  20.712  27.922  0.00  0.00    +0.000 A 
ATOM     13  C   UNL     1     -11.440  18.231  28.874  0.00  0.00    +0.000 A 
ATOM     14  C   UNL     1      -6.614  20.262  32.732  0.00  0.00    +0.000 A 
ATOM     15  C   UNL     1     -12.074  18.774  27.761  0.00  0.00    +0.000 A 
ATOM     16  C   UNL     1     -11.660  20.018  27.290  0.00  0.00    +0.000 A 
ATOM     17  C   UNL     1      -6.441  18.359  34.349  0.00  0.00    +0.000 C 
ENDROOT
BRANCH  10  18
ATOM     18  O   UNL     1      -6.702  22.090  31.263  0.00  0.00    +0.000 OA
ATOM     19  H   UNL     1      -5.723  22.019  31.173  0.00  0.00    +0.000 HD
ENDBRANCH  10  18
BRANCH  12  20
ATOM     20  O   UNL     1     -10.270  21.926  27.410  0.00  0.00    +0.000 OA
ATOM     21  H   UNL     1     -11.003  22.296  26.887  0.00  0.00    +0.000 HD
ENDBRANCH  12  20
BRANCH  15  22
ATOM     22  O   UNL     1     -13.077  18.015  27.212  0.00  0.00    +0.000 OA
ATOM     23  C   UNL     1     -13.126  16.686  27.654  0.00  0.00    +0.000 C 
ENDBRANCH  15  22
TORSDOF 3
ENDMDL
