MODEL 1
REMARK VINA RESULT:      -9.7      0.000      0.000
REMARK  Name = 10940649_MilnamideD.pdbqt.pdb
REMARK  7 active torsions:
REMARK  status: ('A' for Active; 'I' for Inactive)
REMARK    1  A    between atoms: C_3  and  C_8
REMARK    2  A    between atoms: C_22  and  C_25
REMARK    3  A    between atoms: C_22  and  C_38
REMARK    4  A    between atoms: N_24  and  C_27
REMARK    5  A    between atoms: C_27  and  C_28
REMARK    6  A    between atoms: C_32  and  C_35
REMARK    7  A    between atoms: C_35  and  O_36
REMARK                            x       y       z     vdW  Elec       q    Type
REMARK                         _______ _______ _______ _____ _____    ______ ____
ROOT
ATOM      1  O   UNL     1       7.274  34.683  16.174  0.00  0.00    +0.000 OA
ATOM      2  N   UNL     1       7.810  33.531  18.056  0.00  0.00    +0.000 N 
ATOM      3  C   UNL     1       7.249  33.628  16.797  0.00  0.00    +0.000 C 
ATOM      4  H   UNL     1       7.678  32.661  18.584  0.00  0.00    +0.000 HD
ATOM      5  C   UNL     1       8.500  34.573  18.722  0.00  0.00    +0.000 C 
ENDROOT
BRANCH   3   9
ATOM      6  N   UNL     1       7.426  31.429  15.471  0.00  0.00    +0.000 NA
ATOM      7  N   UNL     1       4.421  29.007  14.771  0.00  0.00    +0.000 N 
ATOM      8  C   UNL     1       5.063  32.345  16.311  0.00  0.00    +0.000 C 
ATOM      9  C   UNL     1       6.619  32.383  16.250  0.00  0.00    +0.000 C 
ATOM     10  C   UNL     1       4.442  31.017  15.775  0.00  0.00    +0.000 A 
ATOM     11  C   UNL     1       5.198  30.044  15.154  0.00  0.00    +0.000 A 
ATOM     12  C   UNL     1       4.471  33.442  15.378  0.00  0.00    +0.000 C 
ATOM     13  C   UNL     1       4.597  32.428  17.794  0.00  0.00    +0.000 C 
ATOM     14  C   UNL     1       3.091  30.516  15.746  0.00  0.00    +0.000 A 
ATOM     15  C   UNL     1       6.559  30.352  15.068  0.00  0.00    +0.000 C 
ATOM     16  C   UNL     1       3.113  29.255  15.116  0.00  0.00    +0.000 A 
ATOM     17  C   UNL     1       8.486  30.852  16.283  0.00  0.00    +0.000 C 
ATOM     18  C   UNL     1       1.854  31.021  16.194  0.00  0.00    +0.000 A 
ATOM     19  C   UNL     1       4.899  27.848  14.097  0.00  0.00    +0.000 C 
ATOM     20  C   UNL     1       1.949  28.495  14.927  0.00  0.00    +0.000 A 
ATOM     21  C   UNL     1       0.693  30.269  16.008  0.00  0.00    +0.000 A 
ATOM     22  C   UNL     1       0.744  29.027  15.387  0.00  0.00    +0.000 A 
ENDBRANCH   3   9
BRANCH   5  25
ATOM     23  O   UNL     1       8.132  36.813  18.206  0.00  0.00    +0.000 OA
ATOM     24  N   UNL     1       9.996  35.768  17.198  0.00  0.00    +0.000 N 
ATOM     25  C   UNL     1       8.833  35.826  18.002  0.00  0.00    +0.000 C 
ATOM     26  C   UNL     1      10.774  34.549  16.953  0.00  0.00    +0.000 C 
BRANCH  24  27
ATOM     27  C   UNL     1      10.499  36.931  16.588  0.00  0.00    +0.000 C 
ATOM     28  C   UNL     1      11.143  37.958  17.359  0.00  0.00    +0.000 C 
ATOM     29  C   UNL     1      11.727  38.892  18.051  0.00  0.00    +0.000 C 
ATOM     30  C   UNL     1      13.210  39.062  17.793  0.00  0.00    +0.000 C 
BRANCH  27  31
ATOM     31  C   UNL     1      10.412  37.138  15.149  0.00  0.00    +0.000 C 
ATOM     32  C   UNL     1       9.109  37.580  14.513  0.00  0.00    +0.000 C 
ATOM     33  C   UNL     1      11.659  37.519  14.373  0.00  0.00    +0.000 C 
ENDBRANCH  27  31
BRANCH  29  35
ATOM     34  O   UNL     1      11.404  40.459  19.856  0.00  0.00    +0.000 OA
ATOM     35  C   UNL     1      10.936  39.706  19.014  0.00  0.00    +0.000 C 
BRANCH  35  36
ATOM     36  O   UNL     1       9.599  39.561  18.905  0.00  0.00    +0.000 OA
ATOM     37  H   UNL     1       9.299  40.325  18.371  0.00  0.00    +0.000 HD
ENDBRANCH  35  36
ENDBRANCH  29  35
ENDBRANCH  24  27
ENDBRANCH   5  25
BRANCH   5  38
ATOM     38  C   UNL     1       9.174  34.414  20.076  0.00  0.00    +0.000 C 
ATOM     39  C   UNL     1       8.052  34.546  21.155  0.00  0.00    +0.000 C 
ATOM     40  C   UNL     1       9.755  32.972  20.152  0.00  0.00    +0.000 C 
ATOM     41  C   UNL     1      10.269  35.473  20.351  0.00  0.00    +0.000 C 
ENDBRANCH   5  38
TORSDOF 7
ENDMDL
MODEL 2
REMARK VINA RESULT:      -9.2      1.562      3.698
REMARK  Name = 10940649_MilnamideD.pdbqt.pdb
REMARK  7 active torsions:
REMARK  status: ('A' for Active; 'I' for Inactive)
REMARK    1  A    between atoms: C_3  and  C_8
REMARK    2  A    between atoms: C_22  and  C_25
REMARK    3  A    between atoms: C_22  and  C_38
REMARK    4  A    between atoms: N_24  and  C_27
REMARK    5  A    between atoms: C_27  and  C_28
REMARK    6  A    between atoms: C_32  and  C_35
REMARK    7  A    between atoms: C_35  and  O_36
REMARK                            x       y       z     vdW  Elec       q    Type
REMARK                         _______ _______ _______ _____ _____    ______ ____
ROOT
ATOM      1  O   UNL     1       8.288  33.857  17.997  0.00  0.00    +0.000 OA
ATOM      2  N   UNL     1       7.933  34.882  16.002  0.00  0.00    +0.000 N 
ATOM      3  C   UNL     1       7.839  33.801  16.858  0.00  0.00    +0.000 C 
ATOM      4  H   UNL     1       7.637  34.760  15.027  0.00  0.00    +0.000 HD
ATOM      5  C   UNL     1       8.481  36.143  16.341  0.00  0.00    +0.000 C 
ENDROOT
BRANCH   3   9
ATOM      6  N   UNL     1       7.935  31.596  15.534  0.00  0.00    +0.000 NA
ATOM      7  N   UNL     1       4.847  29.275  14.851  0.00  0.00    +0.000 N 
ATOM      8  C   UNL     1       5.608  32.592  16.385  0.00  0.00    +0.000 C 
ATOM      9  C   UNL     1       7.165  32.578  16.316  0.00  0.00    +0.000 C 
ATOM     10  C   UNL     1       4.940  31.285  15.853  0.00  0.00    +0.000 A 
ATOM     11  C   UNL     1       5.661  30.286  15.229  0.00  0.00    +0.000 A 
ATOM     12  C   UNL     1       5.049  33.708  15.453  0.00  0.00    +0.000 C 
ATOM     13  C   UNL     1       5.152  32.692  17.869  0.00  0.00    +0.000 C 
ATOM     14  C   UNL     1       3.573  30.829  15.830  0.00  0.00    +0.000 A 
ATOM     15  C   UNL     1       7.031  30.549  15.136  0.00  0.00    +0.000 C 
ATOM     16  C   UNL     1       3.550  29.568  15.201  0.00  0.00    +0.000 A 
ATOM     17  C   UNL     1       8.979  30.985  16.342  0.00  0.00    +0.000 C 
ATOM     18  C   UNL     1       2.356  31.376  16.283  0.00  0.00    +0.000 A 
ATOM     19  C   UNL     1       5.284  28.101  14.176  0.00  0.00    +0.000 C 
ATOM     20  C   UNL     1       2.360  28.847  15.019  0.00  0.00    +0.000 A 
ATOM     21  C   UNL     1       1.170  30.663  16.104  0.00  0.00    +0.000 A 
ATOM     22  C   UNL     1       1.176  29.420  15.484  0.00  0.00    +0.000 A 
ENDBRANCH   3   9
BRANCH   5  25
ATOM     23  O   UNL     1       7.924  36.711  18.529  0.00  0.00    +0.000 OA
ATOM     24  N   UNL     1      10.209  36.326  18.065  0.00  0.00    +0.000 N 
ATOM     25  C   UNL     1       8.835  36.448  17.748  0.00  0.00    +0.000 C 
ATOM     26  C   UNL     1      11.264  36.052  17.082  0.00  0.00    +0.000 C 
BRANCH  24  27
ATOM     27  C   UNL     1      10.647  36.441  19.396  0.00  0.00    +0.000 C 
ATOM     28  C   UNL     1      10.208  35.519  20.406  0.00  0.00    +0.000 C 
ATOM     29  C   UNL     1       9.814  34.688  21.327  0.00  0.00    +0.000 C 
ATOM     30  C   UNL     1      10.887  33.773  21.879  0.00  0.00    +0.000 C 
BRANCH  27  31
ATOM     31  C   UNL     1      11.580  37.480  19.806  0.00  0.00    +0.000 C 
ATOM     32  C   UNL     1      11.202  38.944  19.688  0.00  0.00    +0.000 C 
ATOM     33  C   UNL     1      12.614  37.176  20.874  0.00  0.00    +0.000 C 
ENDBRANCH  27  31
BRANCH  29  35
ATOM     34  O   UNL     1       8.007  34.574  22.921  0.00  0.00    +0.000 OA
ATOM     35  C   UNL     1       8.392  34.687  21.766  0.00  0.00    +0.000 C 
BRANCH  35  36
ATOM     36  O   UNL     1       7.496  34.823  20.766  0.00  0.00    +0.000 OA
ATOM     37  H   UNL     1       7.613  34.028  20.205  0.00  0.00    +0.000 HD
ENDBRANCH  35  36
ENDBRANCH  29  35
ENDBRANCH  24  27
ENDBRANCH   5  25
BRANCH   5  38
ATOM     38  C   UNL     1       8.500  37.339  15.402  0.00  0.00    +0.000 C 
ATOM     39  C   UNL     1       9.665  37.096  14.389  0.00  0.00    +0.000 C 
ATOM     40  C   UNL     1       7.160  37.345  14.611  0.00  0.00    +0.000 C 
ATOM     41  C   UNL     1       8.729  38.689  16.123  0.00  0.00    +0.000 C 
ENDBRANCH   5  38
TORSDOF 7
ENDMDL
MODEL 3
REMARK VINA RESULT:      -7.9      1.418      3.204
REMARK  Name = 10940649_MilnamideD.pdbqt.pdb
REMARK  7 active torsions:
REMARK  status: ('A' for Active; 'I' for Inactive)
REMARK    1  A    between atoms: C_3  and  C_8
REMARK    2  A    between atoms: C_22  and  C_25
REMARK    3  A    between atoms: C_22  and  C_38
REMARK    4  A    between atoms: N_24  and  C_27
REMARK    5  A    between atoms: C_27  and  C_28
REMARK    6  A    between atoms: C_32  and  C_35
REMARK    7  A    between atoms: C_35  and  O_36
REMARK                            x       y       z     vdW  Elec       q    Type
REMARK                         _______ _______ _______ _____ _____    ______ ____
ROOT
ATOM      1  O   UNL     1       8.321  33.659  17.909  0.00  0.00    +0.000 OA
ATOM      2  N   UNL     1       7.841  34.776  15.991  0.00  0.00    +0.000 N 
ATOM      3  C   UNL     1       7.791  33.659  16.804  0.00  0.00    +0.000 C 
ATOM      4  H   UNL     1       7.475  34.701  15.035  0.00  0.00    +0.000 HD
ATOM      5  C   UNL     1       8.429  36.014  16.344  0.00  0.00    +0.000 C 
ENDROOT
BRANCH   3   9
ATOM      6  N   UNL     1       7.781  31.473  15.444  0.00  0.00    +0.000 NA
ATOM      7  N   UNL     1       4.599  29.273  14.796  0.00  0.00    +0.000 N 
ATOM      8  C   UNL     1       5.510  32.536  16.362  0.00  0.00    +0.000 C 
ATOM      9  C   UNL     1       7.063  32.469  16.258  0.00  0.00    +0.000 C 
ATOM     10  C   UNL     1       4.785  31.262  15.826  0.00  0.00    +0.000 A 
ATOM     11  C   UNL     1       5.456  30.249  15.171  0.00  0.00    +0.000 A 
ATOM     12  C   UNL     1       4.970  33.685  15.460  0.00  0.00    +0.000 C 
ATOM     13  C   UNL     1       5.091  32.628  17.858  0.00  0.00    +0.000 C 
ATOM     14  C   UNL     1       3.403  30.854  15.827  0.00  0.00    +0.000 A 
ATOM     15  C   UNL     1       6.832  30.465  15.051  0.00  0.00    +0.000 C 
ATOM     16  C   UNL     1       3.322  29.605  15.179  0.00  0.00    +0.000 A 
ATOM     17  C   UNL     1       8.821  30.814  16.219  0.00  0.00    +0.000 C 
ATOM     18  C   UNL     1       2.216  31.436  16.315  0.00  0.00    +0.000 A 
ATOM     19  C   UNL     1       4.979  28.095  14.093  0.00  0.00    +0.000 C 
ATOM     20  C   UNL     1       2.103  28.929  15.013  0.00  0.00    +0.000 A 
ATOM     21  C   UNL     1       1.002  30.768  16.152  0.00  0.00    +0.000 A 
ATOM     22  C   UNL     1       0.950  29.535  15.513  0.00  0.00    +0.000 A 
ENDBRANCH   3   9
BRANCH   5  25
ATOM     23  O   UNL     1       8.045  36.556  18.575  0.00  0.00    +0.000 OA
ATOM     24  N   UNL     1      10.264  36.023  17.965  0.00  0.00    +0.000 N 
ATOM     25  C   UNL     1       8.886  36.253  17.735  0.00  0.00    +0.000 C 
ATOM     26  C   UNL     1      11.237  35.703  16.914  0.00  0.00    +0.000 C 
BRANCH  24  27
ATOM     27  C   UNL     1      10.786  36.068  19.270  0.00  0.00    +0.000 C 
ATOM     28  C   UNL     1      11.477  37.231  19.755  0.00  0.00    +0.000 C 
ATOM     29  C   UNL     1      12.105  38.279  20.202  0.00  0.00    +0.000 C 
ATOM     30  C   UNL     1      11.397  39.042  21.301  0.00  0.00    +0.000 C 
BRANCH  27  31
ATOM     31  C   UNL     1      10.629  34.955  20.194  0.00  0.00    +0.000 C 
ATOM     32  C   UNL     1       9.479  34.930  21.180  0.00  0.00    +0.000 C 
ATOM     33  C   UNL     1      11.170  33.588  19.815  0.00  0.00    +0.000 C 
ENDBRANCH  27  31
BRANCH  29  35
ATOM     34  O   UNL     1      13.701  38.687  18.439  0.00  0.00    +0.000 OA
ATOM     35  C   UNL     1      13.429  38.650  19.631  0.00  0.00    +0.000 C 
BRANCH  35  36
ATOM     36  O   UNL     1      14.369  38.959  20.548  0.00  0.00    +0.000 OA
ATOM     37  H   UNL     1      14.917  39.656  20.132  0.00  0.00    +0.000 HD
ENDBRANCH  35  36
ENDBRANCH  29  35
ENDBRANCH  24  27
ENDBRANCH   5  25
BRANCH   5  38
ATOM     38  C   UNL     1       8.399  37.250  15.459  0.00  0.00    +0.000 C 
ATOM     39  C   UNL     1       9.548  37.081  14.414  0.00  0.00    +0.000 C 
ATOM     40  C   UNL     1       7.043  37.258  14.697  0.00  0.00    +0.000 C 
ATOM     41  C   UNL     1       8.612  38.573  16.235  0.00  0.00    +0.000 C 
ENDBRANCH   5  38
TORSDOF 7
ENDMDL
MODEL 4
REMARK VINA RESULT:      -7.9      3.079      5.464
REMARK  Name = 10940649_MilnamideD.pdbqt.pdb
REMARK  7 active torsions:
REMARK  status: ('A' for Active; 'I' for Inactive)
REMARK    1  A    between atoms: C_3  and  C_8
REMARK    2  A    between atoms: C_22  and  C_25
REMARK    3  A    between atoms: C_22  and  C_38
REMARK    4  A    between atoms: N_24  and  C_27
REMARK    5  A    between atoms: C_27  and  C_28
REMARK    6  A    between atoms: C_32  and  C_35
REMARK    7  A    between atoms: C_35  and  O_36
REMARK                            x       y       z     vdW  Elec       q    Type
REMARK                         _______ _______ _______ _____ _____    ______ ____
ROOT
ATOM      1  O   UNL     1       8.216  31.424  14.740  0.00  0.00    +0.000 OA
ATOM      2  N   UNL     1       7.448  32.881  16.303  0.00  0.00    +0.000 N 
ATOM      3  C   UNL     1       7.287  31.817  15.435  0.00  0.00    +0.000 C 
ATOM      4  H   UNL     1       6.621  33.244  16.790  0.00  0.00    +0.000 HD
ATOM      5  C   UNL     1       8.663  33.572  16.526  0.00  0.00    +0.000 C 
ENDROOT
BRANCH   3   9
ATOM      6  N   UNL     1       5.760  29.825  14.864  0.00  0.00    +0.000 NA
ATOM      7  N   UNL     1       1.870  29.791  15.364  0.00  0.00    +0.000 N 
ATOM      8  C   UNL     1       4.739  32.157  15.669  0.00  0.00    +0.000 C 
ATOM      9  C   UNL     1       5.927  31.187  15.398  0.00  0.00    +0.000 C 
ATOM     10  C   UNL     1       3.342  31.461  15.667  0.00  0.00    +0.000 A 
ATOM     11  C   UNL     1       3.172  30.143  15.294  0.00  0.00    +0.000 A 
ATOM     12  C   UNL     1       4.640  33.205  14.521  0.00  0.00    +0.000 C 
ATOM     13  C   UNL     1       4.875  32.763  17.096  0.00  0.00    +0.000 C 
ATOM     14  C   UNL     1       2.016  31.936  15.973  0.00  0.00    +0.000 A 
ATOM     15  C   UNL     1       4.361  29.497  14.939  0.00  0.00    +0.000 C 
ATOM     16  C   UNL     1       1.120  30.866  15.778  0.00  0.00    +0.000 A 
ATOM     17  C   UNL     1       6.478  28.853  15.673  0.00  0.00    +0.000 C 
ATOM     18  C   UNL     1       1.498  33.177  16.394  0.00  0.00    +0.000 A 
ATOM     19  C   UNL     1       1.366  28.501  15.036  0.00  0.00    +0.000 C 
ATOM     20  C   UNL     1      -0.261  31.001  15.992  0.00  0.00    +0.000 A 
ATOM     21  C   UNL     1       0.127  33.317  16.608  0.00  0.00    +0.000 A 
ATOM     22  C   UNL     1      -0.734  32.245  16.412  0.00  0.00    +0.000 A 
ENDBRANCH   3   9
BRANCH   5  25
ATOM     23  O   UNL     1      10.375  33.606  14.949  0.00  0.00    +0.000 OA
ATOM     24  N   UNL     1      10.544  32.014  16.687  0.00  0.00    +0.000 N 
ATOM     25  C   UNL     1       9.930  33.057  15.953  0.00  0.00    +0.000 C 
ATOM     26  C   UNL     1       9.947  31.363  17.859  0.00  0.00    +0.000 C 
BRANCH  24  27
ATOM     27  C   UNL     1      11.821  31.547  16.329  0.00  0.00    +0.000 C 
ATOM     28  C   UNL     1      11.992  30.567  15.292  0.00  0.00    +0.000 C 
ATOM     29  C   UNL     1      12.155  29.679  14.354  0.00  0.00    +0.000 C 
ATOM     30  C   UNL     1      12.845  30.175  13.102  0.00  0.00    +0.000 C 
BRANCH  27  31
ATOM     31  C   UNL     1      13.027  32.050  16.971  0.00  0.00    +0.000 C 
ATOM     32  C   UNL     1      13.263  33.542  17.102  0.00  0.00    +0.000 C 
ATOM     33  C   UNL     1      13.723  31.203  18.020  0.00  0.00    +0.000 C 
ENDBRANCH  27  31
BRANCH  29  35
ATOM     34  O   UNL     1      11.708  27.675  15.620  0.00  0.00    +0.000 OA
ATOM     35  C   UNL     1      11.674  28.286  14.561  0.00  0.00    +0.000 C 
BRANCH  35  36
ATOM     36  O   UNL     1      11.172  27.696  13.456  0.00  0.00    +0.000 OA
ATOM     37  H   UNL     1      11.876  27.774  12.780  0.00  0.00    +0.000 HD
ENDBRANCH  35  36
ENDBRANCH  29  35
ENDBRANCH  24  27
ENDBRANCH   5  25
BRANCH   5  38
ATOM     38  C   UNL     1       8.829  34.688  17.546  0.00  0.00    +0.000 C 
ATOM     39  C   UNL     1       8.182  35.966  16.921  0.00  0.00    +0.000 C 
ATOM     40  C   UNL     1       8.016  34.300  18.814  0.00  0.00    +0.000 C 
ATOM     41  C   UNL     1      10.306  34.990  17.899  0.00  0.00    +0.000 C 
ENDBRANCH   5  38
TORSDOF 7
ENDMDL
MODEL 5
REMARK VINA RESULT:      -7.7      2.628      3.716
REMARK  Name = 10940649_MilnamideD.pdbqt.pdb
REMARK  7 active torsions:
REMARK  status: ('A' for Active; 'I' for Inactive)
REMARK    1  A    between atoms: C_3  and  C_8
REMARK    2  A    between atoms: C_22  and  C_25
REMARK    3  A    between atoms: C_22  and  C_38
REMARK    4  A    between atoms: N_24  and  C_27
REMARK    5  A    between atoms: C_27  and  C_28
REMARK    6  A    between atoms: C_32  and  C_35
REMARK    7  A    between atoms: C_35  and  O_36
REMARK                            x       y       z     vdW  Elec       q    Type
REMARK                         _______ _______ _______ _____ _____    ______ ____
ROOT
ATOM      1  O   UNL     1       8.714  31.945  15.107  0.00  0.00    +0.000 OA
ATOM      2  N   UNL     1       7.698  33.060  16.804  0.00  0.00    +0.000 N 
ATOM      3  C   UNL     1       7.719  32.107  15.803  0.00  0.00    +0.000 C 
ATOM      4  H   UNL     1       6.813  33.234  17.295  0.00  0.00    +0.000 HD
ATOM      5  C   UNL     1       8.791  33.884  17.166  0.00  0.00    +0.000 C 
ENDROOT
BRANCH   3   9
ATOM      6  N   UNL     1       6.527  29.990  14.952  0.00  0.00    +0.000 NA
ATOM      7  N   UNL     1       2.666  29.352  15.224  0.00  0.00    +0.000 N 
ATOM      8  C   UNL     1       5.141  32.055  15.925  0.00  0.00    +0.000 C 
ATOM      9  C   UNL     1       6.470  31.298  15.627  0.00  0.00    +0.000 C 
ATOM     10  C   UNL     1       3.863  31.172  15.774  0.00  0.00    +0.000 A 
ATOM     11  C   UNL     1       3.905  29.891  15.263  0.00  0.00    +0.000 A 
ATOM     12  C   UNL     1       4.938  33.195  14.882  0.00  0.00    +0.000 C 
ATOM     13  C   UNL     1       5.127  32.519  17.410  0.00  0.00    +0.000 C 
ATOM     14  C   UNL     1       2.470  31.419  16.050  0.00  0.00    +0.000 A 
ATOM     15  C   UNL     1       5.189  29.461  14.914  0.00  0.00    +0.000 C 
ATOM     16  C   UNL     1       1.750  30.260  15.699  0.00  0.00    +0.000 A 
ATOM     17  C   UNL     1       7.346  29.049  15.699  0.00  0.00    +0.000 C 
ATOM     18  C   UNL     1       1.759  32.522  16.562  0.00  0.00    +0.000 A 
ATOM     19  C   UNL     1       2.372  28.045  14.742  0.00  0.00    +0.000 C 
ATOM     20  C   UNL     1       0.357  30.173  15.847  0.00  0.00    +0.000 A 
ATOM     21  C   UNL     1       0.374  32.442  16.711  0.00  0.00    +0.000 A 
ATOM     22  C   UNL     1      -0.312  31.286  16.361  0.00  0.00    +0.000 A 
ENDBRANCH   3   9
BRANCH   5  25
ATOM     23  O   UNL     1      10.515  34.363  15.677  0.00  0.00    +0.000 OA
ATOM     24  N   UNL     1      10.882  32.613  17.221  0.00  0.00    +0.000 N 
ATOM     25  C   UNL     1      10.134  33.636  16.590  0.00  0.00    +0.000 C 
ATOM     26  C   UNL     1      10.363  31.742  18.282  0.00  0.00    +0.000 C 
BRANCH  24  27
ATOM     27  C   UNL     1      12.224  32.387  16.865  0.00  0.00    +0.000 C 
ATOM     28  C   UNL     1      13.249  33.343  17.182  0.00  0.00    +0.000 C 
ATOM     29  C   UNL     1      14.183  34.204  17.464  0.00  0.00    +0.000 C 
ATOM     30  C   UNL     1      15.198  33.748  18.491  0.00  0.00    +0.000 C 
BRANCH  27  31
ATOM     31  C   UNL     1      12.638  31.170  16.184  0.00  0.00    +0.000 C 
ATOM     32  C   UNL     1      13.345  30.065  16.945  0.00  0.00    +0.000 C 
ATOM     33  C   UNL     1      11.881  30.708  14.952  0.00  0.00    +0.000 C 
ENDBRANCH  27  31
BRANCH  29  35
ATOM     34  O   UNL     1      13.340  36.394  16.905  0.00  0.00    +0.000 OA
ATOM     35  C   UNL     1      14.198  35.530  16.789  0.00  0.00    +0.000 C 
BRANCH  35  36
ATOM     36  O   UNL     1      15.267  35.742  15.992  0.00  0.00    +0.000 OA
ATOM     37  H   UNL     1      15.823  36.388  16.474  0.00  0.00    +0.000 HD
ENDBRANCH  35  36
ENDBRANCH  29  35
ENDBRANCH  24  27
ENDBRANCH   5  25
BRANCH   5  38
ATOM     38  C   UNL     1       8.762  34.870  18.323  0.00  0.00    +0.000 C 
ATOM     39  C   UNL     1       7.962  36.118  17.831  0.00  0.00    +0.000 C 
ATOM     40  C   UNL     1       7.970  34.213  19.490  0.00  0.00    +0.000 C 
ATOM     41  C   UNL     1      10.169  35.321  18.787  0.00  0.00    +0.000 C 
ENDBRANCH   5  38
TORSDOF 7
ENDMDL
MODEL 6
REMARK VINA RESULT:      -7.3     15.522     17.856
REMARK  Name = 10940649_MilnamideD.pdbqt.pdb
REMARK  7 active torsions:
REMARK  status: ('A' for Active; 'I' for Inactive)
REMARK    1  A    between atoms: C_3  and  C_8
REMARK    2  A    between atoms: C_22  and  C_25
REMARK    3  A    between atoms: C_22  and  C_38
REMARK    4  A    between atoms: N_24  and  C_27
REMARK    5  A    between atoms: C_27  and  C_28
REMARK    6  A    between atoms: C_32  and  C_35
REMARK    7  A    between atoms: C_35  and  O_36
REMARK                            x       y       z     vdW  Elec       q    Type
REMARK                         _______ _______ _______ _____ _____    ______ ____
ROOT
ATOM      1  O   UNL     1      -6.510  42.212  13.949  0.00  0.00    +0.000 OA
ATOM      2  N   UNL     1      -7.663  43.968  13.088  0.00  0.00    +0.000 N 
ATOM      3  C   UNL     1      -7.464  42.617  13.295  0.00  0.00    +0.000 C 
ATOM      4  H   UNL     1      -8.412  44.260  12.450  0.00  0.00    +0.000 HD
ATOM      5  C   UNL     1      -6.860  45.001  13.630  0.00  0.00    +0.000 C 
ENDROOT
BRANCH   3   9
ATOM      6  N   UNL     1      -8.361  41.324  11.258  0.00  0.00    +0.000 NA
ATOM      7  N   UNL     1     -11.606  39.120  11.276  0.00  0.00    +0.000 N 
ATOM      8  C   UNL     1      -9.738  41.422  13.543  0.00  0.00    +0.000 C 
ATOM      9  C   UNL     1      -8.471  41.693  12.679  0.00  0.00    +0.000 C 
ATOM     10  C   UNL     1     -10.745  40.422  12.892  0.00  0.00    +0.000 A 
ATOM     11  C   UNL     1     -10.596  39.957  11.602  0.00  0.00    +0.000 A 
ATOM     12  C   UNL     1     -10.560  42.736  13.700  0.00  0.00    +0.000 C 
ATOM     13  C   UNL     1      -9.323  40.748  14.882  0.00  0.00    +0.000 C 
ATOM     14  C   UNL     1     -11.961  39.815  13.370  0.00  0.00    +0.000 A 
ATOM     15  C   UNL     1      -9.463  40.450  10.948  0.00  0.00    +0.000 C 
ATOM     16  C   UNL     1     -12.472  39.004  12.337  0.00  0.00    +0.000 A 
ATOM     17  C   UNL     1      -7.135  40.586  11.000  0.00  0.00    +0.000 C 
ATOM     18  C   UNL     1     -12.674  39.885  14.584  0.00  0.00    +0.000 A 
ATOM     19  C   UNL     1     -11.745  38.479  10.013  0.00  0.00    +0.000 C 
ATOM     20  C   UNL     1     -13.658  38.267  12.484  0.00  0.00    +0.000 A 
ATOM     21  C   UNL     1     -13.854  39.155  14.735  0.00  0.00    +0.000 A 
ATOM     22  C   UNL     1     -14.334  38.360  13.702  0.00  0.00    +0.000 A 
ENDBRANCH   3   9
BRANCH   5  25
ATOM     23  O   UNL     1      -6.175  44.578  15.814  0.00  0.00    +0.000 OA
ATOM     24  N   UNL     1      -4.524  44.462  14.127  0.00  0.00    +0.000 N 
ATOM     25  C   UNL     1      -5.824  44.686  14.642  0.00  0.00    +0.000 C 
ATOM     26  C   UNL     1      -4.149  44.646  12.720  0.00  0.00    +0.000 C 
BRANCH  24  27
ATOM     27  C   UNL     1      -3.493  44.008  14.967  0.00  0.00    +0.000 C 
ATOM     28  C   UNL     1      -3.029  42.649  14.910  0.00  0.00    +0.000 C 
ATOM     29  C   UNL     1      -2.604  41.420  14.865  0.00  0.00    +0.000 C 
ATOM     30  C   UNL     1      -1.194  41.239  14.343  0.00  0.00    +0.000 C 
BRANCH  27  31
ATOM     31  C   UNL     1      -2.832  44.896  15.914  0.00  0.00    +0.000 C 
ATOM     32  C   UNL     1      -1.926  44.334  16.991  0.00  0.00    +0.000 C 
ATOM     33  C   UNL     1      -2.525  46.325  15.507  0.00  0.00    +0.000 C 
ENDBRANCH  27  31
BRANCH  29  35
ATOM     34  O   UNL     1      -4.184  40.321  16.318  0.00  0.00    +0.000 OA
ATOM     35  C   UNL     1      -3.491  40.312  15.310  0.00  0.00    +0.000 C 
BRANCH  35  36
ATOM     36  O   UNL     1      -3.491  39.232  14.500  0.00  0.00    +0.000 OA
ATOM     37  H   UNL     1      -2.901  39.469  13.755  0.00  0.00    +0.000 HD
ENDBRANCH  35  36
ENDBRANCH  29  35
ENDBRANCH  24  27
ENDBRANCH   5  25
BRANCH   5  38
ATOM     38  C   UNL     1      -7.149  46.483  13.449  0.00  0.00    +0.000 C 
ATOM     39  C   UNL     1      -8.574  46.738  14.037  0.00  0.00    +0.000 C 
ATOM     40  C   UNL     1      -6.120  47.277  14.304  0.00  0.00    +0.000 C 
ATOM     41  C   UNL     1      -7.122  46.944  11.971  0.00  0.00    +0.000 C 
ENDBRANCH   5  38
TORSDOF 7
ENDMDL
MODEL 7
REMARK VINA RESULT:      -6.9     16.480     20.252
REMARK  Name = 10940649_MilnamideD.pdbqt.pdb
REMARK  7 active torsions:
REMARK  status: ('A' for Active; 'I' for Inactive)
REMARK    1  A    between atoms: C_3  and  C_8
REMARK    2  A    between atoms: C_22  and  C_25
REMARK    3  A    between atoms: C_22  and  C_38
REMARK    4  A    between atoms: N_24  and  C_27
REMARK    5  A    between atoms: C_27  and  C_28
REMARK    6  A    between atoms: C_32  and  C_35
REMARK    7  A    between atoms: C_35  and  O_36
REMARK                            x       y       z     vdW  Elec       q    Type
REMARK                         _______ _______ _______ _____ _____    ______ ____
ROOT
ATOM      1  O   UNL     1       1.752  21.989   5.094  0.00  0.00    +0.000 OA
ATOM      2  N   UNL     1       3.126  20.840   3.699  0.00  0.00    +0.000 N 
ATOM      3  C   UNL     1       2.692  21.215   4.956  0.00  0.00    +0.000 C 
ATOM      4  H   UNL     1       3.979  20.273   3.625  0.00  0.00    +0.000 HD
ATOM      5  C   UNL     1       2.530  21.240   2.479  0.00  0.00    +0.000 C 
ENDROOT
BRANCH   3   9
ATOM      6  N   UNL     1       4.636  21.288   6.641  0.00  0.00    +0.000 NA
ATOM      7  N   UNL     1       5.308  18.564   9.382  0.00  0.00    +0.000 N 
ATOM      8  C   UNL     1       3.010  19.175   6.505  0.00  0.00    +0.000 C 
ATOM      9  C   UNL     1       3.429  20.625   6.120  0.00  0.00    +0.000 C 
ATOM     10  C   UNL     1       3.766  18.608   7.748  0.00  0.00    +0.000 A 
ATOM     11  C   UNL     1       4.821  19.273   8.339  0.00  0.00    +0.000 A 
ATOM     12  C   UNL     1       3.385  18.194   5.355  0.00  0.00    +0.000 C 
ATOM     13  C   UNL     1       1.509  19.158   6.915  0.00  0.00    +0.000 C 
ATOM     14  C   UNL     1       3.623  17.388   8.502  0.00  0.00    +0.000 A 
ATOM     15  C   UNL     1       5.133  20.494   7.734  0.00  0.00    +0.000 C 
ATOM     16  C   UNL     1       4.600  17.394   9.518  0.00  0.00    +0.000 A 
ATOM     17  C   UNL     1       4.324  22.607   7.168  0.00  0.00    +0.000 C 
ATOM     18  C   UNL     1       2.757  16.281   8.409  0.00  0.00    +0.000 A 
ATOM     19  C   UNL     1       6.403  18.975  10.193  0.00  0.00    +0.000 C 
ATOM     20  C   UNL     1       4.729  16.338  10.434  0.00  0.00    +0.000 A 
ATOM     21  C   UNL     1       2.882  15.229   9.317  0.00  0.00    +0.000 A 
ATOM     22  C   UNL     1       3.850  15.261  10.312  0.00  0.00    +0.000 A 
ENDBRANCH   3   9
BRANCH   5  25
ATOM     23  O   UNL     1       1.253  23.174   2.251  0.00  0.00    +0.000 OA
ATOM     24  N   UNL     1       0.091  21.163   2.685  0.00  0.00    +0.000 N 
ATOM     25  C   UNL     1       1.238  21.969   2.484  0.00  0.00    +0.000 C 
ATOM     26  C   UNL     1       0.132  19.731   3.003  0.00  0.00    +0.000 C 
BRANCH  24  27
ATOM     27  C   UNL     1      -1.197  21.713   2.561  0.00  0.00    +0.000 C 
ATOM     28  C   UNL     1      -1.890  22.250   3.699  0.00  0.00    +0.000 C 
ATOM     29  C   UNL     1      -2.525  22.737   4.725  0.00  0.00    +0.000 C 
ATOM     30  C   UNL     1      -2.736  24.236   4.707  0.00  0.00    +0.000 C 
BRANCH  27  31
ATOM     31  C   UNL     1      -1.875  21.786   1.275  0.00  0.00    +0.000 C 
ATOM     32  C   UNL     1      -1.549  20.794   0.176  0.00  0.00    +0.000 C 
ATOM     33  C   UNL     1      -3.268  22.383   1.199  0.00  0.00    +0.000 C 
ENDBRANCH  27  31
BRANCH  29  35
ATOM     34  O   UNL     1      -2.260  21.175   6.544  0.00  0.00    +0.000 OA
ATOM     35  C   UNL     1      -2.987  21.830   5.811  0.00  0.00    +0.000 C 
BRANCH  35  36
ATOM     36  O   UNL     1      -4.328  21.760   5.951  0.00  0.00    +0.000 OA
ATOM     37  H   UNL     1      -4.680  22.519   5.442  0.00  0.00    +0.000 HD
ENDBRANCH  35  36
ENDBRANCH  29  35
ENDBRANCH  24  27
ENDBRANCH   5  25
BRANCH   5  38
ATOM     38  C   UNL     1       2.982  20.750   1.112  0.00  0.00    +0.000 C 
ATOM     39  C   UNL     1       4.396  21.365   0.860  0.00  0.00    +0.000 C 
ATOM     40  C   UNL     1       3.130  19.203   1.187  0.00  0.00    +0.000 C 
ATOM     41  C   UNL     1       2.036  21.166  -0.040  0.00  0.00    +0.000 C 
ENDBRANCH   5  38
TORSDOF 7
ENDMDL
MODEL 8
REMARK VINA RESULT:      -6.9     14.323     18.167
REMARK  Name = 10940649_MilnamideD.pdbqt.pdb
REMARK  7 active torsions:
REMARK  status: ('A' for Active; 'I' for Inactive)
REMARK    1  A    between atoms: C_3  and  C_8
REMARK    2  A    between atoms: C_22  and  C_25
REMARK    3  A    between atoms: C_22  and  C_38
REMARK    4  A    between atoms: N_24  and  C_27
REMARK    5  A    between atoms: C_27  and  C_28
REMARK    6  A    between atoms: C_32  and  C_35
REMARK    7  A    between atoms: C_35  and  O_36
REMARK                            x       y       z     vdW  Elec       q    Type
REMARK                         _______ _______ _______ _____ _____    ______ ____
ROOT
ATOM      1  O   UNL     1      -5.607  41.301  13.451  0.00  0.00    +0.000 OA
ATOM      2  N   UNL     1      -6.322  41.963  15.502  0.00  0.00    +0.000 N 
ATOM      3  C   UNL     1      -5.384  41.915  14.487  0.00  0.00    +0.000 C 
ATOM      4  H   UNL     1      -6.057  42.401  16.392  0.00  0.00    +0.000 HD
ATOM      5  C   UNL     1      -7.614  41.386  15.444  0.00  0.00    +0.000 C 
ENDROOT
BRANCH   3   9
ATOM      6  N   UNL     1      -3.966  44.057  14.323  0.00  0.00    +0.000 NA
ATOM      7  N   UNL     1      -0.236  44.349  15.504  0.00  0.00    +0.000 N 
ATOM      8  C   UNL     1      -2.894  41.754  15.145  0.00  0.00    +0.000 C 
ATOM      9  C   UNL     1      -4.100  42.648  14.731  0.00  0.00    +0.000 C 
ATOM     10  C   UNL     1      -1.584  42.553  15.434  0.00  0.00    +0.000 A 
ATOM     11  C   UNL     1      -1.472  43.905  15.182  0.00  0.00    +0.000 A 
ATOM     12  C   UNL     1      -2.508  40.810  13.968  0.00  0.00    +0.000 C 
ATOM     13  C   UNL     1      -3.217  41.029  16.484  0.00  0.00    +0.000 C 
ATOM     14  C   UNL     1      -0.293  42.158  15.939  0.00  0.00    +0.000 A 
ATOM     15  C   UNL     1      -2.634  44.484  14.665  0.00  0.00    +0.000 C 
ATOM     16  C   UNL     1       0.524  43.305  15.973  0.00  0.00    +0.000 A 
ATOM     17  C   UNL     1      -4.895  44.905  15.053  0.00  0.00    +0.000 C 
ATOM     18  C   UNL     1       0.253  40.931  16.364  0.00  0.00    +0.000 A 
ATOM     19  C   UNL     1       0.199  45.696  15.353  0.00  0.00    +0.000 C 
ATOM     20  C   UNL     1       1.854  43.260  16.419  0.00  0.00    +0.000 A 
ATOM     21  C   UNL     1       1.575  40.880  16.808  0.00  0.00    +0.000 A 
ATOM     22  C   UNL     1       2.358  42.027  16.836  0.00  0.00    +0.000 A 
ENDBRANCH   3   9
BRANCH   5  25
ATOM     23  O   UNL     1      -8.079  39.612  14.011  0.00  0.00    +0.000 OA
ATOM     24  N   UNL     1      -8.695  41.774  13.283  0.00  0.00    +0.000 N 
ATOM     25  C   UNL     1      -8.125  40.829  14.169  0.00  0.00    +0.000 C 
ATOM     26  C   UNL     1      -8.685  43.225  13.502  0.00  0.00    +0.000 C 
BRANCH  24  27
ATOM     27  C   UNL     1      -9.348  41.350  12.112  0.00  0.00    +0.000 C 
ATOM     28  C   UNL     1     -10.742  41.002  12.122  0.00  0.00    +0.000 C 
ATOM     29  C   UNL     1     -12.004  40.684  12.123  0.00  0.00    +0.000 C 
ATOM     30  C   UNL     1     -12.910  41.620  11.350  0.00  0.00    +0.000 C 
BRANCH  27  31
ATOM     31  C   UNL     1      -8.652  41.267  10.836  0.00  0.00    +0.000 C 
ATOM     32  C   UNL     1      -7.422  40.394  10.687  0.00  0.00    +0.000 C 
ATOM     33  C   UNL     1      -9.420  41.508   9.550  0.00  0.00    +0.000 C 
ENDBRANCH  27  31
BRANCH  29  35
ATOM     34  O   UNL     1     -12.747  39.422  14.039  0.00  0.00    +0.000 OA
ATOM     35  C   UNL     1     -12.463  39.470  12.851  0.00  0.00    +0.000 C 
BRANCH  35  36
ATOM     36  O   UNL     1     -12.552  38.359  12.090  0.00  0.00    +0.000 OA
ATOM     37  H   UNL     1     -13.474  38.047  12.197  0.00  0.00    +0.000 HD
ENDBRANCH  35  36
ENDBRANCH  29  35
ENDBRANCH  24  27
ENDBRANCH   5  25
BRANCH   5  38
ATOM     38  C   UNL     1      -8.653  41.523  16.546  0.00  0.00    +0.000 C 
ATOM     39  C   UNL     1      -8.125  40.701  17.765  0.00  0.00    +0.000 C 
ATOM     40  C   UNL     1      -8.716  43.021  16.959  0.00  0.00    +0.000 C 
ATOM     41  C   UNL     1     -10.052  40.994  16.147  0.00  0.00    +0.000 C 
ENDBRANCH   5  38
TORSDOF 7
ENDMDL
MODEL 9
REMARK VINA RESULT:      -6.9     13.774     17.207
REMARK  Name = 10940649_MilnamideD.pdbqt.pdb
REMARK  7 active torsions:
REMARK  status: ('A' for Active; 'I' for Inactive)
REMARK    1  A    between atoms: C_3  and  C_8
REMARK    2  A    between atoms: C_22  and  C_25
REMARK    3  A    between atoms: C_22  and  C_38
REMARK    4  A    between atoms: N_24  and  C_27
REMARK    5  A    between atoms: C_27  and  C_28
REMARK    6  A    between atoms: C_32  and  C_35
REMARK    7  A    between atoms: C_35  and  O_36
REMARK                            x       y       z     vdW  Elec       q    Type
REMARK                         _______ _______ _______ _____ _____    ______ ____
ROOT
ATOM      1  O   UNL     1      -5.506  40.736  14.363  0.00  0.00    +0.000 OA
ATOM      2  N   UNL     1      -5.836  41.710  16.387  0.00  0.00    +0.000 N 
ATOM      3  C   UNL     1      -5.028  41.176  15.402  0.00  0.00    +0.000 C 
ATOM      4  H   UNL     1      -5.407  41.973  17.282  0.00  0.00    +0.000 HD
ATOM      5  C   UNL     1      -7.241  41.861  16.295  0.00  0.00    +0.000 C 
ENDROOT
BRANCH   3   9
ATOM      6  N   UNL     1      -2.917  39.967  16.245  0.00  0.00    +0.000 NA
ATOM      7  N   UNL     1       0.650  41.587  16.426  0.00  0.00    +0.000 N 
ATOM      8  C   UNL     1      -2.859  42.559  15.609  0.00  0.00    +0.000 C 
ATOM      9  C   UNL     1      -3.555  41.168  15.679  0.00  0.00    +0.000 C 
ATOM     10  C   UNL     1      -1.319  42.509  15.859  0.00  0.00    +0.000 A 
ATOM     11  C   UNL     1      -0.672  41.360  16.267  0.00  0.00    +0.000 A 
ATOM     12  C   UNL     1      -3.396  43.476  16.749  0.00  0.00    +0.000 C 
ATOM     13  C   UNL     1      -3.007  43.146  14.176  0.00  0.00    +0.000 C 
ATOM     14  C   UNL     1      -0.286  43.511  15.783  0.00  0.00    +0.000 A 
ATOM     15  C   UNL     1      -1.518  40.256  16.416  0.00  0.00    +0.000 C 
ATOM     16  C   UNL     1       0.933  42.901  16.139  0.00  0.00    +0.000 A 
ATOM     17  C   UNL     1      -3.020  38.839  15.332  0.00  0.00    +0.000 C 
ATOM     18  C   UNL     1      -0.279  44.880  15.448  0.00  0.00    +0.000 A 
ATOM     19  C   UNL     1       1.590  40.605  16.847  0.00  0.00    +0.000 C 
ATOM     20  C   UNL     1       2.144  43.611  16.166  0.00  0.00    +0.000 A 
ATOM     21  C   UNL     1       0.921  45.591  15.473  0.00  0.00    +0.000 A 
ATOM     22  C   UNL     1       2.110  44.964  15.824  0.00  0.00    +0.000 A 
ENDBRANCH   3   9
BRANCH   5  25
ATOM     23  O   UNL     1      -8.545  40.554  14.878  0.00  0.00    +0.000 OA
ATOM     24  N   UNL     1      -7.881  42.675  14.076  0.00  0.00    +0.000 N 
ATOM     25  C   UNL     1      -7.934  41.611  15.008  0.00  0.00    +0.000 C 
ATOM     26  C   UNL     1      -7.099  43.902  14.265  0.00  0.00    +0.000 C 
BRANCH  24  27
ATOM     27  C   UNL     1      -8.625  42.617  12.885  0.00  0.00    +0.000 C 
ATOM     28  C   UNL     1      -8.354  41.621  11.885  0.00  0.00    +0.000 C 
ATOM     29  C   UNL     1      -8.114  40.723  10.975  0.00  0.00    +0.000 C 
ATOM     30  C   UNL     1      -9.200  39.687  10.782  0.00  0.00    +0.000 C 
BRANCH  27  31
ATOM     31  C   UNL     1      -9.717  43.543  12.621  0.00  0.00    +0.000 C 
ATOM     32  C   UNL     1     -10.843  43.710  13.621  0.00  0.00    +0.000 C 
ATOM     33  C   UNL     1      -9.475  44.748  11.730  0.00  0.00    +0.000 C 
ENDBRANCH  27  31
BRANCH  29  35
ATOM     34  O   UNL     1      -5.774  41.198  10.628  0.00  0.00    +0.000 OA
ATOM     35  C   UNL     1      -6.839  40.767  10.208  0.00  0.00    +0.000 C 
BRANCH  35  36
ATOM     36  O   UNL     1      -6.923  40.282   8.951  0.00  0.00    +0.000 OA
ATOM     37  H   UNL     1      -7.676  39.657   8.966  0.00  0.00    +0.000 HD
ENDBRANCH  35  36
ENDBRANCH  29  35
ENDBRANCH  24  27
ENDBRANCH   5  25
BRANCH   5  38
ATOM     38  C   UNL     1      -8.095  42.525  17.364  0.00  0.00    +0.000 C 
ATOM     39  C   UNL     1      -9.556  42.561  16.812  0.00  0.00    +0.000 C 
ATOM     40  C   UNL     1      -8.072  41.614  18.625  0.00  0.00    +0.000 C 
ATOM     41  C   UNL     1      -7.647  43.967  17.707  0.00  0.00    +0.000 C 
ENDBRANCH   5  38
TORSDOF 7
ENDMDL
