MODEL 1
REMARK VINA RESULT:      -9.2      0.000      0.000
REMARK  Name = 11167602_Regorafenib.pdbqt.pdb
REMARK  6 active torsions:
REMARK  status: ('A' for Active; 'I' for Inactive)
REMARK    1  A    between atoms: C_2  and  N_10
REMARK    2  A    between atoms: C_3  and  O_25
REMARK    3  A    between atoms: N_9  and  C_15
REMARK    4  A    between atoms: C_16  and  C_24
REMARK    5  A    between atoms: O_25  and  C_27
REMARK    6  A    between atoms: C_29  and  C_34
REMARK                            x       y       z     vdW  Elec       q    Type
REMARK                         _______ _______ _______ _____ _____    ______ ____
ROOT
ATOM      1  F   UNL     1       9.407  32.585  15.798  0.00  0.00    +0.000 F 
ATOM      2  C   UNL     1       7.806  34.194  16.467  0.00  0.00    +0.000 A 
ATOM      3  C   UNL     1       9.516  36.196  15.527  0.00  0.00    +0.000 A 
ATOM      4  C   UNL     1       9.042  33.872  15.899  0.00  0.00    +0.000 A 
ATOM      5  C   UNL     1       7.448  35.537  16.578  0.00  0.00    +0.000 A 
ATOM      6  C   UNL     1       9.908  34.860  15.440  0.00  0.00    +0.000 A 
ATOM      7  C   UNL     1       8.304  36.538  16.122  0.00  0.00    +0.000 A 
ENDROOT
BRANCH   2  10
ATOM      8  O   UNL     1       5.582  32.955  15.071  0.00  0.00    +0.000 OA
ATOM      9  N   UNL     1       5.340  31.548  16.890  0.00  0.00    +0.000 N 
ATOM     10  N   UNL     1       6.975  33.141  16.903  0.00  0.00    +0.000 N 
ATOM     11  C   UNL     1       5.933  32.582  16.182  0.00  0.00    +0.000 C 
ATOM     12  H   UNL     1       5.732  31.306  17.788  0.00  0.00    +0.000 HD
ATOM     13  H   UNL     1       7.166  32.788  17.830  0.00  0.00    +0.000 HD
BRANCH   9  15
ATOM     14 CL   UNL     1       0.659  28.411  15.073  0.00  0.00    +0.000 Cl
ATOM     15  C   UNL     1       4.249  30.777  16.449  0.00  0.00    +0.000 A 
ATOM     16  C   UNL     1       1.828  30.621  16.186  0.00  0.00    +0.000 A 
ATOM     17  C   UNL     1       2.971  31.317  16.597  0.00  0.00    +0.000 A 
ATOM     18  C   UNL     1       4.388  29.517  15.877  0.00  0.00    +0.000 A 
ATOM     19  C   UNL     1       1.991  29.357  15.615  0.00  0.00    +0.000 A 
ATOM     20  C   UNL     1       3.264  28.809  15.463  0.00  0.00    +0.000 A 
BRANCH  16  24
ATOM     21  F   UNL     1      -0.270  31.244  15.238  0.00  0.00    +0.000 F 
ATOM     22  F   UNL     1      -0.268  30.637  17.319  0.00  0.00    +0.000 F 
ATOM     23  F   UNL     1       0.567  32.567  16.737  0.00  0.00    +0.000 F 
ATOM     24  C   UNL     1       0.488  31.258  16.373  0.00  0.00    +0.000 C 
ENDBRANCH  16  24
ENDBRANCH   9  15
ENDBRANCH   2  10
BRANCH   3  25
ATOM     25  O   UNL     1      10.351  37.226  15.163  0.00  0.00    +0.000 OA
BRANCH  25  27
ATOM     26  N   UNL     1      13.903  37.816  17.271  0.00  0.00    +0.000 NA
ATOM     27  C   UNL     1      11.548  37.350  15.832  0.00  0.00    +0.000 A 
ATOM     28  C   UNL     1      12.772  36.976  15.288  0.00  0.00    +0.000 A 
ATOM     29  C   UNL     1      13.905  37.220  16.046  0.00  0.00    +0.000 A 
ATOM     30  C   UNL     1      11.497  37.984  17.070  0.00  0.00    +0.000 A 
ATOM     31  C   UNL     1      12.691  38.185  17.745  0.00  0.00    +0.000 A 
BRANCH  29  34
ATOM     32  O   UNL     1      15.735  35.743  15.870  0.00  0.00    +0.000 OA
ATOM     33  N   UNL     1      15.771  37.737  14.649  0.00  0.00    +0.000 N 
ATOM     34  C   UNL     1      15.232  36.807  15.521  0.00  0.00    +0.000 C 
ATOM     35  C   UNL     1      17.011  37.756  13.922  0.00  0.00    +0.000 C 
ATOM     36  H   UNL     1      15.187  38.559  14.499  0.00  0.00    +0.000 HD
ENDBRANCH  29  34
ENDBRANCH  25  27
ENDBRANCH   3  25
TORSDOF 6
ENDMDL
MODEL 2
REMARK VINA RESULT:      -9.1      1.850      2.314
REMARK  Name = 11167602_Regorafenib.pdbqt.pdb
REMARK  6 active torsions:
REMARK  status: ('A' for Active; 'I' for Inactive)
REMARK    1  A    between atoms: C_2  and  N_10
REMARK    2  A    between atoms: C_3  and  O_25
REMARK    3  A    between atoms: N_9  and  C_15
REMARK    4  A    between atoms: C_16  and  C_24
REMARK    5  A    between atoms: O_25  and  C_27
REMARK    6  A    between atoms: C_29  and  C_34
REMARK                            x       y       z     vdW  Elec       q    Type
REMARK                         _______ _______ _______ _____ _____    ______ ____
ROOT
ATOM      1  F   UNL     1       9.620  32.799  16.076  0.00  0.00    +0.000 F 
ATOM      2  C   UNL     1       7.886  34.386  16.349  0.00  0.00    +0.000 A 
ATOM      3  C   UNL     1       9.623  36.356  15.391  0.00  0.00    +0.000 A 
ATOM      4  C   UNL     1       9.195  34.068  15.977  0.00  0.00    +0.000 A 
ATOM      5  C   UNL     1       7.464  35.712  16.253  0.00  0.00    +0.000 A 
ATOM      6  C   UNL     1      10.073  35.042  15.512  0.00  0.00    +0.000 A 
ATOM      7  C   UNL     1       8.332  36.699  15.789  0.00  0.00    +0.000 A 
ENDROOT
BRANCH   2  10
ATOM      8  O   UNL     1       5.638  33.154  14.983  0.00  0.00    +0.000 OA
ATOM      9  N   UNL     1       5.396  31.771  16.820  0.00  0.00    +0.000 N 
ATOM     10  N   UNL     1       7.047  33.347  16.803  0.00  0.00    +0.000 N 
ATOM     11  C   UNL     1       5.994  32.791  16.096  0.00  0.00    +0.000 C 
ATOM     12  H   UNL     1       5.792  31.535  17.718  0.00  0.00    +0.000 HD
ATOM     13  H   UNL     1       7.242  33.002  17.732  0.00  0.00    +0.000 HD
BRANCH   9  15
ATOM     14 CL   UNL     1       0.844  28.464  14.975  0.00  0.00    +0.000 Cl
ATOM     15  C   UNL     1       4.293  31.006  16.396  0.00  0.00    +0.000 A 
ATOM     16  C   UNL     1       3.511  29.042  15.179  0.00  0.00    +0.000 A 
ATOM     17  C   UNL     1       4.548  29.861  15.641  0.00  0.00    +0.000 A 
ATOM     18  C   UNL     1       2.976  31.340  16.696  0.00  0.00    +0.000 A 
ATOM     19  C   UNL     1       2.197  29.396  15.490  0.00  0.00    +0.000 A 
ATOM     20  C   UNL     1       1.932  30.538  16.244  0.00  0.00    +0.000 A 
BRANCH  16  24
ATOM     21  F   UNL     1       3.265  27.822  13.145  0.00  0.00    +0.000 F 
ATOM     22  F   UNL     1       5.189  27.708  14.137  0.00  0.00    +0.000 F 
ATOM     23  F   UNL     1       3.461  26.668  14.968  0.00  0.00    +0.000 F 
ATOM     24  C   UNL     1       3.854  27.828  14.375  0.00  0.00    +0.000 C 
ENDBRANCH  16  24
ENDBRANCH   9  15
ENDBRANCH   2  10
BRANCH   3  25
ATOM     25  O   UNL     1      10.457  37.381  15.011  0.00  0.00    +0.000 OA
BRANCH  25  27
ATOM     26  N   UNL     1      13.909  38.128  17.232  0.00  0.00    +0.000 NA
ATOM     27  C   UNL     1      11.624  37.557  15.720  0.00  0.00    +0.000 A 
ATOM     28  C   UNL     1      12.877  37.200  15.233  0.00  0.00    +0.000 A 
ATOM     29  C   UNL     1      13.973  37.497  16.025  0.00  0.00    +0.000 A 
ATOM     30  C   UNL     1      11.509  38.225  16.936  0.00  0.00    +0.000 A 
ATOM     31  C   UNL     1      12.670  38.478  17.648  0.00  0.00    +0.000 A 
BRANCH  29  34
ATOM     32  O   UNL     1      15.699  35.937  15.637  0.00  0.00    +0.000 OA
ATOM     33  N   UNL     1      16.056  38.179  15.077  0.00  0.00    +0.000 N 
ATOM     34  C   UNL     1      15.330  37.105  15.563  0.00  0.00    +0.000 C 
ATOM     35  C   UNL     1      17.387  38.265  14.541  0.00  0.00    +0.000 C 
ATOM     36  H   UNL     1      15.560  39.069  15.109  0.00  0.00    +0.000 HD
ENDBRANCH  29  34
ENDBRANCH  25  27
ENDBRANCH   3  25
TORSDOF 6
ENDMDL
MODEL 3
REMARK VINA RESULT:      -9.1      1.777      2.535
REMARK  Name = 11167602_Regorafenib.pdbqt.pdb
REMARK  6 active torsions:
REMARK  status: ('A' for Active; 'I' for Inactive)
REMARK    1  A    between atoms: C_2  and  N_10
REMARK    2  A    between atoms: C_3  and  O_25
REMARK    3  A    between atoms: N_9  and  C_15
REMARK    4  A    between atoms: C_16  and  C_24
REMARK    5  A    between atoms: O_25  and  C_27
REMARK    6  A    between atoms: C_29  and  C_34
REMARK                            x       y       z     vdW  Elec       q    Type
REMARK                         _______ _______ _______ _____ _____    ______ ____
ROOT
ATOM      1  F   UNL     1       9.374  32.217  15.881  0.00  0.00    +0.000 F 
ATOM      2  C   UNL     1       7.908  33.993  16.428  0.00  0.00    +0.000 A 
ATOM      3  C   UNL     1       9.788  35.782  15.388  0.00  0.00    +0.000 A 
ATOM      4  C   UNL     1       9.117  33.535  15.897  0.00  0.00    +0.000 A 
ATOM      5  C   UNL     1       7.663  35.365  16.450  0.00  0.00    +0.000 A 
ATOM      6  C   UNL     1      10.066  34.416  15.389  0.00  0.00    +0.000 A 
ATOM      7  C   UNL     1       8.604  36.262  15.944  0.00  0.00    +0.000 A 
ENDROOT
BRANCH   2  10
ATOM      8  O   UNL     1       5.709  32.720  15.021  0.00  0.00    +0.000 OA
ATOM      9  N   UNL     1       5.265  31.547  16.963  0.00  0.00    +0.000 N 
ATOM     10  N   UNL     1       6.988  33.042  16.917  0.00  0.00    +0.000 N 
ATOM     11  C   UNL     1       5.964  32.460  16.190  0.00  0.00    +0.000 C 
ATOM     12  H   UNL     1       5.581  31.389  17.909  0.00  0.00    +0.000 HD
ATOM     13  H   UNL     1       7.097  32.789  17.889  0.00  0.00    +0.000 HD
BRANCH   9  15
ATOM     14 CL   UNL     1       0.529  28.469  15.184  0.00  0.00    +0.000 Cl
ATOM     15  C   UNL     1       4.160  30.789  16.533  0.00  0.00    +0.000 A 
ATOM     16  C   UNL     1       1.745  30.702  16.197  0.00  0.00    +0.000 A 
ATOM     17  C   UNL     1       2.899  31.382  16.604  0.00  0.00    +0.000 A 
ATOM     18  C   UNL     1       4.270  29.491  16.045  0.00  0.00    +0.000 A 
ATOM     19  C   UNL     1       1.878  29.400  15.712  0.00  0.00    +0.000 A 
ATOM     20  C   UNL     1       3.134  28.798  15.637  0.00  0.00    +0.000 A 
BRANCH  16  24
ATOM     21  F   UNL     1       0.541  32.712  16.641  0.00  0.00    +0.000 F 
ATOM     22  F   UNL     1      -0.272  31.389  15.129  0.00  0.00    +0.000 F 
ATOM     23  F   UNL     1      -0.394  30.851  17.240  0.00  0.00    +0.000 F 
ATOM     24  C   UNL     1       0.424  31.397  16.299  0.00  0.00    +0.000 C 
ENDBRANCH  16  24
ENDBRANCH   9  15
ENDBRANCH   2  10
BRANCH   3  25
ATOM     25  O   UNL     1      10.709  36.715  14.972  0.00  0.00    +0.000 OA
BRANCH  25  27
ATOM     26  N   UNL     1      12.750  38.662  18.046  0.00  0.00    +0.000 NA
ATOM     27  C   UNL     1      11.391  37.420  15.938  0.00  0.00    +0.000 A 
ATOM     28  C   UNL     1      11.193  38.775  16.180  0.00  0.00    +0.000 A 
ATOM     29  C   UNL     1      11.897  39.342  17.228  0.00  0.00    +0.000 A 
ATOM     30  C   UNL     1      12.234  36.678  16.760  0.00  0.00    +0.000 A 
ATOM     31  C   UNL     1      12.888  37.342  17.786  0.00  0.00    +0.000 A 
BRANCH  29  34
ATOM     32  O   UNL     1      11.062  41.179  18.449  0.00  0.00    +0.000 OA
ATOM     33  N   UNL     1      12.433  41.582  16.598  0.00  0.00    +0.000 N 
ATOM     34  C   UNL     1      11.744  40.794  17.504  0.00  0.00    +0.000 C 
ATOM     35  C   UNL     1      12.561  43.009  16.480  0.00  0.00    +0.000 C 
ATOM     36  H   UNL     1      12.936  41.058  15.883  0.00  0.00    +0.000 HD
ENDBRANCH  29  34
ENDBRANCH  25  27
ENDBRANCH   3  25
TORSDOF 6
ENDMDL
MODEL 4
REMARK VINA RESULT:      -8.7      2.800      3.358
REMARK  Name = 11167602_Regorafenib.pdbqt.pdb
REMARK  6 active torsions:
REMARK  status: ('A' for Active; 'I' for Inactive)
REMARK    1  A    between atoms: C_2  and  N_10
REMARK    2  A    between atoms: C_3  and  O_25
REMARK    3  A    between atoms: N_9  and  C_15
REMARK    4  A    between atoms: C_16  and  C_24
REMARK    5  A    between atoms: O_25  and  C_27
REMARK    6  A    between atoms: C_29  and  C_34
REMARK                            x       y       z     vdW  Elec       q    Type
REMARK                         _______ _______ _______ _____ _____    ______ ____
ROOT
ATOM      1  F   UNL     1       9.598  32.381  16.217  0.00  0.00    +0.000 F 
ATOM      2  C   UNL     1       7.831  33.934  16.482  0.00  0.00    +0.000 A 
ATOM      3  C   UNL     1       9.580  35.965  15.690  0.00  0.00    +0.000 A 
ATOM      4  C   UNL     1       9.160  33.648  16.155  0.00  0.00    +0.000 A 
ATOM      5  C   UNL     1       7.396  35.257  16.426  0.00  0.00    +0.000 A 
ATOM      6  C   UNL     1      10.044  34.653  15.773  0.00  0.00    +0.000 A 
ATOM      7  C   UNL     1       8.269  36.274  16.044  0.00  0.00    +0.000 A 
ENDROOT
BRANCH   2  10
ATOM      8  O   UNL     1       5.479  32.930  15.106  0.00  0.00    +0.000 OA
ATOM      9  N   UNL     1       5.297  31.335  16.770  0.00  0.00    +0.000 N 
ATOM     10  N   UNL     1       6.989  32.864  16.852  0.00  0.00    +0.000 N 
ATOM     11  C   UNL     1       5.883  32.423  16.144  0.00  0.00    +0.000 C 
ATOM     12  H   UNL     1       5.733  30.981  17.608  0.00  0.00    +0.000 HD
ATOM     13  H   UNL     1       7.223  32.403  17.720  0.00  0.00    +0.000 HD
BRANCH   9  15
ATOM     14 CL   UNL     1       0.559  28.376  14.804  0.00  0.00    +0.000 Cl
ATOM     15  C   UNL     1       4.151  30.654  16.319  0.00  0.00    +0.000 A 
ATOM     16  C   UNL     1       3.254  28.809  14.998  0.00  0.00    +0.000 A 
ATOM     17  C   UNL     1       4.337  29.546  15.492  0.00  0.00    +0.000 A 
ATOM     18  C   UNL     1       2.856  31.032  16.660  0.00  0.00    +0.000 A 
ATOM     19  C   UNL     1       1.964  29.207  15.352  0.00  0.00    +0.000 A 
ATOM     20  C   UNL     1       1.767  30.313  16.178  0.00  0.00    +0.000 A 
BRANCH  16  24
ATOM     21  F   UNL     1       3.199  26.443  14.703  0.00  0.00    +0.000 F 
ATOM     22  F   UNL     1       2.820  27.664  12.953  0.00  0.00    +0.000 F 
ATOM     23  F   UNL     1       4.836  27.514  13.771  0.00  0.00    +0.000 F 
ATOM     24  C   UNL     1       3.525  27.631  14.117  0.00  0.00    +0.000 C 
ENDBRANCH  16  24
ENDBRANCH   9  15
ENDBRANCH   2  10
BRANCH   3  25
ATOM     25  O   UNL     1      10.416  37.017  15.393  0.00  0.00    +0.000 OA
BRANCH  25  27
ATOM     26  N   UNL     1      11.461  39.807  18.313  0.00  0.00    +0.000 NA
ATOM     27  C   UNL     1      10.748  37.881  16.411  0.00  0.00    +0.000 A 
ATOM     28  C   UNL     1      11.520  37.511  17.507  0.00  0.00    +0.000 A 
ATOM     29  C   UNL     1      11.836  38.501  18.424  0.00  0.00    +0.000 A 
ATOM     30  C   UNL     1      10.361  39.207  16.243  0.00  0.00    +0.000 A 
ATOM     31  C   UNL     1      10.734  40.120  17.216  0.00  0.00    +0.000 A 
BRANCH  29  34
ATOM     32  O   UNL     1      12.755  38.950  20.548  0.00  0.00    +0.000 OA
ATOM     33  N   UNL     1      13.168  36.874  19.555  0.00  0.00    +0.000 N 
ATOM     34  C   UNL     1      12.630  38.147  19.629  0.00  0.00    +0.000 C 
ATOM     35  C   UNL     1      13.992  36.132  20.470  0.00  0.00    +0.000 C 
ATOM     36  H   UNL     1      12.944  36.373  18.696  0.00  0.00    +0.000 HD
ENDBRANCH  29  34
ENDBRANCH  25  27
ENDBRANCH   3  25
TORSDOF 6
ENDMDL
MODEL 5
REMARK VINA RESULT:      -7.3     16.564     20.815
REMARK  Name = 11167602_Regorafenib.pdbqt.pdb
REMARK  6 active torsions:
REMARK  status: ('A' for Active; 'I' for Inactive)
REMARK    1  A    between atoms: C_2  and  N_10
REMARK    2  A    between atoms: C_3  and  O_25
REMARK    3  A    between atoms: N_9  and  C_15
REMARK    4  A    between atoms: C_16  and  C_24
REMARK    5  A    between atoms: O_25  and  C_27
REMARK    6  A    between atoms: C_29  and  C_34
REMARK                            x       y       z     vdW  Elec       q    Type
REMARK                         _______ _______ _______ _____ _____    ______ ____
ROOT
ATOM      1  F   UNL     1      17.615  47.411   8.843  0.00  0.00    +0.000 F 
ATOM      2  C   UNL     1      17.395  45.241   7.926  0.00  0.00    +0.000 A 
ATOM      3  C   UNL     1      15.107  44.879   9.490  0.00  0.00    +0.000 A 
ATOM      4  C   UNL     1      16.943  46.251   8.780  0.00  0.00    +0.000 A 
ATOM      5  C   UNL     1      16.695  44.036   7.882  0.00  0.00    +0.000 A 
ATOM      6  C   UNL     1      15.814  46.078   9.573  0.00  0.00    +0.000 A 
ATOM      7  C   UNL     1      15.561  43.848   8.671  0.00  0.00    +0.000 A 
ENDROOT
BRANCH   2  10
ATOM      8  O   UNL     1      17.600  46.743   5.449  0.00  0.00    +0.000 OA
ATOM      9  N   UNL     1      19.869  46.300   5.472  0.00  0.00    +0.000 N 
ATOM     10  N   UNL     1      18.542  45.489   7.143  0.00  0.00    +0.000 N 
ATOM     11  C   UNL     1      18.578  46.227   5.972  0.00  0.00    +0.000 C 
ATOM     12  H   UNL     1      20.606  45.860   6.003  0.00  0.00    +0.000 HD
ATOM     13  H   UNL     1      19.399  45.071   7.478  0.00  0.00    +0.000 HD
BRANCH   9  15
ATOM     14 CL   UNL     1      21.353  49.167   0.508  0.00  0.00    +0.000 Cl
ATOM     15  C   UNL     1      20.251  46.965   4.292  0.00  0.00    +0.000 A 
ATOM     16  C   UNL     1      19.643  48.572   2.560  0.00  0.00    +0.000 A 
ATOM     17  C   UNL     1      19.345  47.866   3.732  0.00  0.00    +0.000 A 
ATOM     18  C   UNL     1      21.479  46.765   3.669  0.00  0.00    +0.000 A 
ATOM     19  C   UNL     1      20.880  48.356   1.951  0.00  0.00    +0.000 A 
ATOM     20  C   UNL     1      21.792  47.457   2.503  0.00  0.00    +0.000 A 
BRANCH  16  24
ATOM     21  F   UNL     1      17.476  49.550   2.745  0.00  0.00    +0.000 F 
ATOM     22  F   UNL     1      19.067  50.812   1.987  0.00  0.00    +0.000 F 
ATOM     23  F   UNL     1      18.241  49.220   0.745  0.00  0.00    +0.000 F 
ATOM     24  C   UNL     1      18.627  49.525   2.014  0.00  0.00    +0.000 C 
ENDBRANCH  16  24
ENDBRANCH   9  15
ENDBRANCH   2  10
BRANCH   3  25
ATOM     25  O   UNL     1      14.027  44.610  10.299  0.00  0.00    +0.000 OA
BRANCH  25  27
ATOM     26  N   UNL     1      10.799  47.210   9.825  0.00  0.00    +0.000 NA
ATOM     27  C   UNL     1      12.938  45.448  10.215  0.00  0.00    +0.000 A 
ATOM     28  C   UNL     1      12.502  46.244  11.270  0.00  0.00    +0.000 A 
ATOM     29  C   UNL     1      11.433  47.090  11.026  0.00  0.00    +0.000 A 
ATOM     30  C   UNL     1      12.337  45.552   8.965  0.00  0.00    +0.000 A 
ATOM     31  C   UNL     1      11.278  46.434   8.826  0.00  0.00    +0.000 A 
BRANCH  29  34
ATOM     32  O   UNL     1      10.931  47.528  13.287  0.00  0.00    +0.000 OA
ATOM     33  N   UNL     1      10.429  49.154  11.684  0.00  0.00    +0.000 N 
ATOM     34  C   UNL     1      10.910  47.935  12.130  0.00  0.00    +0.000 C 
ATOM     35  C   UNL     1       9.839  50.261  12.386  0.00  0.00    +0.000 C 
ATOM     36  H   UNL     1      10.503  49.291  10.676  0.00  0.00    +0.000 HD
ENDBRANCH  29  34
ENDBRANCH  25  27
ENDBRANCH   3  25
TORSDOF 6
ENDMDL
MODEL 6
REMARK VINA RESULT:      -7.1     19.478     21.462
REMARK  Name = 11167602_Regorafenib.pdbqt.pdb
REMARK  6 active torsions:
REMARK  status: ('A' for Active; 'I' for Inactive)
REMARK    1  A    between atoms: C_2  and  N_10
REMARK    2  A    between atoms: C_3  and  O_25
REMARK    3  A    between atoms: N_9  and  C_15
REMARK    4  A    between atoms: C_16  and  C_24
REMARK    5  A    between atoms: O_25  and  C_27
REMARK    6  A    between atoms: C_29  and  C_34
REMARK                            x       y       z     vdW  Elec       q    Type
REMARK                         _______ _______ _______ _____ _____    ______ ____
ROOT
ATOM      1  F   UNL     1       2.950  21.693  -0.600  0.00  0.00    +0.000 F 
ATOM      2  C   UNL     1       2.198  23.772   0.244  0.00  0.00    +0.000 A 
ATOM      3  C   UNL     1       2.785  24.921  -2.235  0.00  0.00    +0.000 A 
ATOM      4  C   UNL     1       2.728  23.002  -0.795  0.00  0.00    +0.000 A 
ATOM      5  C   UNL     1       1.986  25.133   0.030  0.00  0.00    +0.000 A 
ATOM      6  C   UNL     1       3.036  23.565  -2.029  0.00  0.00    +0.000 A 
ATOM      7  C   UNL     1       2.290  25.712  -1.201  0.00  0.00    +0.000 A 
ENDROOT
BRANCH   2  10
ATOM      8  O   UNL     1      -0.219  22.345   0.992  0.00  0.00    +0.000 OA
ATOM      9  N   UNL     1       0.772  21.921   3.038  0.00  0.00    +0.000 N 
ATOM     10  N   UNL     1       1.900  23.133   1.466  0.00  0.00    +0.000 N 
ATOM     11  C   UNL     1       0.728  22.455   1.759  0.00  0.00    +0.000 C 
ATOM     12  H   UNL     1       1.618  22.049   3.574  0.00  0.00    +0.000 HD
ATOM     13  H   UNL     1       2.612  23.200   2.180  0.00  0.00    +0.000 HD
BRANCH   9  15
ATOM     14 CL   UNL     1      -3.624  18.939   5.653  0.00  0.00    +0.000 Cl
ATOM     15  C   UNL     1      -0.258  21.183   3.650  0.00  0.00    +0.000 A 
ATOM     16  C   UNL     1      -2.344  21.242   4.914  0.00  0.00    +0.000 A 
ATOM     17  C   UNL     1      -1.280  21.894   4.280  0.00  0.00    +0.000 A 
ATOM     18  C   UNL     1      -0.301  19.793   3.653  0.00  0.00    +0.000 A 
ATOM     19  C   UNL     1      -2.367  19.846   4.906  0.00  0.00    +0.000 A 
ATOM     20  C   UNL     1      -1.350  19.126   4.279  0.00  0.00    +0.000 A 
BRANCH  16  24
ATOM     21  F   UNL     1      -3.040  23.367   5.742  0.00  0.00    +0.000 F 
ATOM     22  F   UNL     1      -4.563  22.108   4.852  0.00  0.00    +0.000 F 
ATOM     23  F   UNL     1      -3.738  21.616   6.811  0.00  0.00    +0.000 F 
ATOM     24  C   UNL     1      -3.407  22.065   5.569  0.00  0.00    +0.000 C 
ENDBRANCH  16  24
ENDBRANCH   9  15
ENDBRANCH   2  10
BRANCH   3  25
ATOM     25  O   UNL     1       3.135  25.559  -3.402  0.00  0.00    +0.000 OA
BRANCH  25  27
ATOM     26  N   UNL     1       0.328  28.201  -5.001  0.00  0.00    +0.000 NA
ATOM     27  C   UNL     1       2.200  26.381  -3.991  0.00  0.00    +0.000 A 
ATOM     28  C   UNL     1       1.045  25.909  -4.605  0.00  0.00    +0.000 A 
ATOM     29  C   UNL     1       0.157  26.852  -5.097  0.00  0.00    +0.000 A 
ATOM     30  C   UNL     1       2.408  27.749  -3.848  0.00  0.00    +0.000 A 
ATOM     31  C   UNL     1       1.455  28.608  -4.371  0.00  0.00    +0.000 A 
BRANCH  29  34
ATOM     32  O   UNL     1      -2.179  26.602  -5.298  0.00  0.00    +0.000 OA
ATOM     33  N   UNL     1      -0.803  25.750  -6.985  0.00  0.00    +0.000 N 
ATOM     34  C   UNL     1      -1.075  26.396  -5.791  0.00  0.00    +0.000 C 
ATOM     35  C   UNL     1      -1.669  25.152  -7.965  0.00  0.00    +0.000 C 
ATOM     36  H   UNL     1       0.189  25.682  -7.209  0.00  0.00    +0.000 HD
ENDBRANCH  29  34
ENDBRANCH  25  27
ENDBRANCH   3  25
TORSDOF 6
ENDMDL
MODEL 7
REMARK VINA RESULT:      -7.1     17.438     20.490
REMARK  Name = 11167602_Regorafenib.pdbqt.pdb
REMARK  6 active torsions:
REMARK  status: ('A' for Active; 'I' for Inactive)
REMARK    1  A    between atoms: C_2  and  N_10
REMARK    2  A    between atoms: C_3  and  O_25
REMARK    3  A    between atoms: N_9  and  C_15
REMARK    4  A    between atoms: C_16  and  C_24
REMARK    5  A    between atoms: O_25  and  C_27
REMARK    6  A    between atoms: C_29  and  C_34
REMARK                            x       y       z     vdW  Elec       q    Type
REMARK                         _______ _______ _______ _____ _____    ______ ____
ROOT
ATOM      1  F   UNL     1       3.764  20.591   0.980  0.00  0.00    +0.000 F 
ATOM      2  C   UNL     1       2.059  22.066   1.700  0.00  0.00    +0.000 A 
ATOM      3  C   UNL     1       2.652  23.716  -0.477  0.00  0.00    +0.000 A 
ATOM      4  C   UNL     1       3.073  21.727   0.799  0.00  0.00    +0.000 A 
ATOM      5  C   UNL     1       1.359  23.256   1.506  0.00  0.00    +0.000 A 
ATOM      6  C   UNL     1       3.387  22.546  -0.280  0.00  0.00    +0.000 A 
ATOM      7  C   UNL     1       1.661  24.088   0.429  0.00  0.00    +0.000 A 
ENDROOT
BRANCH   2  10
ATOM      8  O   UNL     1       2.552  22.456   4.536  0.00  0.00    +0.000 OA
ATOM      9  N   UNL     1       1.626  20.368   4.892  0.00  0.00    +0.000 N 
ATOM     10  N   UNL     1       1.788  21.183   2.767  0.00  0.00    +0.000 N 
ATOM     11  C   UNL     1       2.036  21.433   4.106  0.00  0.00    +0.000 C 
ATOM     12  H   UNL     1       1.185  19.584   4.433  0.00  0.00    +0.000 HD
ATOM     13  H   UNL     1       1.392  20.291   2.506  0.00  0.00    +0.000 HD
BRANCH   9  15
ATOM     14 CL   UNL     1       2.259  20.044  10.771  0.00  0.00    +0.000 Cl
ATOM     15  C   UNL     1       1.743  20.294   6.293  0.00  0.00    +0.000 A 
ATOM     16  C   UNL     1       3.228  20.043   8.212  0.00  0.00    +0.000 A 
ATOM     17  C   UNL     1       3.019  20.126   6.830  0.00  0.00    +0.000 A 
ATOM     18  C   UNL     1       0.654  20.383   7.154  0.00  0.00    +0.000 A 
ATOM     19  C   UNL     1       2.121  20.133   9.057  0.00  0.00    +0.000 A 
ATOM     20  C   UNL     1       0.841  20.301   8.530  0.00  0.00    +0.000 A 
BRANCH  16  24
ATOM     21  F   UNL     1       4.821  18.649   9.312  0.00  0.00    +0.000 F 
ATOM     22  F   UNL     1       5.562  19.942   7.739  0.00  0.00    +0.000 F 
ATOM     23  F   UNL     1       4.969  20.783   9.662  0.00  0.00    +0.000 F 
ATOM     24  C   UNL     1       4.624  19.863   8.721  0.00  0.00    +0.000 C 
ENDBRANCH  16  24
ENDBRANCH   9  15
ENDBRANCH   2  10
BRANCH   3  25
ATOM     25  O   UNL     1       2.957  24.609  -1.477  0.00  0.00    +0.000 OA
BRANCH  25  27
ATOM     26  N   UNL     1       0.299  24.971  -4.673  0.00  0.00    +0.000 NA
ATOM     27  C   UNL     1       2.038  24.780  -2.488  0.00  0.00    +0.000 A 
ATOM     28  C   UNL     1       1.498  26.015  -2.831  0.00  0.00    +0.000 A 
ATOM     29  C   UNL     1       0.636  26.052  -3.914  0.00  0.00    +0.000 A 
ATOM     30  C   UNL     1       1.742  23.652  -3.246  0.00  0.00    +0.000 A 
ATOM     31  C   UNL     1       0.871  23.798  -4.314  0.00  0.00    +0.000 A 
BRANCH  29  34
ATOM     32  O   UNL     1       0.704  28.315  -4.570  0.00  0.00    +0.000 OA
ATOM     33  N   UNL     1      -1.375  27.281  -4.296  0.00  0.00    +0.000 N 
ATOM     34  C   UNL     1       0.008  27.343  -4.298  0.00  0.00    +0.000 C 
ATOM     35  C   UNL     1      -2.373  28.272  -4.593  0.00  0.00    +0.000 C 
ATOM     36  H   UNL     1      -1.754  26.372  -4.034  0.00  0.00    +0.000 HD
ENDBRANCH  29  34
ENDBRANCH  25  27
ENDBRANCH   3  25
TORSDOF 6
ENDMDL
MODEL 8
REMARK VINA RESULT:      -6.8     15.492     18.024
REMARK  Name = 11167602_Regorafenib.pdbqt.pdb
REMARK  6 active torsions:
REMARK  status: ('A' for Active; 'I' for Inactive)
REMARK    1  A    between atoms: C_2  and  N_10
REMARK    2  A    between atoms: C_3  and  O_25
REMARK    3  A    between atoms: N_9  and  C_15
REMARK    4  A    between atoms: C_16  and  C_24
REMARK    5  A    between atoms: O_25  and  C_27
REMARK    6  A    between atoms: C_29  and  C_34
REMARK                            x       y       z     vdW  Elec       q    Type
REMARK                         _______ _______ _______ _____ _____    ______ ____
ROOT
ATOM      1  F   UNL     1      13.511  49.920  12.024  0.00  0.00    +0.000 F 
ATOM      2  C   UNL     1      11.920  48.546  13.112  0.00  0.00    +0.000 A 
ATOM      3  C   UNL     1      11.879  46.907  10.848  0.00  0.00    +0.000 A 
ATOM      4  C   UNL     1      12.714  48.840  11.999  0.00  0.00    +0.000 A 
ATOM      5  C   UNL     1      11.087  47.429  13.065  0.00  0.00    +0.000 A 
ATOM      6  C   UNL     1      12.693  48.040  10.862  0.00  0.00    +0.000 A 
ATOM      7  C   UNL     1      11.055  46.617  11.932  0.00  0.00    +0.000 A 
ENDROOT
BRANCH   2  10
ATOM      8  O   UNL     1      10.587  51.089  13.549  0.00  0.00    +0.000 OA
ATOM      9  N   UNL     1      11.606  51.165  15.622  0.00  0.00    +0.000 N 
ATOM     10  N   UNL     1      12.000  49.396  14.235  0.00  0.00    +0.000 N 
ATOM     11  C   UNL     1      11.327  50.597  14.389  0.00  0.00    +0.000 C 
ATOM     12  H   UNL     1      12.209  50.656  16.251  0.00  0.00    +0.000 HD
ATOM     13  H   UNL     1      12.619  49.089  14.972  0.00  0.00    +0.000 HD
BRANCH   9  15
ATOM     14 CL   UNL     1       9.366  56.243  17.686  0.00  0.00    +0.000 Cl
ATOM     15  C   UNL     1      11.094  52.389  16.092  0.00  0.00    +0.000 A 
ATOM     16  C   UNL     1       9.525  53.513  17.584  0.00  0.00    +0.000 A 
ATOM     17  C   UNL     1      10.091  52.344  17.060  0.00  0.00    +0.000 A 
ATOM     18  C   UNL     1      11.542  53.626  15.639  0.00  0.00    +0.000 A 
ATOM     19  C   UNL     1       9.988  54.743  17.114  0.00  0.00    +0.000 A 
ATOM     20  C   UNL     1      10.991  54.798  16.147  0.00  0.00    +0.000 A 
BRANCH  16  24
ATOM     21  F   UNL     1       8.778  54.011  19.793  0.00  0.00    +0.000 F 
ATOM     22  F   UNL     1       7.274  53.953  18.233  0.00  0.00    +0.000 F 
ATOM     23  F   UNL     1       8.178  52.104  18.957  0.00  0.00    +0.000 F 
ATOM     24  C   UNL     1       8.453  53.394  18.621  0.00  0.00    +0.000 C 
ENDBRANCH  16  24
ENDBRANCH   9  15
ENDBRANCH   2  10
BRANCH   3  25
ATOM     25  O   UNL     1      11.751  46.115   9.731  0.00  0.00    +0.000 OA
BRANCH  25  27
ATOM     26  N   UNL     1      14.767  43.378   8.824  0.00  0.00    +0.000 NA
ATOM     27  C   UNL     1      12.795  45.273   9.417  0.00  0.00    +0.000 A 
ATOM     28  C   UNL     1      14.107  45.499   9.817  0.00  0.00    +0.000 A 
ATOM     29  C   UNL     1      15.045  44.535   9.489  0.00  0.00    +0.000 A 
ATOM     30  C   UNL     1      12.457  44.096   8.756  0.00  0.00    +0.000 A 
ATOM     31  C   UNL     1      13.471  43.193   8.481  0.00  0.00    +0.000 A 
BRANCH  29  34
ATOM     32  O   UNL     1      17.012  45.825   9.650  0.00  0.00    +0.000 OA
ATOM     33  N   UNL     1      17.035  43.627  10.447  0.00  0.00    +0.000 N 
ATOM     34  C   UNL     1      16.467  44.747   9.865  0.00  0.00    +0.000 C 
ATOM     35  C   UNL     1      18.360  43.383  10.950  0.00  0.00    +0.000 C 
ATOM     36  H   UNL     1      16.404  42.831  10.529  0.00  0.00    +0.000 HD
ENDBRANCH  29  34
ENDBRANCH  25  27
ENDBRANCH   3  25
TORSDOF 6
ENDMDL
MODEL 9
REMARK VINA RESULT:      -6.7     13.608     17.242
REMARK  Name = 11167602_Regorafenib.pdbqt.pdb
REMARK  6 active torsions:
REMARK  status: ('A' for Active; 'I' for Inactive)
REMARK    1  A    between atoms: C_2  and  N_10
REMARK    2  A    between atoms: C_3  and  O_25
REMARK    3  A    between atoms: N_9  and  C_15
REMARK    4  A    between atoms: C_16  and  C_24
REMARK    5  A    between atoms: O_25  and  C_27
REMARK    6  A    between atoms: C_29  and  C_34
REMARK                            x       y       z     vdW  Elec       q    Type
REMARK                         _______ _______ _______ _____ _____    ______ ____
ROOT
ATOM      1  F   UNL     1      -6.560  40.826  12.881  0.00  0.00    +0.000 F 
ATOM      2  C   UNL     1      -7.146  41.651  15.020  0.00  0.00    +0.000 A 
ATOM      3  C   UNL     1      -4.602  40.930  15.927  0.00  0.00    +0.000 A 
ATOM      4  C   UNL     1      -6.222  41.051  14.160  0.00  0.00    +0.000 A 
ATOM      5  C   UNL     1      -6.784  41.865  16.349  0.00  0.00    +0.000 A 
ATOM      6  C   UNL     1      -4.958  40.675  14.602  0.00  0.00    +0.000 A 
ATOM      7  C   UNL     1      -5.521  41.495  16.808  0.00  0.00    +0.000 A 
ENDROOT
BRANCH   2  10
ATOM      8  O   UNL     1      -9.726  40.411  15.511  0.00  0.00    +0.000 OA
ATOM      9  N   UNL     1     -10.658  42.015  14.130  0.00  0.00    +0.000 N 
ATOM     10  N   UNL     1      -8.406  42.014  14.500  0.00  0.00    +0.000 N 
ATOM     11  C   UNL     1      -9.609  41.388  14.783  0.00  0.00    +0.000 C 
ATOM     12  H   UNL     1     -10.449  42.833  13.577  0.00  0.00    +0.000 HD
ATOM     13  H   UNL     1      -8.406  42.794  13.858  0.00  0.00    +0.000 HD
BRANCH   9  15
ATOM     14 CL   UNL     1     -16.307  40.251  14.334  0.00  0.00    +0.000 Cl
ATOM     15  C   UNL     1     -12.009  41.624  14.194  0.00  0.00    +0.000 A 
ATOM     16  C   UNL     1     -13.674  39.921  13.666  0.00  0.00    +0.000 A 
ATOM     17  C   UNL     1     -12.355  40.389  13.646  0.00  0.00    +0.000 A 
ATOM     18  C   UNL     1     -13.001  42.408  14.774  0.00  0.00    +0.000 A 
ATOM     19  C   UNL     1     -14.654  40.724  14.252  0.00  0.00    +0.000 A 
ATOM     20  C   UNL     1     -14.319  41.961  14.802  0.00  0.00    +0.000 A 
BRANCH  16  24
ATOM     21  F   UNL     1     -14.161  37.610  13.997  0.00  0.00    +0.000 F 
ATOM     22  F   UNL     1     -15.111  38.587  12.312  0.00  0.00    +0.000 F 
ATOM     23  F   UNL     1     -12.979  38.129  12.256  0.00  0.00    +0.000 F 
ATOM     24  C   UNL     1     -13.976  38.586  13.062  0.00  0.00    +0.000 C 
ENDBRANCH  16  24
ENDBRANCH   9  15
ENDBRANCH   2  10
BRANCH   3  25
ATOM     25  O   UNL     1      -3.399  40.517  16.451  0.00  0.00    +0.000 OA
BRANCH  25  27
ATOM     26  N   UNL     1      -1.339  37.735  14.123  0.00  0.00    +0.000 NA
ATOM     27  C   UNL     1      -2.680  39.577  15.748  0.00  0.00    +0.000 A 
ATOM     28  C   UNL     1      -2.388  38.310  16.242  0.00  0.00    +0.000 A 
ATOM     29  C   UNL     1      -1.714  37.441  15.400  0.00  0.00    +0.000 A 
ATOM     30  C   UNL     1      -2.338  39.916  14.443  0.00  0.00    +0.000 A 
ATOM     31  C   UNL     1      -1.669  38.971  13.682  0.00  0.00    +0.000 A 
BRANCH  29  34
ATOM     32  O   UNL     1      -0.755  35.954  16.958  0.00  0.00    +0.000 OA
ATOM     33  N   UNL     1      -1.755  35.082  15.033  0.00  0.00    +0.000 N 
ATOM     34  C   UNL     1      -1.351  36.088  15.894  0.00  0.00    +0.000 C 
ATOM     35  C   UNL     1      -1.614  33.653  15.103  0.00  0.00    +0.000 C 
ATOM     36  H   UNL     1      -2.235  35.414  14.197  0.00  0.00    +0.000 HD
ENDBRANCH  29  34
ENDBRANCH  25  27
ENDBRANCH   3  25
TORSDOF 6
ENDMDL
