MODEL 1
REMARK VINA RESULT:      -5.9      0.000      0.000
REMARK  Name = 114778_Kahweol.pdbqt.pdb
REMARK  3 active torsions:
REMARK  status: ('A' for Active; 'I' for Inactive)
REMARK    1  A    between atoms: C_8  and  O_21
REMARK    2  A    between atoms: C_8  and  C_23
REMARK    3  A    between atoms: C_23  and  O_24
REMARK                            x       y       z     vdW  Elec       q    Type
REMARK                         _______ _______ _______ _____ _____    ______ ____
ROOT
ATOM      1  O   UNL     1       4.017  12.674   7.501  0.00  0.00    +0.000 OA
ATOM      2  C   UNL     1       3.789  18.028  10.743  0.00  0.00    +0.000 C 
ATOM      3  C   UNL     1       4.738  17.633   9.528  0.00  0.00    +0.000 C 
ATOM      4  C   UNL     1       4.131  20.382  10.480  0.00  0.00    +0.000 C 
ATOM      5  C   UNL     1       4.386  19.238  11.371  0.00  0.00    +0.000 C 
ATOM      6  C   UNL     1       2.589  18.700  10.199  0.00  0.00    +0.000 C 
ATOM      7  C   UNL     1       5.376  16.244   9.414  0.00  0.00    +0.000 C 
ATOM      8  C   UNL     1       2.605  20.174  10.106  0.00  0.00    +0.000 C 
ATOM      9  C   UNL     1       3.544  16.862  11.552  0.00  0.00    +0.000 C 
ATOM     10  C   UNL     1       5.285  18.808   8.869  0.00  0.00    +0.000 C 
ATOM     11  C   UNL     1       5.047  20.242   9.357  0.00  0.00    +0.000 C 
ATOM     12  C   UNL     1       4.599  15.044  10.186  0.00  0.00    +0.000 C 
ATOM     13  C   UNL     1       3.877  15.419  11.342  0.00  0.00    +0.000 C 
ATOM     14  C   UNL     1       6.817  16.293  10.016  0.00  0.00    +0.000 C 
ATOM     15  C   UNL     1       5.403  15.836   7.982  0.00  0.00    +0.000 C 
ATOM     16  C   UNL     1       4.228  13.880   9.414  0.00  0.00    +0.000 A 
ATOM     17  C   UNL     1       5.066  14.870   7.357  0.00  0.00    +0.000 C 
ATOM     18  C   UNL     1       4.461  13.811   8.056  0.00  0.00    +0.000 A 
ATOM     19  C   UNL     1       3.576  12.672   9.731  0.00  0.00    +0.000 A 
ATOM     20  C   UNL     1       3.477  11.961   8.543  0.00  0.00    +0.000 A 
ENDROOT
BRANCH   8  21
ATOM     21  O   UNL     1       1.775  20.716  11.118  0.00  0.00    +0.000 OA
ATOM     22  H   UNL     1       1.722  20.037  11.811  0.00  0.00    +0.000 HD
ENDBRANCH   8  21
BRANCH   8  23
ATOM     23  C   UNL     1       2.222  20.730   8.802  0.00  0.00    +0.000 C 
BRANCH  23  24
ATOM     24  O   UNL     1       1.862  21.244   7.626  0.00  0.00    +0.000 OA
ATOM     25  H   UNL     1       2.549  21.089   6.953  0.00  0.00    +0.000 HD
ENDBRANCH  23  24
ENDBRANCH   8  23
TORSDOF 3
ENDMDL
MODEL 2
REMARK VINA RESULT:      -5.9     18.069     21.873
REMARK  Name = 114778_Kahweol.pdbqt.pdb
REMARK  3 active torsions:
REMARK  status: ('A' for Active; 'I' for Inactive)
REMARK    1  A    between atoms: C_8  and  O_21
REMARK    2  A    between atoms: C_8  and  C_23
REMARK    3  A    between atoms: C_23  and  O_24
REMARK                            x       y       z     vdW  Elec       q    Type
REMARK                         _______ _______ _______ _____ _____    ______ ____
ROOT
ATOM      1  O   UNL     1      12.652  39.946  16.875  0.00  0.00    +0.000 OA
ATOM      2  C   UNL     1       9.379  34.613  17.128  0.00  0.00    +0.000 C 
ATOM      3  C   UNL     1      10.091  35.292  15.877  0.00  0.00    +0.000 C 
ATOM      4  C   UNL     1       9.262  32.447  16.113  0.00  0.00    +0.000 C 
ATOM      5  C   UNL     1       8.452  33.585  16.581  0.00  0.00    +0.000 C 
ATOM      6  C   UNL     1      10.330  33.663  17.747  0.00  0.00    +0.000 C 
ATOM      7  C   UNL     1      10.037  36.804  15.635  0.00  0.00    +0.000 C 
ATOM      8  C   UNL     1      10.278  32.252  17.314  0.00  0.00    +0.000 C 
ATOM      9  C   UNL     1       8.862  35.639  17.995  0.00  0.00    +0.000 C 
ATOM     10  C   UNL     1      10.342  34.332  14.814  0.00  0.00    +0.000 C 
ATOM     11  C   UNL     1       9.884  32.869  14.866  0.00  0.00    +0.000 C 
ATOM     12  C   UNL     1       9.786  37.723  16.952  0.00  0.00    +0.000 C 
ATOM     13  C   UNL     1       9.031  37.125  17.986  0.00  0.00    +0.000 C 
ATOM     14  C   UNL     1       8.866  37.122  14.649  0.00  0.00    +0.000 C 
ATOM     15  C   UNL     1      11.344  37.257  15.084  0.00  0.00    +0.000 C 
ATOM     16  C   UNL     1      10.742  38.771  17.228  0.00  0.00    +0.000 A 
ATOM     17  C   UNL     1      12.135  38.119  15.345  0.00  0.00    +0.000 C 
ATOM     18  C   UNL     1      11.863  38.950  16.447  0.00  0.00    +0.000 A 
ATOM     19  C   UNL     1      10.845  39.748  18.240  0.00  0.00    +0.000 A 
ATOM     20  C   UNL     1      12.015  40.449  17.982  0.00  0.00    +0.000 A 
ENDROOT
BRANCH   8  21
ATOM     21  O   UNL     1       9.685  31.470  18.335  0.00  0.00    +0.000 OA
ATOM     22  H   UNL     1      10.260  30.695  18.445  0.00  0.00    +0.000 HD
ENDBRANCH   8  21
BRANCH   8  23
ATOM     23  C   UNL     1      11.566  31.662  16.925  0.00  0.00    +0.000 C 
BRANCH  23  24
ATOM     24  O   UNL     1      12.738  31.141  16.560  0.00  0.00    +0.000 OA
ATOM     25  H   UNL     1      12.747  30.177  16.698  0.00  0.00    +0.000 HD
ENDBRANCH  23  24
ENDBRANCH   8  23
TORSDOF 3
ENDMDL
MODEL 3
REMARK VINA RESULT:      -5.7     25.195     27.727
REMARK  Name = 114778_Kahweol.pdbqt.pdb
REMARK  3 active torsions:
REMARK  status: ('A' for Active; 'I' for Inactive)
REMARK    1  A    between atoms: C_8  and  O_21
REMARK    2  A    between atoms: C_8  and  C_23
REMARK    3  A    between atoms: C_23  and  O_24
REMARK                            x       y       z     vdW  Elec       q    Type
REMARK                         _______ _______ _______ _____ _____    ______ ____
ROOT
ATOM      1  O   UNL     1      -3.348  40.822  13.508  0.00  0.00    +0.000 OA
ATOM      2  C   UNL     1       0.671  44.767  16.246  0.00  0.00    +0.000 C 
ATOM      3  C   UNL     1       0.394  43.234  16.572  0.00  0.00    +0.000 C 
ATOM      4  C   UNL     1       2.804  44.798  17.333  0.00  0.00    +0.000 C 
ATOM      5  C   UNL     1       1.427  45.317  17.404  0.00  0.00    +0.000 C 
ATOM      6  C   UNL     1       1.783  44.843  15.273  0.00  0.00    +0.000 C 
ATOM      7  C   UNL     1      -1.023  42.651  16.589  0.00  0.00    +0.000 C 
ATOM      8  C   UNL     1       3.154  45.004  15.801  0.00  0.00    +0.000 C 
ATOM      9  C   UNL     1      -0.559  45.396  15.844  0.00  0.00    +0.000 C 
ATOM     10  C   UNL     1       1.504  42.627  17.288  0.00  0.00    +0.000 C 
ATOM     11  C   UNL     1       2.742  43.405  17.752  0.00  0.00    +0.000 C 
ATOM     12  C   UNL     1      -2.125  43.445  15.695  0.00  0.00    +0.000 C 
ATOM     13  C   UNL     1      -1.912  44.834  15.544  0.00  0.00    +0.000 C 
ATOM     14  C   UNL     1      -1.561  42.659  18.057  0.00  0.00    +0.000 C 
ATOM     15  C   UNL     1      -0.989  41.270  16.034  0.00  0.00    +0.000 C 
ATOM     16  C   UNL     1      -2.859  42.685  14.709  0.00  0.00    +0.000 A 
ATOM     17  C   UNL     1      -1.595  40.665  15.195  0.00  0.00    +0.000 C 
ATOM     18  C   UNL     1      -2.595  41.351  14.483  0.00  0.00    +0.000 A 
ATOM     19  C   UNL     1      -3.872  43.016  13.786  0.00  0.00    +0.000 A 
ATOM     20  C   UNL     1      -4.149  41.852  13.082  0.00  0.00    +0.000 A 
ENDROOT
BRANCH   8  21
ATOM     21  O   UNL     1       3.591  46.332  15.572  0.00  0.00    +0.000 OA
ATOM     22  H   UNL     1       2.944  46.723  14.961  0.00  0.00    +0.000 HD
ENDBRANCH   8  21
BRANCH   8  23
ATOM     23  C   UNL     1       4.148  44.059  15.277  0.00  0.00    +0.000 C 
BRANCH  23  24
ATOM     24  O   UNL     1       5.049  43.208  14.785  0.00  0.00    +0.000 OA
ATOM     25  H   UNL     1       5.949  43.570  14.866  0.00  0.00    +0.000 HD
ENDBRANCH  23  24
ENDBRANCH   8  23
TORSDOF 3
ENDMDL
MODEL 4
REMARK VINA RESULT:      -5.7     19.471     22.824
REMARK  Name = 114778_Kahweol.pdbqt.pdb
REMARK  3 active torsions:
REMARK  status: ('A' for Active; 'I' for Inactive)
REMARK    1  A    between atoms: C_8  and  O_21
REMARK    2  A    between atoms: C_8  and  C_23
REMARK    3  A    between atoms: C_23  and  O_24
REMARK                            x       y       z     vdW  Elec       q    Type
REMARK                         _______ _______ _______ _____ _____    ______ ____
ROOT
ATOM      1  O   UNL     1      15.152  38.616  16.520  0.00  0.00    +0.000 OA
ATOM      2  C   UNL     1       9.352  36.611  17.766  0.00  0.00    +0.000 C 
ATOM      3  C   UNL     1      10.430  35.997  16.770  0.00  0.00    +0.000 C 
ATOM      4  C   UNL     1       8.063  34.597  17.897  0.00  0.00    +0.000 C 
ATOM      5  C   UNL     1       8.047  35.988  17.413  0.00  0.00    +0.000 C 
ATOM      6  C   UNL     1       9.500  35.948  19.080  0.00  0.00    +0.000 C 
ATOM      7  C   UNL     1      11.302  36.882  15.872  0.00  0.00    +0.000 C 
ATOM      8  C   UNL     1       8.660  34.764  19.356  0.00  0.00    +0.000 C 
ATOM      9  C   UNL     1       9.471  38.046  17.769  0.00  0.00    +0.000 C 
ATOM     10  C   UNL     1      10.154  34.602  16.471  0.00  0.00    +0.000 C 
ATOM     11  C   UNL     1       8.917  33.853  16.982  0.00  0.00    +0.000 C 
ATOM     12  C   UNL     1      11.533  38.405  16.390  0.00  0.00    +0.000 C 
ATOM     13  C   UNL     1      10.486  38.960  17.160  0.00  0.00    +0.000 C 
ATOM     14  C   UNL     1      10.636  36.994  14.463  0.00  0.00    +0.000 C 
ATOM     15  C   UNL     1      12.665  36.289  15.779  0.00  0.00    +0.000 C 
ATOM     16  C   UNL     1      12.895  38.865  16.532  0.00  0.00    +0.000 A 
ATOM     17  C   UNL     1      13.787  36.686  15.925  0.00  0.00    +0.000 C 
ATOM     18  C   UNL     1      13.967  38.028  16.303  0.00  0.00    +0.000 A 
ATOM     19  C   UNL     1      13.470  40.089  16.931  0.00  0.00    +0.000 A 
ATOM     20  C   UNL     1      14.845  39.899  16.899  0.00  0.00    +0.000 A 
ENDROOT
BRANCH   8  21
ATOM     21  O   UNL     1       7.635  35.119  20.267  0.00  0.00    +0.000 OA
ATOM     22  H   UNL     1       7.115  34.311  20.409  0.00  0.00    +0.000 HD
ENDBRANCH   8  21
BRANCH   8  23
ATOM     23  C   UNL     1       9.377  33.583  19.853  0.00  0.00    +0.000 C 
BRANCH  23  24
ATOM     24  O   UNL     1      10.012  32.504  20.313  0.00  0.00    +0.000 OA
ATOM     25  H   UNL     1      10.541  32.086  19.610  0.00  0.00    +0.000 HD
ENDBRANCH  23  24
ENDBRANCH   8  23
TORSDOF 3
ENDMDL
MODEL 5
REMARK VINA RESULT:      -5.5     45.487     47.791
REMARK  Name = 114778_Kahweol.pdbqt.pdb
REMARK  3 active torsions:
REMARK  status: ('A' for Active; 'I' for Inactive)
REMARK    1  A    between atoms: C_8  and  O_21
REMARK    2  A    between atoms: C_8  and  C_23
REMARK    3  A    between atoms: C_23  and  O_24
REMARK                            x       y       z     vdW  Elec       q    Type
REMARK                         _______ _______ _______ _____ _____    ______ ____
ROOT
ATOM      1  O   UNL     1      -5.646  64.355   5.397  0.00  0.00    +0.000 OA
ATOM      2  C   UNL     1      -1.198  64.110   9.798  0.00  0.00    +0.000 C 
ATOM      3  C   UNL     1      -1.086  63.792   8.243  0.00  0.00    +0.000 C 
ATOM      4  C   UNL     1       1.158  64.422  10.086  0.00  0.00    +0.000 C 
ATOM      5  C   UNL     1       0.025  63.549  10.434  0.00  0.00    +0.000 C 
ATOM      6  C   UNL     1      -0.854  65.533  10.009  0.00  0.00    +0.000 C 
ATOM      7  C   UNL     1      -2.174  63.015   7.492  0.00  0.00    +0.000 C 
ATOM      8  C   UNL     1       0.548  65.865  10.334  0.00  0.00    +0.000 C 
ATOM      9  C   UNL     1      -2.493  63.699  10.274  0.00  0.00    +0.000 C 
ATOM     10  C   UNL     1       0.288  63.874   7.774  0.00  0.00    +0.000 C 
ATOM     11  C   UNL     1       1.484  64.141   8.696  0.00  0.00    +0.000 C 
ATOM     12  C   UNL     1      -3.661  63.070   8.147  0.00  0.00    +0.000 C 
ATOM     13  C   UNL     1      -3.711  63.218   9.552  0.00  0.00    +0.000 C 
ATOM     14  C   UNL     1      -1.776  61.505   7.434  0.00  0.00    +0.000 C 
ATOM     15  C   UNL     1      -2.326  63.586   6.125  0.00  0.00    +0.000 C 
ATOM     16  C   UNL     1      -4.747  63.516   7.305  0.00  0.00    +0.000 A 
ATOM     17  C   UNL     1      -3.239  63.973   5.452  0.00  0.00    +0.000 C 
ATOM     18  C   UNL     1      -4.529  63.945   6.012  0.00  0.00    +0.000 A 
ATOM     19  C   UNL     1      -6.132  63.678   7.511  0.00  0.00    +0.000 A 
ATOM     20  C   UNL     1      -6.644  64.180   6.323  0.00  0.00    +0.000 A 
ENDROOT
BRANCH   8  21
ATOM     21  O   UNL     1       0.642  66.208  11.705  0.00  0.00    +0.000 OA
ATOM     22  H   UNL     1       1.081  67.074  11.733  0.00  0.00    +0.000 HD
ENDBRANCH   8  21
BRANCH   8  23
ATOM     23  C   UNL     1       1.153  66.923   9.516  0.00  0.00    +0.000 C 
BRANCH  23  24
ATOM     24  O   UNL     1       1.720  67.879   8.778  0.00  0.00    +0.000 OA
ATOM     25  H   UNL     1       2.532  67.553   8.352  0.00  0.00    +0.000 HD
ENDBRANCH  23  24
ENDBRANCH   8  23
TORSDOF 3
ENDMDL
MODEL 6
REMARK VINA RESULT:      -5.5     27.105     30.090
REMARK  Name = 114778_Kahweol.pdbqt.pdb
REMARK  3 active torsions:
REMARK  status: ('A' for Active; 'I' for Inactive)
REMARK    1  A    between atoms: C_8  and  O_21
REMARK    2  A    between atoms: C_8  and  C_23
REMARK    3  A    between atoms: C_23  and  O_24
REMARK                            x       y       z     vdW  Elec       q    Type
REMARK                         _______ _______ _______ _____ _____    ______ ____
ROOT
ATOM      1  O   UNL     1     -17.894  41.864  14.160  0.00  0.00    +0.000 OA
ATOM      2  C   UNL     1     -11.976  40.785  12.420  0.00  0.00    +0.000 C 
ATOM      3  C   UNL     1     -13.233  39.814  12.346  0.00  0.00    +0.000 C 
ATOM      4  C   UNL     1     -10.701  39.550  10.814  0.00  0.00    +0.000 C 
ATOM      5  C   UNL     1     -10.770  39.933  12.234  0.00  0.00    +0.000 C 
ATOM      6  C   UNL     1     -11.867  41.506  11.132  0.00  0.00    +0.000 C 
ATOM      7  C   UNL     1     -14.259  39.725  13.482  0.00  0.00    +0.000 C 
ATOM      8  C   UNL     1     -10.998  40.927  10.088  0.00  0.00    +0.000 C 
ATOM      9  C   UNL     1     -12.082  41.611  13.595  0.00  0.00    +0.000 C 
ATOM     10  C   UNL     1     -13.031  38.743  11.383  0.00  0.00    +0.000 C 
ATOM     11  C   UNL     1     -11.723  38.533  10.611  0.00  0.00    +0.000 C 
ATOM     12  C   UNL     1     -14.373  41.037  14.435  0.00  0.00    +0.000 C 
ATOM     13  C   UNL     1     -13.191  41.798  14.581  0.00  0.00    +0.000 C 
ATOM     14  C   UNL     1     -13.882  38.533  14.420  0.00  0.00    +0.000 C 
ATOM     15  C   UNL     1     -15.618  39.545  12.900  0.00  0.00    +0.000 C 
ATOM     16  C   UNL     1     -15.678  41.637  14.596  0.00  0.00    +0.000 A 
ATOM     17  C   UNL     1     -16.686  40.073  13.030  0.00  0.00    +0.000 C 
ATOM     18  C   UNL     1     -16.779  41.162  13.916  0.00  0.00    +0.000 A 
ATOM     19  C   UNL     1     -16.154  42.742  15.330  0.00  0.00    +0.000 A 
ATOM     20  C   UNL     1     -17.510  42.839  15.047  0.00  0.00    +0.000 A 
ENDROOT
BRANCH   8  21
ATOM     21  O   UNL     1      -9.811  41.694   9.988  0.00  0.00    +0.000 OA
ATOM     22  H   UNL     1     -10.022  42.435   9.395  0.00  0.00    +0.000 HD
ENDBRANCH   8  21
BRANCH   8  23
ATOM     23  C   UNL     1     -11.610  40.788   8.760  0.00  0.00    +0.000 C 
BRANCH  23  24
ATOM     24  O   UNL     1     -12.156  40.649   7.551  0.00  0.00    +0.000 OA
ATOM     25  H   UNL     1     -11.959  39.770   7.181  0.00  0.00    +0.000 HD
ENDBRANCH  23  24
ENDBRANCH   8  23
TORSDOF 3
ENDMDL
MODEL 7
REMARK VINA RESULT:      -5.4     29.660     32.693
REMARK  Name = 114778_Kahweol.pdbqt.pdb
REMARK  3 active torsions:
REMARK  status: ('A' for Active; 'I' for Inactive)
REMARK    1  A    between atoms: C_8  and  O_21
REMARK    2  A    between atoms: C_8  and  C_23
REMARK    3  A    between atoms: C_23  and  O_24
REMARK                            x       y       z     vdW  Elec       q    Type
REMARK                         _______ _______ _______ _____ _____    ______ ____
ROOT
ATOM      1  O   UNL     1      18.980  42.002  -8.832  0.00  0.00    +0.000 OA
ATOM      2  C   UNL     1      21.310  41.284  -3.063  0.00  0.00    +0.000 C 
ATOM      3  C   UNL     1      19.881  40.865  -3.625  0.00  0.00    +0.000 C 
ATOM      4  C   UNL     1      21.200  39.813  -1.178  0.00  0.00    +0.000 C 
ATOM      5  C   UNL     1      21.215  41.229  -1.579  0.00  0.00    +0.000 C 
ATOM      6  C   UNL     1      22.225  40.131  -3.211  0.00  0.00    +0.000 C 
ATOM      7  C   UNL     1      19.082  41.771  -4.567  0.00  0.00    +0.000 C 
ATOM      8  C   UNL     1      22.364  39.208  -2.067  0.00  0.00    +0.000 C 
ATOM      9  C   UNL     1      21.730  42.506  -3.699  0.00  0.00    +0.000 C 
ATOM     10  C   UNL     1      19.260  39.840  -2.803  0.00  0.00    +0.000 C 
ATOM     11  C   UNL     1      19.874  39.306  -1.503  0.00  0.00    +0.000 C 
ATOM     12  C   UNL     1      19.954  42.832  -5.437  0.00  0.00    +0.000 C 
ATOM     13  C   UNL     1      21.153  43.283  -4.839  0.00  0.00    +0.000 C 
ATOM     14  C   UNL     1      18.072  42.619  -3.727  0.00  0.00    +0.000 C 
ATOM     15  C   UNL     1      18.374  40.929  -5.571  0.00  0.00    +0.000 C 
ATOM     16  C   UNL     1      19.791  42.814  -6.873  0.00  0.00    +0.000 A 
ATOM     17  C   UNL     1      18.272  40.918  -6.765  0.00  0.00    +0.000 C 
ATOM     18  C   UNL     1      18.979  41.890  -7.496  0.00  0.00    +0.000 A 
ATOM     19  C   UNL     1      20.352  43.570  -7.923  0.00  0.00    +0.000 A 
ATOM     20  C   UNL     1      19.824  43.051  -9.097  0.00  0.00    +0.000 A 
ENDROOT
BRANCH   8  21
ATOM     21  O   UNL     1      23.618  39.420  -1.442  0.00  0.00    +0.000 OA
ATOM     22  H   UNL     1      23.516  40.228  -0.911  0.00  0.00    +0.000 HD
ENDBRANCH   8  21
BRANCH   8  23
ATOM     23  C   UNL     1      22.204  37.782  -2.382  0.00  0.00    +0.000 C 
BRANCH  23  24
ATOM     24  O   UNL     1      22.056  36.484  -2.650  0.00  0.00    +0.000 OA
ATOM     25  H   UNL     1      21.751  36.000  -1.862  0.00  0.00    +0.000 HD
ENDBRANCH  23  24
ENDBRANCH   8  23
TORSDOF 3
ENDMDL
MODEL 8
REMARK VINA RESULT:      -5.4     35.913     38.891
REMARK  Name = 114778_Kahweol.pdbqt.pdb
REMARK  3 active torsions:
REMARK  status: ('A' for Active; 'I' for Inactive)
REMARK    1  A    between atoms: C_8  and  O_21
REMARK    2  A    between atoms: C_8  and  C_23
REMARK    3  A    between atoms: C_23  and  O_24
REMARK                            x       y       z     vdW  Elec       q    Type
REMARK                         _______ _______ _______ _____ _____    ______ ____
ROOT
ATOM      1  O   UNL     1       9.869  40.536 -17.423  0.00  0.00    +0.000 OA
ATOM      2  C   UNL     1       6.231  45.634 -17.412  0.00  0.00    +0.000 C 
ATOM      3  C   UNL     1       6.807  44.818 -18.651  0.00  0.00    +0.000 C 
ATOM      4  C   UNL     1       4.500  46.691 -18.683  0.00  0.00    +0.000 C 
ATOM      5  C   UNL     1       5.752  46.937 -17.948  0.00  0.00    +0.000 C 
ATOM      6  C   UNL     1       4.895  45.093 -17.078  0.00  0.00    +0.000 C 
ATOM      7  C   UNL     1       8.243  44.283 -18.674  0.00  0.00    +0.000 C 
ATOM      8  C   UNL     1       3.716  45.741 -17.686  0.00  0.00    +0.000 C 
ATOM      9  C   UNL     1       7.198  45.622 -16.345  0.00  0.00    +0.000 C 
ATOM     10  C   UNL     1       6.038  45.062 -19.860  0.00  0.00    +0.000 C 
ATOM     11  C   UNL     1       4.876  46.060 -19.940  0.00  0.00    +0.000 C 
ATOM     12  C   UNL     1       8.928  44.034 -17.221  0.00  0.00    +0.000 C 
ATOM     13  C   UNL     1       8.483  44.875 -16.177  0.00  0.00    +0.000 C 
ATOM     14  C   UNL     1       9.158  45.307 -19.421  0.00  0.00    +0.000 C 
ATOM     15  C   UNL     1       8.259  42.955 -19.348  0.00  0.00    +0.000 C 
ATOM     16  C   UNL     1       9.465  42.720 -16.951  0.00  0.00    +0.000 A 
ATOM     17  C   UNL     1       8.691  41.867 -19.093  0.00  0.00    +0.000 C 
ATOM     18  C   UNL     1       9.345  41.690 -17.860  0.00  0.00    +0.000 A 
ATOM     19  C   UNL     1      10.124  42.150 -15.843  0.00  0.00    +0.000 A 
ATOM     20  C   UNL     1      10.363  40.823 -16.175  0.00  0.00    +0.000 A 
ENDROOT
BRANCH   8  21
ATOM     21  O   UNL     1       3.044  46.509 -16.703  0.00  0.00    +0.000 OA
ATOM     22  H   UNL     1       3.265  46.101 -15.850  0.00  0.00    +0.000 HD
ENDBRANCH   8  21
BRANCH   8  23
ATOM     23  C   UNL     1       2.764  44.834 -18.341  0.00  0.00    +0.000 C 
BRANCH  23  24
ATOM     24  O   UNL     1       1.911  44.009 -18.949  0.00  0.00    +0.000 OA
ATOM     25  H   UNL     1       1.802  44.251 -19.886  0.00  0.00    +0.000 HD
ENDBRANCH  23  24
ENDBRANCH   8  23
TORSDOF 3
ENDMDL
MODEL 9
REMARK VINA RESULT:      -5.4     42.493     44.361
REMARK  Name = 114778_Kahweol.pdbqt.pdb
REMARK  3 active torsions:
REMARK  status: ('A' for Active; 'I' for Inactive)
REMARK    1  A    between atoms: C_8  and  O_21
REMARK    2  A    between atoms: C_8  and  C_23
REMARK    3  A    between atoms: C_23  and  O_24
REMARK                            x       y       z     vdW  Elec       q    Type
REMARK                         _______ _______ _______ _____ _____    ______ ____
ROOT
ATOM      1  O   UNL     1      12.283  57.092 -11.068  0.00  0.00    +0.000 OA
ATOM      2  C   UNL     1       7.323  56.672  -7.268  0.00  0.00    +0.000 C 
ATOM      3  C   UNL     1       7.757  57.872  -8.218  0.00  0.00    +0.000 C 
ATOM      4  C   UNL     1       5.052  57.405  -7.079  0.00  0.00    +0.000 C 
ATOM      5  C   UNL     1       6.306  57.221  -6.330  0.00  0.00    +0.000 C 
ATOM      6  C   UNL     1       6.398  55.795  -8.018  0.00  0.00    +0.000 C 
ATOM      7  C   UNL     1       9.218  58.313  -8.354  0.00  0.00    +0.000 C 
ATOM      8  C   UNL     1       4.948  56.045  -7.886  0.00  0.00    +0.000 C 
ATOM      9  C   UNL     1       8.501  56.037  -6.738  0.00  0.00    +0.000 C 
ATOM     10  C   UNL     1       6.638  58.750  -8.521  0.00  0.00    +0.000 C 
ATOM     11  C   UNL     1       5.240  58.583  -7.914  0.00  0.00    +0.000 C 
ATOM     12  C   UNL     1      10.333  57.181  -8.010  0.00  0.00    +0.000 C 
ATOM     13  C   UNL     1       9.952  56.210  -7.056  0.00  0.00    +0.000 C 
ATOM     14  C   UNL     1       9.486  59.503  -7.376  0.00  0.00    +0.000 C 
ATOM     15  C   UNL     1       9.481  58.705  -9.766  0.00  0.00    +0.000 C 
ATOM     16  C   UNL     1      11.329  56.895  -9.017  0.00  0.00    +0.000 A 
ATOM     17  C   UNL     1      10.305  58.436 -10.594  0.00  0.00    +0.000 C 
ATOM     18  C   UNL     1      11.304  57.507 -10.252  0.00  0.00    +0.000 A 
ATOM     19  C   UNL     1      12.428  56.014  -9.071  0.00  0.00    +0.000 A 
ATOM     20  C   UNL     1      12.989  56.173 -10.332  0.00  0.00    +0.000 A 
ENDROOT
BRANCH   8  21
ATOM     21  O   UNL     1       4.370  55.037  -7.074  0.00  0.00    +0.000 OA
ATOM     22  H   UNL     1       5.115  54.579  -6.650  0.00  0.00    +0.000 HD
ENDBRANCH   8  21
BRANCH   8  23
ATOM     23  C   UNL     1       4.207  56.148  -9.149  0.00  0.00    +0.000 C 
BRANCH  23  24
ATOM     24  O   UNL     1       3.542  56.257 -10.300  0.00  0.00    +0.000 OA
ATOM     25  H   UNL     1       2.650  56.618 -10.154  0.00  0.00    +0.000 HD
ENDBRANCH  23  24
ENDBRANCH   8  23
TORSDOF 3
ENDMDL
