MODEL 1
REMARK VINA RESULT:      -5.4      0.000      0.000
REMARK  Name = 1174_Uracil.pdbqt.pdb
REMARK  0 active torsions:
REMARK  status: ('A' for Active; 'I' for Inactive)
REMARK                            x       y       z     vdW  Elec       q    Type
REMARK                         _______ _______ _______ _____ _____    ______ ____
ROOT
ATOM      1  O   UNL     1      -0.569  44.485   6.071  0.00  0.00    +0.000 OA
ATOM      2  O   UNL     1      -1.347  46.645  10.096  0.00  0.00    +0.000 OA
ATOM      3  N   UNL     1      -0.900  45.531   8.105  0.00  0.00    +0.000 N 
ATOM      4  N   UNL     1      -2.377  45.901   6.324  0.00  0.00    +0.000 N 
ATOM      5  C   UNL     1      -1.227  45.242   6.772  0.00  0.00    +0.000 A 
ATOM      6  C   UNL     1      -1.623  46.387   8.935  0.00  0.00    +0.000 A 
ATOM      7  C   UNL     1      -3.062  46.723   7.136  0.00  0.00    +0.000 A 
ATOM      8  C   UNL     1      -2.765  46.954   8.267  0.00  0.00    +0.000 A 
ATOM      9  H   UNL     1      -0.082  45.088   8.490  0.00  0.00    +0.000 HD
ATOM     10  H   UNL     1      -2.679  45.744   5.370  0.00  0.00    +0.000 HD
ENDROOT
TORSDOF 0
ENDMDL
MODEL 2
REMARK VINA RESULT:      -4.3     19.326     19.959
REMARK  Name = 1174_Uracil.pdbqt.pdb
REMARK  0 active torsions:
REMARK  status: ('A' for Active; 'I' for Inactive)
REMARK                            x       y       z     vdW  Elec       q    Type
REMARK                         _______ _______ _______ _____ _____    ______ ____
ROOT
ATOM      1  O   UNL     1       3.197  27.263  13.555  0.00  0.00    +0.000 OA
ATOM      2  O   UNL     1       4.455  30.517  16.604  0.00  0.00    +0.000 OA
ATOM      3  N   UNL     1       3.757  28.901  15.086  0.00  0.00    +0.000 N 
ATOM      4  N   UNL     1       5.426  27.627  14.046  0.00  0.00    +0.000 N 
ATOM      5  C   UNL     1       4.056  27.877  14.175  0.00  0.00    +0.000 A 
ATOM      6  C   UNL     1       4.703  29.623  15.810  0.00  0.00    +0.000 A 
ATOM      7  C   UNL     1       6.326  28.331  14.751  0.00  0.00    +0.000 A 
ATOM      8  C   UNL     1       6.049  29.199  15.521  0.00  0.00    +0.000 A 
ATOM      9  H   UNL     1       2.786  29.131  15.225  0.00  0.00    +0.000 HD
ATOM     10  H   UNL     1       5.723  26.900  13.406  0.00  0.00    +0.000 HD
ENDROOT
TORSDOF 0
ENDMDL
MODEL 3
REMARK VINA RESULT:      -4.2      2.333      2.733
REMARK  Name = 1174_Uracil.pdbqt.pdb
REMARK  0 active torsions:
REMARK  status: ('A' for Active; 'I' for Inactive)
REMARK                            x       y       z     vdW  Elec       q    Type
REMARK                         _______ _______ _______ _____ _____    ______ ____
ROOT
ATOM      1  O   UNL     1      -5.123  44.595   9.180  0.00  0.00    +0.000 OA
ATOM      2  O   UNL     1      -1.538  47.516   9.475  0.00  0.00    +0.000 OA
ATOM      3  N   UNL     1      -3.330  46.037   9.395  0.00  0.00    +0.000 N 
ATOM      4  N   UNL     1      -4.372  45.738   7.318  0.00  0.00    +0.000 N 
ATOM      5  C   UNL     1      -4.342  45.389   8.672  0.00  0.00    +0.000 A 
ATOM      6  C   UNL     1      -2.422  46.946   8.854  0.00  0.00    +0.000 A 
ATOM      7  C   UNL     1      -3.490  46.616   6.812  0.00  0.00    +0.000 A 
ATOM      8  C   UNL     1      -2.637  47.155   7.446  0.00  0.00    +0.000 A 
ATOM      9  H   UNL     1      -3.254  45.829  10.378  0.00  0.00    +0.000 HD
ATOM     10  H   UNL     1      -5.076  45.313   6.727  0.00  0.00    +0.000 HD
ENDROOT
TORSDOF 0
ENDMDL
MODEL 4
REMARK VINA RESULT:      -4.2     21.505     22.453
REMARK  Name = 1174_Uracil.pdbqt.pdb
REMARK  0 active torsions:
REMARK  status: ('A' for Active; 'I' for Inactive)
REMARK                            x       y       z     vdW  Elec       q    Type
REMARK                         _______ _______ _______ _____ _____    ______ ____
ROOT
ATOM      1  O   UNL     1       1.794  26.454  -1.735  0.00  0.00    +0.000 OA
ATOM      2  O   UNL     1       1.786  29.691  -5.051  0.00  0.00    +0.000 OA
ATOM      3  N   UNL     1       1.791  28.117  -3.340  0.00  0.00    +0.000 N 
ATOM      4  N   UNL     1       1.780  25.860  -3.968  0.00  0.00    +0.000 N 
ATOM      5  C   UNL     1       1.789  26.781  -2.915  0.00  0.00    +0.000 A 
ATOM      6  C   UNL     1       1.786  28.530  -4.671  0.00  0.00    +0.000 A 
ATOM      7  C   UNL     1       1.775  26.274  -5.246  0.00  0.00    +0.000 A 
ATOM      8  C   UNL     1       1.777  27.417  -5.584  0.00  0.00    +0.000 A 
ATOM      9  H   UNL     1       1.798  28.831  -2.629  0.00  0.00    +0.000 HD
ATOM     10  H   UNL     1       1.778  24.873  -3.744  0.00  0.00    +0.000 HD
ENDROOT
TORSDOF 0
ENDMDL
MODEL 5
REMARK VINA RESULT:      -4.1     15.715     16.288
REMARK  Name = 1174_Uracil.pdbqt.pdb
REMARK  0 active torsions:
REMARK  status: ('A' for Active; 'I' for Inactive)
REMARK                            x       y       z     vdW  Elec       q    Type
REMARK                         _______ _______ _______ _____ _____    ______ ____
ROOT
ATOM      1  O   UNL     1       2.705  33.607  16.141  0.00  0.00    +0.000 OA
ATOM      2  O   UNL     1      -1.916  33.342  15.918  0.00  0.00    +0.000 OA
ATOM      3  N   UNL     1       0.399  33.542  16.011  0.00  0.00    +0.000 N 
ATOM      4  N   UNL     1       1.609  31.628  16.613  0.00  0.00    +0.000 N 
ATOM      5  C   UNL     1       1.661  32.977  16.247  0.00  0.00    +0.000 A 
ATOM      6  C   UNL     1      -0.812  32.860  16.120  0.00  0.00    +0.000 A 
ATOM      7  C   UNL     1       0.434  30.985  16.714  0.00  0.00    +0.000 A 
ATOM      8  C   UNL     1      -0.628  31.486  16.509  0.00  0.00    +0.000 A 
ATOM      9  H   UNL     1       0.366  34.512  15.743  0.00  0.00    +0.000 HD
ATOM     10  H   UNL     1       2.480  31.147  16.801  0.00  0.00    +0.000 HD
ENDROOT
TORSDOF 0
ENDMDL
MODEL 6
REMARK VINA RESULT:      -3.9     19.351     19.998
REMARK  Name = 1174_Uracil.pdbqt.pdb
REMARK  0 active torsions:
REMARK  status: ('A' for Active; 'I' for Inactive)
REMARK                            x       y       z     vdW  Elec       q    Type
REMARK                         _______ _______ _______ _____ _____    ______ ____
ROOT
ATOM      1  O   UNL     1       7.193  28.765  15.282  0.00  0.00    +0.000 OA
ATOM      2  O   UNL     1       2.805  29.897  16.252  0.00  0.00    +0.000 OA
ATOM      3  N   UNL     1       5.028  29.377  15.811  0.00  0.00    +0.000 N 
ATOM      4  N   UNL     1       5.434  27.687  14.239  0.00  0.00    +0.000 N 
ATOM      5  C   UNL     1       5.987  28.620  15.123  0.00  0.00    +0.000 A 
ATOM      6  C   UNL     1       3.649  29.244  15.658  0.00  0.00    +0.000 A 
ATOM      7  C   UNL     1       4.103  27.570  14.103  0.00  0.00    +0.000 A 
ATOM      8  C   UNL     1       3.305  28.225  14.699  0.00  0.00    +0.000 A 
ATOM      9  H   UNL     1       5.361  30.068  16.463  0.00  0.00    +0.000 HD
ATOM     10  H   UNL     1       6.063  27.101  13.704  0.00  0.00    +0.000 HD
ENDROOT
TORSDOF 0
ENDMDL
MODEL 7
REMARK VINA RESULT:      -3.9     19.115     19.841
REMARK  Name = 1174_Uracil.pdbqt.pdb
REMARK  0 active torsions:
REMARK  status: ('A' for Active; 'I' for Inactive)
REMARK                            x       y       z     vdW  Elec       q    Type
REMARK                         _______ _______ _______ _____ _____    ______ ____
ROOT
ATOM      1  O   UNL     1       2.429  30.283  16.331  0.00  0.00    +0.000 OA
ATOM      2  O   UNL     1       6.576  28.534  15.231  0.00  0.00    +0.000 OA
ATOM      3  N   UNL     1       4.527  29.457  15.826  0.00  0.00    +0.000 N 
ATOM      4  N   UNL     1       2.615  28.526  14.843  0.00  0.00    +0.000 N 
ATOM      5  C   UNL     1       3.129  29.489  15.718  0.00  0.00    +0.000 A 
ATOM      6  C   UNL     1       5.358  28.569  15.145  0.00  0.00    +0.000 A 
ATOM      7  C   UNL     1       3.429  27.677  14.194  0.00  0.00    +0.000 A 
ATOM      8  C   UNL     1       4.617  27.669  14.301  0.00  0.00    +0.000 A 
ATOM      9  H   UNL     1       4.961  30.126  16.441  0.00  0.00    +0.000 HD
ATOM     10  H   UNL     1       1.612  28.484  14.710  0.00  0.00    +0.000 HD
ENDROOT
TORSDOF 0
ENDMDL
MODEL 8
REMARK VINA RESULT:      -3.9      8.767      9.747
REMARK  Name = 1174_Uracil.pdbqt.pdb
REMARK  0 active torsions:
REMARK  status: ('A' for Active; 'I' for Inactive)
REMARK                            x       y       z     vdW  Elec       q    Type
REMARK                         _______ _______ _______ _____ _____    ______ ____
ROOT
ATOM      1  O   UNL     1       5.151  43.699  16.119  0.00  0.00    +0.000 OA
ATOM      2  O   UNL     1       1.362  46.057  14.869  0.00  0.00    +0.000 OA
ATOM      3  N   UNL     1       3.302  44.924  15.467  0.00  0.00    +0.000 N 
ATOM      4  N   UNL     1       3.041  42.889  16.599  0.00  0.00    +0.000 N 
ATOM      5  C   UNL     1       3.934  43.825  16.067  0.00  0.00    +0.000 A 
ATOM      6  C   UNL     1       1.923  45.104  15.388  0.00  0.00    +0.000 A 
ATOM      7  C   UNL     1       1.713  43.077  16.514  0.00  0.00    +0.000 A 
ATOM      8  C   UNL     1       1.198  44.020  15.999  0.00  0.00    +0.000 A 
ATOM      9  H   UNL     1       3.890  45.636  15.064  0.00  0.00    +0.000 HD
ATOM     10  H   UNL     1       3.419  42.065  17.049  0.00  0.00    +0.000 HD
ENDROOT
TORSDOF 0
ENDMDL
MODEL 9
REMARK VINA RESULT:      -3.8     14.415     15.122
REMARK  Name = 1174_Uracil.pdbqt.pdb
REMARK  0 active torsions:
REMARK  status: ('A' for Active; 'I' for Inactive)
REMARK                            x       y       z     vdW  Elec       q    Type
REMARK                         _______ _______ _______ _____ _____    ______ ____
ROOT
ATOM      1  O   UNL     1      14.791  44.748  11.731  0.00  0.00    +0.000 OA
ATOM      2  O   UNL     1      10.840  46.257   9.839  0.00  0.00    +0.000 OA
ATOM      3  N   UNL     1      12.811  45.543  10.842  0.00  0.00    +0.000 N 
ATOM      4  N   UNL     1      14.076  43.945   9.685  0.00  0.00    +0.000 N 
ATOM      5  C   UNL     1      13.964  44.744  10.828  0.00  0.00    +0.000 A 
ATOM      6  C   UNL     1      11.847  45.567   9.836  0.00  0.00    +0.000 A 
ATOM      7  C   UNL     1      13.138  43.980   8.724  0.00  0.00    +0.000 A 
ATOM      8  C   UNL     1      12.165  44.668   8.757  0.00  0.00    +0.000 A 
ATOM      9  H   UNL     1      12.670  46.142  11.639  0.00  0.00    +0.000 HD
ATOM     10  H   UNL     1      14.883  43.339   9.600  0.00  0.00    +0.000 HD
ENDROOT
TORSDOF 0
ENDMDL
