MODEL 1
REMARK VINA RESULT:      -6.2      0.000      0.000
REMARK  Name = 122178712_SalternamideA.pdbqt.pdb
REMARK  8 active torsions:
REMARK  status: ('A' for Active; 'I' for Inactive)
REMARK    1  A    between atoms: C_3  and  O_24
REMARK    2  A    between atoms: C_3  and  C_26
REMARK    3  A    between atoms: C_6  and  N_10
REMARK    4  A    between atoms: C_11  and  C_14
REMARK    5  A    between atoms: C_13  and  C_15
REMARK    6  A    between atoms: C_27  and  C_28
REMARK    7  A    between atoms: C_29  and  C_31
REMARK    8  A    between atoms: C_31  and  O_32
REMARK                            x       y       z     vdW  Elec       q    Type
REMARK                         _______ _______ _______ _____ _____    ______ ____
ROOT
ATOM      1 CL   UNL     1       4.260  24.648  30.320  0.00  0.00    +0.000 Cl
ATOM      2  O   UNL     1       2.292  26.517  31.926  0.00  0.00    +0.000 OA
ATOM      3  C   UNL     1       0.488  23.997  28.933  0.00  0.00    +0.000 C 
ATOM      4  C   UNL     1      -0.103  24.941  29.896  0.00  0.00    +0.000 C 
ATOM      5  C   UNL     1       1.902  24.170  29.303  0.00  0.00    +0.000 C 
ATOM      6  C   UNL     1       0.289  25.760  30.830  0.00  0.00    +0.000 C 
ATOM      7  C   UNL     1       2.591  24.882  30.147  0.00  0.00    +0.000 C 
ATOM      8  C   UNL     1       1.804  25.800  31.061  0.00  0.00    +0.000 C 
ENDROOT
BRANCH   6  10
ATOM      9  O   UNL     1      -1.724  27.705  29.986  0.00  0.00    +0.000 OA
ATOM     10  N   UNL     1      -0.517  26.556  31.601  0.00  0.00    +0.000 N 
ATOM     11  C   UNL     1      -1.451  27.455  31.151  0.00  0.00    +0.000 C 
ATOM     12  H   UNL     1      -0.391  26.454  32.607  0.00  0.00    +0.000 HD
BRANCH  11  14
ATOM     13  C   UNL     1      -2.768  28.740  33.051  0.00  0.00    +0.000 C 
ATOM     14  C   UNL     1      -2.163  28.158  32.192  0.00  0.00    +0.000 C 
BRANCH  13  15
ATOM     15  C   UNL     1      -3.487  29.421  34.064  0.00  0.00    +0.000 C 
ATOM     16  C   UNL     1      -3.893  28.647  35.286  0.00  0.00    +0.000 C 
ATOM     17  C   UNL     1      -3.899  30.767  33.991  0.00  0.00    +0.000 C 
ATOM     18  C   UNL     1      -4.314  32.112  33.933  0.00  0.00    +0.000 C 
ATOM     19  C   UNL     1      -3.622  33.010  32.950  0.00  0.00    +0.000 C 
ATOM     20  C   UNL     1      -5.345  32.664  34.712  0.00  0.00    +0.000 C 
ATOM     21  C   UNL     1      -6.295  33.171  35.422  0.00  0.00    +0.000 C 
ATOM     22  C   UNL     1      -5.983  33.732  36.774  0.00  0.00    +0.000 C 
ATOM     23  C   UNL     1      -7.716  32.889  35.045  0.00  0.00    +0.000 C 
ENDBRANCH  13  15
ENDBRANCH  11  14
ENDBRANCH   6  10
BRANCH   3  24
ATOM     24  O   UNL     1       0.288  24.481  27.622  0.00  0.00    +0.000 OA
ATOM     25  H   UNL     1       0.627  23.790  27.027  0.00  0.00    +0.000 HD
ENDBRANCH   3  24
BRANCH   3  26
ATOM     26  C   UNL     1      -0.000  22.629  29.053  0.00  0.00    +0.000 C 
ATOM     27  C   UNL     1      -0.518  21.193  29.177  0.00  0.00    +0.000 C 
BRANCH  27  28
ATOM     28  C   UNL     1      -1.040  19.759  29.299  0.00  0.00    +0.000 C 
ATOM     29  C   UNL     1      -1.565  18.325  29.420  0.00  0.00    +0.000 C 
BRANCH  29  31
ATOM     30  O   UNL     1      -2.559  16.535  30.546  0.00  0.00    +0.000 OA
ATOM     31  C   UNL     1      -2.055  16.985  29.532  0.00  0.00    +0.000 C 
BRANCH  31  32
ATOM     32  O   UNL     1      -1.910  16.254  28.412  0.00  0.00    +0.000 OA
ATOM     33  H   UNL     1      -1.219  15.603  28.649  0.00  0.00    +0.000 HD
ENDBRANCH  31  32
ENDBRANCH  29  31
ENDBRANCH  27  28
ENDBRANCH   3  26
TORSDOF 8
ENDMDL
MODEL 2
REMARK VINA RESULT:      -6.2     18.170     22.796
REMARK  Name = 122178712_SalternamideA.pdbqt.pdb
REMARK  8 active torsions:
REMARK  status: ('A' for Active; 'I' for Inactive)
REMARK    1  A    between atoms: C_3  and  O_24
REMARK    2  A    between atoms: C_3  and  C_26
REMARK    3  A    between atoms: C_6  and  N_10
REMARK    4  A    between atoms: C_11  and  C_14
REMARK    5  A    between atoms: C_13  and  C_15
REMARK    6  A    between atoms: C_27  and  C_28
REMARK    7  A    between atoms: C_29  and  C_31
REMARK    8  A    between atoms: C_31  and  O_32
REMARK                            x       y       z     vdW  Elec       q    Type
REMARK                         _______ _______ _______ _____ _____    ______ ____
ROOT
ATOM      1 CL   UNL     1      11.209  31.833  14.102  0.00  0.00    +0.000 Cl
ATOM      2  O   UNL     1      12.063  28.845  13.570  0.00  0.00    +0.000 OA
ATOM      3  C   UNL     1       8.872  29.424  16.406  0.00  0.00    +0.000 C 
ATOM      4  C   UNL     1       9.492  28.199  15.874  0.00  0.00    +0.000 C 
ATOM      5  C   UNL     1       9.678  30.410  15.668  0.00  0.00    +0.000 C 
ATOM      6  C   UNL     1      10.440  27.862  15.048  0.00  0.00    +0.000 C 
ATOM      7  C   UNL     1      10.660  30.398  14.814  0.00  0.00    +0.000 C 
ATOM      8  C   UNL     1      11.166  29.036  14.381  0.00  0.00    +0.000 C 
ENDROOT
BRANCH   6  10
ATOM      9  O   UNL     1      12.723  26.326  16.035  0.00  0.00    +0.000 OA
ATOM     10  N   UNL     1      10.822  26.584  14.730  0.00  0.00    +0.000 N 
ATOM     11  C   UNL     1      11.908  25.908  15.226  0.00  0.00    +0.000 C 
ATOM     12  H   UNL     1      10.226  26.110  14.053  0.00  0.00    +0.000 HD
BRANCH  11  14
ATOM     13  C   UNL     1      12.215  23.453  14.289  0.00  0.00    +0.000 C 
ATOM     14  C   UNL     1      12.068  24.566  14.717  0.00  0.00    +0.000 C 
BRANCH  13  15
ATOM     15  C   UNL     1      12.395  22.141  13.787  0.00  0.00    +0.000 C 
ATOM     16  C   UNL     1      13.555  21.888  12.867  0.00  0.00    +0.000 C 
ATOM     17  C   UNL     1      11.534  21.056  14.046  0.00  0.00    +0.000 C 
ATOM     18  C   UNL     1      10.682  19.961  14.299  0.00  0.00    +0.000 C 
ATOM     19  C   UNL     1       9.766  20.056  15.483  0.00  0.00    +0.000 C 
ATOM     20  C   UNL     1      10.615  18.803  13.508  0.00  0.00    +0.000 C 
ATOM     21  C   UNL     1      10.548  17.741  12.779  0.00  0.00    +0.000 C 
ATOM     22  C   UNL     1      11.465  16.593  13.065  0.00  0.00    +0.000 C 
ATOM     23  C   UNL     1       9.814  17.797  11.475  0.00  0.00    +0.000 C 
ENDBRANCH  13  15
ENDBRANCH  11  14
ENDBRANCH   6  10
BRANCH   3  24
ATOM     24  O   UNL     1       9.157  29.531  17.786  0.00  0.00    +0.000 OA
ATOM     25  H   UNL     1       8.320  29.782  18.212  0.00  0.00    +0.000 HD
ENDBRANCH   3  24
BRANCH   3  26
ATOM     26  C   UNL     1       7.438  29.526  16.171  0.00  0.00    +0.000 C 
ATOM     27  C   UNL     1       5.931  29.635  15.918  0.00  0.00    +0.000 C 
BRANCH  27  28
ATOM     28  C   UNL     1       4.425  29.746  15.662  0.00  0.00    +0.000 C 
ATOM     29  C   UNL     1       2.919  29.854  15.406  0.00  0.00    +0.000 C 
BRANCH  29  31
ATOM     30  O   UNL     1       0.965  30.976  14.788  0.00  0.00    +0.000 OA
ATOM     31  C   UNL     1       1.512  29.956  15.167  0.00  0.00    +0.000 C 
BRANCH  31  32
ATOM     32  O   UNL     1       0.834  28.817  15.400  0.00  0.00    +0.000 OA
ATOM     33  H   UNL     1       1.246  28.467  16.217  0.00  0.00    +0.000 HD
ENDBRANCH  31  32
ENDBRANCH  29  31
ENDBRANCH  27  28
ENDBRANCH   3  26
TORSDOF 8
ENDMDL
MODEL 3
REMARK VINA RESULT:      -6.2     50.104     52.902
REMARK  Name = 122178712_SalternamideA.pdbqt.pdb
REMARK  8 active torsions:
REMARK  status: ('A' for Active; 'I' for Inactive)
REMARK    1  A    between atoms: C_3  and  O_24
REMARK    2  A    between atoms: C_3  and  C_26
REMARK    3  A    between atoms: C_6  and  N_10
REMARK    4  A    between atoms: C_11  and  C_14
REMARK    5  A    between atoms: C_13  and  C_15
REMARK    6  A    between atoms: C_27  and  C_28
REMARK    7  A    between atoms: C_29  and  C_31
REMARK    8  A    between atoms: C_31  and  O_32
REMARK                            x       y       z     vdW  Elec       q    Type
REMARK                         _______ _______ _______ _____ _____    ______ ____
ROOT
ATOM      1 CL   UNL     1       6.607  58.525  -6.168  0.00  0.00    +0.000 Cl
ATOM      2  O   UNL     1       7.317  57.259  -8.967  0.00  0.00    +0.000 OA
ATOM      3  C   UNL     1       3.650  55.906  -7.154  0.00  0.00    +0.000 C 
ATOM      4  C   UNL     1       4.271  55.588  -8.451  0.00  0.00    +0.000 C 
ATOM      5  C   UNL     1       4.671  56.841  -6.652  0.00  0.00    +0.000 C 
ATOM      6  C   UNL     1       5.344  55.892  -9.123  0.00  0.00    +0.000 C 
ATOM      7  C   UNL     1       5.808  57.326  -7.058  0.00  0.00    +0.000 C 
ATOM      8  C   UNL     1       6.286  56.881  -8.426  0.00  0.00    +0.000 C 
ENDROOT
BRANCH   6  10
ATOM      9  O   UNL     1       3.783  55.938 -11.594  0.00  0.00    +0.000 OA
ATOM     10  N   UNL     1       5.683  55.423 -10.365  0.00  0.00    +0.000 N 
ATOM     11  C   UNL     1       4.908  55.471 -11.497  0.00  0.00    +0.000 C 
ATOM     12  H   UNL     1       6.606  54.998 -10.430  0.00  0.00    +0.000 HD
BRANCH  11  14
ATOM     13  C   UNL     1       6.032  54.417 -13.647  0.00  0.00    +0.000 C 
ATOM     14  C   UNL     1       5.522  54.903 -12.674  0.00  0.00    +0.000 C 
BRANCH  13  15
ATOM     15  C   UNL     1       6.629  53.838 -14.794  0.00  0.00    +0.000 C 
ATOM     16  C   UNL     1       6.191  54.329 -16.145  0.00  0.00    +0.000 C 
ATOM     17  C   UNL     1       7.574  52.793 -14.767  0.00  0.00    +0.000 C 
ATOM     18  C   UNL     1       8.522  51.750 -14.755  0.00  0.00    +0.000 C 
ATOM     19  C   UNL     1       9.262  51.501 -13.474  0.00  0.00    +0.000 C 
ATOM     20  C   UNL     1       8.804  50.915 -15.848  0.00  0.00    +0.000 C 
ATOM     21  C   UNL     1       9.059  50.142 -16.849  0.00  0.00    +0.000 C 
ATOM     22  C   UNL     1      10.098  50.550 -17.846  0.00  0.00    +0.000 C 
ATOM     23  C   UNL     1       8.100  49.043 -17.185  0.00  0.00    +0.000 C 
ENDBRANCH  13  15
ENDBRANCH  11  14
ENDBRANCH   6  10
BRANCH   3  24
ATOM     24  O   UNL     1       3.642  54.749  -6.344  0.00  0.00    +0.000 OA
ATOM     25  H   UNL     1       4.177  54.089  -6.816  0.00  0.00    +0.000 HD
ENDBRANCH   3  24
BRANCH   3  26
ATOM     26  C   UNL     1       2.312  56.474  -7.249  0.00  0.00    +0.000 C 
ATOM     27  C   UNL     1       0.902  57.066  -7.347  0.00  0.00    +0.000 C 
BRANCH  27  28
ATOM     28  C   UNL     1      -0.508  57.654  -7.443  0.00  0.00    +0.000 C 
ATOM     29  C   UNL     1      -1.920  58.240  -7.536  0.00  0.00    +0.000 C 
BRANCH  29  31
ATOM     30  O   UNL     1      -3.982  58.911  -6.665  0.00  0.00    +0.000 OA
ATOM     31  C   UNL     1      -3.239  58.790  -7.623  0.00  0.00    +0.000 C 
BRANCH  31  32
ATOM     32  O   UNL     1      -3.595  59.164  -8.865  0.00  0.00    +0.000 OA
ATOM     33  H   UNL     1      -4.428  59.659  -8.727  0.00  0.00    +0.000 HD
ENDBRANCH  31  32
ENDBRANCH  29  31
ENDBRANCH  27  28
ENDBRANCH   3  26
TORSDOF 8
ENDMDL
MODEL 4
REMARK VINA RESULT:      -5.8     36.471     40.851
REMARK  Name = 122178712_SalternamideA.pdbqt.pdb
REMARK  8 active torsions:
REMARK  status: ('A' for Active; 'I' for Inactive)
REMARK    1  A    between atoms: C_3  and  O_24
REMARK    2  A    between atoms: C_3  and  C_26
REMARK    3  A    between atoms: C_6  and  N_10
REMARK    4  A    between atoms: C_11  and  C_14
REMARK    5  A    between atoms: C_13  and  C_15
REMARK    6  A    between atoms: C_27  and  C_28
REMARK    7  A    between atoms: C_29  and  C_31
REMARK    8  A    between atoms: C_31  and  O_32
REMARK                            x       y       z     vdW  Elec       q    Type
REMARK                         _______ _______ _______ _____ _____    ______ ____
ROOT
ATOM      1 CL   UNL     1       4.536  63.974  20.342  0.00  0.00    +0.000 Cl
ATOM      2  O   UNL     1       2.359  64.012  18.062  0.00  0.00    +0.000 OA
ATOM      3  C   UNL     1       6.360  62.984  16.840  0.00  0.00    +0.000 C 
ATOM      4  C   UNL     1       5.098  63.051  16.085  0.00  0.00    +0.000 C 
ATOM      5  C   UNL     1       5.840  63.376  18.161  0.00  0.00    +0.000 C 
ATOM      6  C   UNL     1       3.847  63.345  16.294  0.00  0.00    +0.000 C 
ATOM      7  C   UNL     1       4.697  63.724  18.675  0.00  0.00    +0.000 C 
ATOM      8  C   UNL     1       3.506  63.734  17.737  0.00  0.00    +0.000 C 
ENDROOT
BRANCH   6  10
ATOM      9  O   UNL     1       1.926  61.221  15.707  0.00  0.00    +0.000 OA
ATOM     10  N   UNL     1       2.843  63.325  15.362  0.00  0.00    +0.000 N 
ATOM     11  C   UNL     1       1.964  62.297  15.127  0.00  0.00    +0.000 C 
ATOM     12  H   UNL     1       2.760  64.168  14.796  0.00  0.00    +0.000 HD
BRANCH  11  14
ATOM     13  C   UNL     1       0.203  62.751  13.207  0.00  0.00    +0.000 C 
ATOM     14  C   UNL     1       1.001  62.551  14.082  0.00  0.00    +0.000 C 
BRANCH  13  15
ATOM     15  C   UNL     1      -0.740  62.978  12.175  0.00  0.00    +0.000 C 
ATOM     16  C   UNL     1      -2.198  62.804  12.496  0.00  0.00    +0.000 C 
ATOM     17  C   UNL     1      -0.412  63.308  10.845  0.00  0.00    +0.000 C 
ATOM     18  C   UNL     1      -0.098  63.641   9.512  0.00  0.00    +0.000 C 
ATOM     19  C   UNL     1       1.270  64.194   9.239  0.00  0.00    +0.000 C 
ATOM     20  C   UNL     1      -0.966  63.470   8.420  0.00  0.00    +0.000 C 
ATOM     21  C   UNL     1      -1.759  63.307   7.417  0.00  0.00    +0.000 C 
ATOM     22  C   UNL     1      -2.718  64.397   7.053  0.00  0.00    +0.000 C 
ATOM     23  C   UNL     1      -1.950  61.933   6.853  0.00  0.00    +0.000 C 
ENDBRANCH  13  15
ENDBRANCH  11  14
ENDBRANCH   6  10
BRANCH   3  24
ATOM     24  O   UNL     1       7.240  63.984  16.371  0.00  0.00    +0.000 OA
ATOM     25  H   UNL     1       8.042  63.518  16.079  0.00  0.00    +0.000 HD
ENDBRANCH   3  24
BRANCH   3  26
ATOM     26  C   UNL     1       7.009  61.679  16.815  0.00  0.00    +0.000 C 
ATOM     27  C   UNL     1       7.694  60.310  16.792  0.00  0.00    +0.000 C 
BRANCH  27  28
ATOM     28  C   UNL     1       8.382  58.941  16.773  0.00  0.00    +0.000 C 
ATOM     29  C   UNL     1       9.070  57.573  16.751  0.00  0.00    +0.000 C 
BRANCH  29  31
ATOM     30  O   UNL     1       9.529  55.435  17.575  0.00  0.00    +0.000 OA
ATOM     31  C   UNL     1       9.713  56.295  16.731  0.00  0.00    +0.000 C 
BRANCH  31  32
ATOM     32  O   UNL     1      10.548  56.120  15.691  0.00  0.00    +0.000 OA
ATOM     33  H   UNL     1      10.000  56.352  14.913  0.00  0.00    +0.000 HD
ENDBRANCH  31  32
ENDBRANCH  29  31
ENDBRANCH  27  28
ENDBRANCH   3  26
TORSDOF 8
ENDMDL
MODEL 5
REMARK VINA RESULT:      -5.6     34.155     38.584
REMARK  Name = 122178712_SalternamideA.pdbqt.pdb
REMARK  8 active torsions:
REMARK  status: ('A' for Active; 'I' for Inactive)
REMARK    1  A    between atoms: C_3  and  O_24
REMARK    2  A    between atoms: C_3  and  C_26
REMARK    3  A    between atoms: C_6  and  N_10
REMARK    4  A    between atoms: C_11  and  C_14
REMARK    5  A    between atoms: C_13  and  C_15
REMARK    6  A    between atoms: C_27  and  C_28
REMARK    7  A    between atoms: C_29  and  C_31
REMARK    8  A    between atoms: C_31  and  O_32
REMARK                            x       y       z     vdW  Elec       q    Type
REMARK                         _______ _______ _______ _____ _____    ______ ____
ROOT
ATOM      1 CL   UNL     1       1.901  62.285  20.867  0.00  0.00    +0.000 Cl
ATOM      2  O   UNL     1       1.098  63.262  17.979  0.00  0.00    +0.000 OA
ATOM      3  C   UNL     1       2.719  59.280  18.246  0.00  0.00    +0.000 C 
ATOM      4  C   UNL     1       2.194  60.043  17.102  0.00  0.00    +0.000 C 
ATOM      5  C   UNL     1       2.520  60.297  19.291  0.00  0.00    +0.000 C 
ATOM      6  C   UNL     1       1.694  61.220  16.857  0.00  0.00    +0.000 C 
ATOM      7  C   UNL     1       2.073  61.516  19.368  0.00  0.00    +0.000 C 
ATOM      8  C   UNL     1       1.572  62.138  18.079  0.00  0.00    +0.000 C 
ENDROOT
BRANCH   6  10
ATOM      9  O   UNL     1       3.230  62.593  14.783  0.00  0.00    +0.000 OA
ATOM     10  N   UNL     1       1.273  61.685  15.639  0.00  0.00    +0.000 N 
ATOM     11  C   UNL     1       2.041  62.325  14.698  0.00  0.00    +0.000 C 
ATOM     12  H   UNL     1       0.288  61.530  15.433  0.00  0.00    +0.000 HD
BRANCH  11  14
ATOM     13  C   UNL     1       0.735  63.010  12.502  0.00  0.00    +0.000 C 
ATOM     14  C   UNL     1       1.334  62.703  13.497  0.00  0.00    +0.000 C 
BRANCH  13  15
ATOM     15  C   UNL     1       0.021  63.373  11.333  0.00  0.00    +0.000 C 
ATOM     16  C   UNL     1       0.511  64.554  10.543  0.00  0.00    +0.000 C 
ATOM     17  C   UNL     1      -1.152  62.739  10.878  0.00  0.00    +0.000 C 
ATOM     18  C   UNL     1      -2.324  62.112  10.409  0.00  0.00    +0.000 C 
ATOM     19  C   UNL     1      -2.623  60.733  10.919  0.00  0.00    +0.000 C 
ATOM     20  C   UNL     1      -3.241  62.697   9.520  0.00  0.00    +0.000 C 
ATOM     21  C   UNL     1      -4.087  63.234   8.709  0.00  0.00    +0.000 C 
ATOM     22  C   UNL     1      -3.886  63.087   7.233  0.00  0.00    +0.000 C 
ATOM     23  C   UNL     1      -5.044  64.262   9.228  0.00  0.00    +0.000 C 
ENDBRANCH  13  15
ENDBRANCH  11  14
ENDBRANCH   6  10
BRANCH   3  24
ATOM     24  O   UNL     1       4.103  59.061  18.067  0.00  0.00    +0.000 OA
ATOM     25  H   UNL     1       4.179  58.387  17.370  0.00  0.00    +0.000 HD
ENDBRANCH   3  24
BRANCH   3  26
ATOM     26  C   UNL     1       2.031  58.020  18.497  0.00  0.00    +0.000 C 
ATOM     27  C   UNL     1       1.311  56.694  18.765  0.00  0.00    +0.000 C 
BRANCH  27  28
ATOM     28  C   UNL     1       0.595  55.368  19.036  0.00  0.00    +0.000 C 
ATOM     29  C   UNL     1      -0.122  54.043  19.310  0.00  0.00    +0.000 C 
BRANCH  29  31
ATOM     30  O   UNL     1      -0.212  51.755  19.778  0.00  0.00    +0.000 OA
ATOM     31  C   UNL     1      -0.794  52.805  19.565  0.00  0.00    +0.000 C 
BRANCH  31  32
ATOM     32  O   UNL     1      -2.135  52.897  19.550  0.00  0.00    +0.000 OA
ATOM     33  H   UNL     1      -2.414  52.125  19.017  0.00  0.00    +0.000 HD
ENDBRANCH  31  32
ENDBRANCH  29  31
ENDBRANCH  27  28
ENDBRANCH   3  26
TORSDOF 8
ENDMDL
MODEL 6
REMARK VINA RESULT:      -5.6     19.247     24.275
REMARK  Name = 122178712_SalternamideA.pdbqt.pdb
REMARK  8 active torsions:
REMARK  status: ('A' for Active; 'I' for Inactive)
REMARK    1  A    between atoms: C_3  and  O_24
REMARK    2  A    between atoms: C_3  and  C_26
REMARK    3  A    between atoms: C_6  and  N_10
REMARK    4  A    between atoms: C_11  and  C_14
REMARK    5  A    between atoms: C_13  and  C_15
REMARK    6  A    between atoms: C_27  and  C_28
REMARK    7  A    between atoms: C_29  and  C_31
REMARK    8  A    between atoms: C_31  and  O_32
REMARK                            x       y       z     vdW  Elec       q    Type
REMARK                         _______ _______ _______ _____ _____    ______ ____
ROOT
ATOM      1 CL   UNL     1      12.620  30.107  12.987  0.00  0.00    +0.000 Cl
ATOM      2  O   UNL     1      13.616  27.117  12.900  0.00  0.00    +0.000 OA
ATOM      3  C   UNL     1      10.338  27.942  15.571  0.00  0.00    +0.000 C 
ATOM      4  C   UNL     1      11.023  26.684  15.229  0.00  0.00    +0.000 C 
ATOM      5  C   UNL     1      11.117  28.850  14.714  0.00  0.00    +0.000 C 
ATOM      6  C   UNL     1      12.004  26.278  14.476  0.00  0.00    +0.000 C 
ATOM      7  C   UNL     1      12.118  28.763  13.887  0.00  0.00    +0.000 C 
ATOM      8  C   UNL     1      12.693  27.379  13.661  0.00  0.00    +0.000 C 
ENDROOT
BRANCH   6  10
ATOM      9  O   UNL     1      13.599  24.692  16.343  0.00  0.00    +0.000 OA
ATOM     10  N   UNL     1      12.448  24.988  14.349  0.00  0.00    +0.000 N 
ATOM     11  C   UNL     1      13.197  24.287  15.262  0.00  0.00    +0.000 C 
ATOM     12  H   UNL     1      12.186  24.523  13.482  0.00  0.00    +0.000 HD
BRANCH  11  14
ATOM     13  C   UNL     1      13.805  21.817  14.537  0.00  0.00    +0.000 C 
ATOM     14  C   UNL     1      13.522  22.937  14.867  0.00  0.00    +0.000 C 
BRANCH  13  15
ATOM     15  C   UNL     1      14.146  20.497  14.151  0.00  0.00    +0.000 C 
ATOM     16  C   UNL     1      15.465  19.944  14.611  0.00  0.00    +0.000 C 
ATOM     17  C   UNL     1      13.361  19.675  13.319  0.00  0.00    +0.000 C 
ATOM     18  C   UNL     1      12.584  18.840  12.490  0.00  0.00    +0.000 C 
ATOM     19  C   UNL     1      11.131  19.180  12.331  0.00  0.00    +0.000 C 
ATOM     20  C   UNL     1      13.078  17.730  11.786  0.00  0.00    +0.000 C 
ATOM     21  C   UNL     1      13.532  16.715  11.134  0.00  0.00    +0.000 C 
ATOM     22  C   UNL     1      13.566  15.372  11.795  0.00  0.00    +0.000 C 
ATOM     23  C   UNL     1      14.320  16.945   9.882  0.00  0.00    +0.000 C 
ENDBRANCH  13  15
ENDBRANCH  11  14
ENDBRANCH   6  10
BRANCH   3  24
ATOM     24  O   UNL     1      10.586  28.256  16.926  0.00  0.00    +0.000 OA
ATOM     25  H   UNL     1      11.553  28.293  17.019  0.00  0.00    +0.000 HD
ENDBRANCH   3  24
BRANCH   3  26
ATOM     26  C   UNL     1       8.906  27.942  15.300  0.00  0.00    +0.000 C 
ATOM     27  C   UNL     1       7.402  27.947  15.012  0.00  0.00    +0.000 C 
BRANCH  27  28
ATOM     28  C   UNL     1       5.899  27.955  14.721  0.00  0.00    +0.000 C 
ATOM     29  C   UNL     1       4.394  27.964  14.433  0.00  0.00    +0.000 C 
BRANCH  29  31
ATOM     30  O   UNL     1       2.168  28.512  14.887  0.00  0.00    +0.000 OA
ATOM     31  C   UNL     1       2.989  27.974  14.164  0.00  0.00    +0.000 C 
BRANCH  31  32
ATOM     32  O   UNL     1       2.644  27.331  13.033  0.00  0.00    +0.000 OA
ATOM     33  H   UNL     1       2.129  26.562  13.353  0.00  0.00    +0.000 HD
ENDBRANCH  31  32
ENDBRANCH  29  31
ENDBRANCH  27  28
ENDBRANCH   3  26
TORSDOF 8
ENDMDL
MODEL 7
REMARK VINA RESULT:      -5.6     48.014     50.845
REMARK  Name = 122178712_SalternamideA.pdbqt.pdb
REMARK  8 active torsions:
REMARK  status: ('A' for Active; 'I' for Inactive)
REMARK    1  A    between atoms: C_3  and  O_24
REMARK    2  A    between atoms: C_3  and  C_26
REMARK    3  A    between atoms: C_6  and  N_10
REMARK    4  A    between atoms: C_11  and  C_14
REMARK    5  A    between atoms: C_13  and  C_15
REMARK    6  A    between atoms: C_27  and  C_28
REMARK    7  A    between atoms: C_29  and  C_31
REMARK    8  A    between atoms: C_31  and  O_32
REMARK                            x       y       z     vdW  Elec       q    Type
REMARK                         _______ _______ _______ _____ _____    ______ ____
ROOT
ATOM      1 CL   UNL     1      -1.994  63.435 -10.007  0.00  0.00    +0.000 Cl
ATOM      2  O   UNL     1      -4.354  62.892  -7.988  0.00  0.00    +0.000 OA
ATOM      3  C   UNL     1      -2.370  59.406  -9.560  0.00  0.00    +0.000 C 
ATOM      4  C   UNL     1      -3.455  59.548  -8.574  0.00  0.00    +0.000 C 
ATOM      5  C   UNL     1      -2.158  60.833  -9.852  0.00  0.00    +0.000 C 
ATOM      6  C   UNL     1      -4.152  60.495  -8.017  0.00  0.00    +0.000 C 
ATOM      7  C   UNL     1      -2.670  61.972  -9.485  0.00  0.00    +0.000 C 
ATOM      8  C   UNL     1      -3.782  61.916  -8.457  0.00  0.00    +0.000 C 
ENDROOT
BRANCH   6  10
ATOM      9  O   UNL     1      -7.008  60.049  -8.453  0.00  0.00    +0.000 OA
ATOM     10  N   UNL     1      -5.150  60.331  -7.091  0.00  0.00    +0.000 N 
ATOM     11  C   UNL     1      -6.481  60.122  -7.352  0.00  0.00    +0.000 C 
ATOM     12  H   UNL     1      -4.850  60.373  -6.119  0.00  0.00    +0.000 HD
BRANCH  11  14
ATOM     13  C   UNL     1      -7.999  59.844  -5.203  0.00  0.00    +0.000 C 
ATOM     14  C   UNL     1      -7.311  59.978  -6.180  0.00  0.00    +0.000 C 
BRANCH  13  15
ATOM     15  C   UNL     1      -8.804  59.681  -4.049  0.00  0.00    +0.000 C 
ATOM     16  C   UNL     1      -8.458  60.483  -2.826  0.00  0.00    +0.000 C 
ATOM     17  C   UNL     1      -9.881  58.780  -3.942  0.00  0.00    +0.000 C 
ATOM     18  C   UNL     1     -10.964  57.885  -3.821  0.00  0.00    +0.000 C 
ATOM     19  C   UNL     1     -11.578  57.366  -5.088  0.00  0.00    +0.000 C 
ATOM     20  C   UNL     1     -11.490  57.429  -2.602  0.00  0.00    +0.000 C 
ATOM     21  C   UNL     1     -11.970  57.003  -1.483  0.00  0.00    +0.000 C 
ATOM     22  C   UNL     1     -13.048  57.787  -0.800  0.00  0.00    +0.000 C 
ATOM     23  C   UNL     1     -11.228  55.947  -0.725  0.00  0.00    +0.000 C 
ENDBRANCH  13  15
ENDBRANCH  11  14
ENDBRANCH   6  10
BRANCH   3  24
ATOM     24  O   UNL     1      -2.868  58.764 -10.715  0.00  0.00    +0.000 OA
ATOM     25  H   UNL     1      -3.815  58.983 -10.755  0.00  0.00    +0.000 HD
ENDBRANCH   3  24
BRANCH   3  26
ATOM     26  C   UNL     1      -1.188  58.714  -9.059  0.00  0.00    +0.000 C 
ATOM     27  C   UNL     1       0.056  57.993  -8.534  0.00  0.00    +0.000 C 
BRANCH  27  28
ATOM     28  C   UNL     1       1.303  57.275  -8.009  0.00  0.00    +0.000 C 
ATOM     29  C   UNL     1       2.548  56.557  -7.480  0.00  0.00    +0.000 C 
BRANCH  29  31
ATOM     30  O   UNL     1       4.768  56.448  -6.758  0.00  0.00    +0.000 OA
ATOM     31  C   UNL     1       3.711  55.885  -6.987  0.00  0.00    +0.000 C 
BRANCH  31  32
ATOM     32  O   UNL     1       3.540  54.565  -6.795  0.00  0.00    +0.000 OA
ATOM     33  H   UNL     1       3.279  54.500  -5.853  0.00  0.00    +0.000 HD
ENDBRANCH  31  32
ENDBRANCH  29  31
ENDBRANCH  27  28
ENDBRANCH   3  26
TORSDOF 8
ENDMDL
MODEL 8
REMARK VINA RESULT:      -5.4     36.269     39.001
REMARK  Name = 122178712_SalternamideA.pdbqt.pdb
REMARK  8 active torsions:
REMARK  status: ('A' for Active; 'I' for Inactive)
REMARK    1  A    between atoms: C_3  and  O_24
REMARK    2  A    between atoms: C_3  and  C_26
REMARK    3  A    between atoms: C_6  and  N_10
REMARK    4  A    between atoms: C_11  and  C_14
REMARK    5  A    between atoms: C_13  and  C_15
REMARK    6  A    between atoms: C_27  and  C_28
REMARK    7  A    between atoms: C_29  and  C_31
REMARK    8  A    between atoms: C_31  and  O_32
REMARK                            x       y       z     vdW  Elec       q    Type
REMARK                         _______ _______ _______ _____ _____    ______ ____
ROOT
ATOM      1 CL   UNL     1       5.114  64.078  20.253  0.00  0.00    +0.000 Cl
ATOM      2  O   UNL     1       2.375  63.149  18.997  0.00  0.00    +0.000 OA
ATOM      3  C   UNL     1       5.905  62.290  16.682  0.00  0.00    +0.000 C 
ATOM      4  C   UNL     1       4.487  61.969  16.451  0.00  0.00    +0.000 C 
ATOM      5  C   UNL     1       5.758  63.002  17.962  0.00  0.00    +0.000 C 
ATOM      6  C   UNL     1       3.335  62.158  17.027  0.00  0.00    +0.000 C 
ATOM      7  C   UNL     1       4.789  63.349  18.759  0.00  0.00    +0.000 C 
ATOM      8  C   UNL     1       3.392  62.927  18.352  0.00  0.00    +0.000 C 
ENDROOT
BRANCH   6  10
ATOM      9  O   UNL     1       1.394  63.587  15.371  0.00  0.00    +0.000 OA
ATOM     10  N   UNL     1       2.117  61.731  16.564  0.00  0.00    +0.000 N 
ATOM     11  C   UNL     1       1.242  62.447  15.785  0.00  0.00    +0.000 C 
ATOM     12  H   UNL     1       1.856  60.787  16.840  0.00  0.00    +0.000 HD
BRANCH  11  14
ATOM     13  C   UNL     1      -0.983  61.169  15.140  0.00  0.00    +0.000 C 
ATOM     14  C   UNL     1       0.029  61.744  15.439  0.00  0.00    +0.000 C 
BRANCH  13  15
ATOM     15  C   UNL     1      -2.174  60.491  14.781  0.00  0.00    +0.000 C 
ATOM     16  C   UNL     1      -2.976  59.842  15.873  0.00  0.00    +0.000 C 
ATOM     17  C   UNL     1      -2.641  60.334  13.461  0.00  0.00    +0.000 C 
ATOM     18  C   UNL     1      -3.123  60.170  12.146  0.00  0.00    +0.000 C 
ATOM     19  C   UNL     1      -2.592  61.099  11.094  0.00  0.00    +0.000 C 
ATOM     20  C   UNL     1      -4.043  59.187  11.749  0.00  0.00    +0.000 C 
ATOM     21  C   UNL     1      -4.883  58.280  11.382  0.00  0.00    +0.000 C 
ATOM     22  C   UNL     1      -6.351  58.559  11.468  0.00  0.00    +0.000 C 
ATOM     23  C   UNL     1      -4.405  56.872  11.203  0.00  0.00    +0.000 C 
ENDBRANCH  13  15
ENDBRANCH  11  14
ENDBRANCH   6  10
BRANCH   3  24
ATOM     24  O   UNL     1       6.346  63.197  15.694  0.00  0.00    +0.000 OA
ATOM     25  H   UNL     1       6.457  64.051  16.146  0.00  0.00    +0.000 HD
ENDBRANCH   3  24
BRANCH   3  26
ATOM     26  C   UNL     1       6.785  61.129  16.740  0.00  0.00    +0.000 C 
ATOM     27  C   UNL     1       7.712  59.912  16.797  0.00  0.00    +0.000 C 
BRANCH  27  28
ATOM     28  C   UNL     1       8.643  58.697  16.851  0.00  0.00    +0.000 C 
ATOM     29  C   UNL     1       9.576  57.484  16.905  0.00  0.00    +0.000 C 
BRANCH  29  31
ATOM     30  O   UNL     1      10.276  55.401  17.701  0.00  0.00    +0.000 OA
ATOM     31  C   UNL     1      10.449  56.350  16.956  0.00  0.00    +0.000 C 
BRANCH  31  32
ATOM     32  O   UNL     1      11.487  56.420  16.104  0.00  0.00    +0.000 OA
ATOM     33  H   UNL     1      12.189  55.907  16.553  0.00  0.00    +0.000 HD
ENDBRANCH  31  32
ENDBRANCH  29  31
ENDBRANCH  27  28
ENDBRANCH   3  26
TORSDOF 8
ENDMDL
MODEL 9
REMARK VINA RESULT:      -5.4     22.164     25.455
REMARK  Name = 122178712_SalternamideA.pdbqt.pdb
REMARK  8 active torsions:
REMARK  status: ('A' for Active; 'I' for Inactive)
REMARK    1  A    between atoms: C_3  and  O_24
REMARK    2  A    between atoms: C_3  and  C_26
REMARK    3  A    between atoms: C_6  and  N_10
REMARK    4  A    between atoms: C_11  and  C_14
REMARK    5  A    between atoms: C_13  and  C_15
REMARK    6  A    between atoms: C_27  and  C_28
REMARK    7  A    between atoms: C_29  and  C_31
REMARK    8  A    between atoms: C_31  and  O_32
REMARK                            x       y       z     vdW  Elec       q    Type
REMARK                         _______ _______ _______ _____ _____    ______ ____
ROOT
ATOM      1 CL   UNL     1      -0.611   9.142   8.646  0.00  0.00    +0.000 Cl
ATOM      2  O   UNL     1       2.088  10.665   9.226  0.00  0.00    +0.000 OA
ATOM      3  C   UNL     1      -1.396  13.136   8.667  0.00  0.00    +0.000 C 
ATOM      4  C   UNL     1      -0.003  13.477   9.001  0.00  0.00    +0.000 C 
ATOM      5  C   UNL     1      -1.244  11.674   8.582  0.00  0.00    +0.000 C 
ATOM      6  C   UNL     1       1.134  12.872   9.190  0.00  0.00    +0.000 C 
ATOM      7  C   UNL     1      -0.286  10.803   8.703  0.00  0.00    +0.000 C 
ATOM      8  C   UNL     1       1.086  11.346   9.052  0.00  0.00    +0.000 C 
ENDROOT
BRANCH   6  10
ATOM      9  O   UNL     1       2.463  13.083  11.785  0.00  0.00    +0.000 OA
ATOM     10  N   UNL     1       2.328  13.469   9.500  0.00  0.00    +0.000 N 
ATOM     11  C   UNL     1       2.909  13.538  10.742  0.00  0.00    +0.000 C 
ATOM     12  H   UNL     1       2.814  13.899   8.716  0.00  0.00    +0.000 HD
BRANCH  11  14
ATOM     13  C   UNL     1       5.232  14.802  10.794  0.00  0.00    +0.000 C 
ATOM     14  C   UNL     1       4.178  14.226  10.778  0.00  0.00    +0.000 C 
BRANCH  13  15
ATOM     15  C   UNL     1       6.473  15.486  10.808  0.00  0.00    +0.000 C 
ATOM     16  C   UNL     1       7.724  14.687  10.577  0.00  0.00    +0.000 C 
ATOM     17  C   UNL     1       6.629  16.861  11.075  0.00  0.00    +0.000 C 
ATOM     18  C   UNL     1       6.801  18.235  11.337  0.00  0.00    +0.000 C 
ATOM     19  C   UNL     1       5.601  19.123  11.189  0.00  0.00    +0.000 C 
ATOM     20  C   UNL     1       8.007  18.825  11.749  0.00  0.00    +0.000 C 
ATOM     21  C   UNL     1       9.112  19.367  12.134  0.00  0.00    +0.000 C 
ATOM     22  C   UNL     1      10.096  19.839  11.108  0.00  0.00    +0.000 C 
ATOM     23  C   UNL     1       9.544  19.212  13.559  0.00  0.00    +0.000 C 
ENDBRANCH  13  15
ENDBRANCH  11  14
ENDBRANCH   6  10
BRANCH   3  24
ATOM     24  O   UNL     1      -1.709  13.647   7.388  0.00  0.00    +0.000 OA
ATOM     25  H   UNL     1      -2.274  12.978   6.965  0.00  0.00    +0.000 HD
ENDBRANCH   3  24
BRANCH   3  26
ATOM     26  C   UNL     1      -2.378  13.580   9.649  0.00  0.00    +0.000 C 
ATOM     27  C   UNL     1      -3.406  14.044  10.685  0.00  0.00    +0.000 C 
BRANCH  27  28
ATOM     28  C   UNL     1      -4.432  14.506  11.724  0.00  0.00    +0.000 C 
ATOM     29  C   UNL     1      -5.456  14.971  12.764  0.00  0.00    +0.000 C 
BRANCH  29  31
ATOM     30  O   UNL     1      -7.584  15.066  13.724  0.00  0.00    +0.000 OA
ATOM     31  C   UNL     1      -6.413  15.406  13.734  0.00  0.00    +0.000 C 
BRANCH  31  32
ATOM     32  O   UNL     1      -5.909  16.231  14.669  0.00  0.00    +0.000 OA
ATOM     33  H   UNL     1      -5.625  17.015  14.156  0.00  0.00    +0.000 HD
ENDBRANCH  31  32
ENDBRANCH  29  31
ENDBRANCH  27  28
ENDBRANCH   3  26
TORSDOF 8
ENDMDL
