MODEL 1
REMARK VINA RESULT:      -7.0      0.000      0.000
REMARK  Name = 122180587_TripolinolateA.pdbqt.pdb
REMARK  9 active torsions:
REMARK  status: ('A' for Active; 'I' for Inactive)
REMARK    1  A    between atoms: C_1  and  O_16
REMARK    2  A    between atoms: C_2  and  O_7
REMARK    3  A    between atoms: C_3  and  C_9
REMARK    4  A    between atoms: C_10  and  C_11
REMARK    5  A    between atoms: C_11  and  O_12
REMARK    6  A    between atoms: O_12  and  C_14
REMARK    7  A    between atoms: O_16  and  C_18
REMARK    8  A    between atoms: C_18  and  C_19
REMARK    9  A    between atoms: C_19  and  C_21
REMARK                            x       y       z     vdW  Elec       q    Type
REMARK                         _______ _______ _______ _____ _____    ______ ____
ROOT
ATOM      1  C   UNL     1       2.996  31.284  16.031  0.00  0.00    +0.000 A 
ATOM      2  C   UNL     1       4.247  31.892  15.885  0.00  0.00    +0.000 A 
ATOM      3  C   UNL     1       5.216  29.691  15.565  0.00  0.00    +0.000 A 
ATOM      4  C   UNL     1       2.849  29.896  15.978  0.00  0.00    +0.000 A 
ATOM      5  C   UNL     1       5.356  31.076  15.645  0.00  0.00    +0.000 A 
ATOM      6  C   UNL     1       3.964  29.100  15.735  0.00  0.00    +0.000 A 
ENDROOT
BRANCH   2   7
ATOM      7  O   UNL     1       4.301  33.257  16.007  0.00  0.00    +0.000 OA
ATOM      8  C   UNL     1       4.414  33.970  14.807  0.00  0.00    +0.000 C 
ENDBRANCH   2   7
BRANCH   3   9
ATOM      9  C   UNL     1       6.358  28.875  15.315  0.00  0.00    +0.000 C 
ATOM     10  C   UNL     1       7.320  28.187  15.105  0.00  0.00    +0.000 C 
BRANCH  10  11
ATOM     11  C   UNL     1       8.549  27.310  14.843  0.00  0.00    +0.000 C 
BRANCH  11  12
ATOM     12  O   UNL     1       9.617  26.550  14.614  0.00  0.00    +0.000 OA
BRANCH  12  14
ATOM     13  O   UNL     1      10.857  25.482  16.284  0.00  0.00    +0.000 OA
ATOM     14  C   UNL     1      10.477  26.447  15.646  0.00  0.00    +0.000 C 
ATOM     15  C   UNL     1      11.069  27.743  16.088  0.00  0.00    +0.000 C 
ENDBRANCH  12  14
ENDBRANCH  11  12
ENDBRANCH  10  11
ENDBRANCH   3   9
BRANCH   1  16
ATOM     16  O   UNL     1       1.870  32.066  16.324  0.00  0.00    +0.000 OA
BRANCH  16  18
ATOM     17  O   UNL     1       1.182  32.634  14.176  0.00  0.00    +0.000 OA
ATOM     18  C   UNL     1       0.962  32.140  15.275  0.00  0.00    +0.000 C 
BRANCH  18  19
ATOM     19  C   UNL     1      -0.340  31.547  15.667  0.00  0.00    +0.000 C 
ATOM     20  C   UNL     1      -0.575  30.845  16.998  0.00  0.00    +0.000 C 
BRANCH  19  21
ATOM     21  C   UNL     1      -1.436  31.634  14.769  0.00  0.00    +0.000 C 
ATOM     22  C   UNL     1      -2.629  31.724  13.799  0.00  0.00    +0.000 C 
ENDBRANCH  19  21
ENDBRANCH  18  19
ENDBRANCH  16  18
ENDBRANCH   1  16
TORSDOF 9
ENDMDL
MODEL 2
REMARK VINA RESULT:      -6.6      1.526      2.514
REMARK  Name = 122180587_TripolinolateA.pdbqt.pdb
REMARK  9 active torsions:
REMARK  status: ('A' for Active; 'I' for Inactive)
REMARK    1  A    between atoms: C_1  and  O_16
REMARK    2  A    between atoms: C_2  and  O_7
REMARK    3  A    between atoms: C_3  and  C_9
REMARK    4  A    between atoms: C_10  and  C_11
REMARK    5  A    between atoms: C_11  and  O_12
REMARK    6  A    between atoms: O_12  and  C_14
REMARK    7  A    between atoms: O_16  and  C_18
REMARK    8  A    between atoms: C_18  and  C_19
REMARK    9  A    between atoms: C_19  and  C_21
REMARK                            x       y       z     vdW  Elec       q    Type
REMARK                         _______ _______ _______ _____ _____    ______ ____
ROOT
ATOM      1  C   UNL     1       2.734  32.673  16.314  0.00  0.00    +0.000 A 
ATOM      2  C   UNL     1       2.413  31.314  16.392  0.00  0.00    +0.000 A 
ATOM      3  C   UNL     1       4.689  30.797  15.731  0.00  0.00    +0.000 A 
ATOM      4  C   UNL     1       4.003  33.101  15.920  0.00  0.00    +0.000 A 
ATOM      5  C   UNL     1       3.411  30.379  16.101  0.00  0.00    +0.000 A 
ATOM      6  C   UNL     1       4.985  32.156  15.637  0.00  0.00    +0.000 A 
ENDROOT
BRANCH   2   7
ATOM      7  O   UNL     1       1.124  30.990  16.735  0.00  0.00    +0.000 OA
ATOM      8  C   UNL     1       0.464  30.120  15.858  0.00  0.00    +0.000 C 
ENDBRANCH   2   7
BRANCH   3   9
ATOM      9  C   UNL     1       5.696  29.829  15.442  0.00  0.00    +0.000 C 
ATOM     10  C   UNL     1       6.544  29.015  15.199  0.00  0.00    +0.000 C 
BRANCH  10  11
ATOM     11  C   UNL     1       7.628  27.979  14.884  0.00  0.00    +0.000 C 
BRANCH  11  12
ATOM     12  O   UNL     1       8.569  27.077  14.611  0.00  0.00    +0.000 OA
BRANCH  12  14
ATOM     13  O   UNL     1      10.605  28.014  13.946  0.00  0.00    +0.000 OA
ATOM     14  C   UNL     1       9.836  27.514  14.746  0.00  0.00    +0.000 C 
ATOM     15  C   UNL     1      10.399  27.359  16.119  0.00  0.00    +0.000 C 
ENDBRANCH  12  14
ENDBRANCH  11  12
ENDBRANCH  10  11
ENDBRANCH   3   9
BRANCH   1  16
ATOM     16  O   UNL     1       1.745  33.638  16.549  0.00  0.00    +0.000 OA
BRANCH  16  18
ATOM     17  O   UNL     1       1.336  33.936  14.279  0.00  0.00    +0.000 OA
ATOM     18  C   UNL     1       0.948  33.892  15.440  0.00  0.00    +0.000 C 
BRANCH  18  19
ATOM     19  C   UNL     1      -0.460  34.123  15.849  0.00  0.00    +0.000 C 
ATOM     20  C   UNL     1      -0.879  35.203  16.838  0.00  0.00    +0.000 C 
BRANCH  19  21
ATOM     21  C   UNL     1      -1.482  33.308  15.295  0.00  0.00    +0.000 C 
ATOM     22  C   UNL     1      -2.595  32.430  14.693  0.00  0.00    +0.000 C 
ENDBRANCH  19  21
ENDBRANCH  18  19
ENDBRANCH  16  18
ENDBRANCH   1  16
TORSDOF 9
ENDMDL
MODEL 3
REMARK VINA RESULT:      -6.0      2.018      3.063
REMARK  Name = 122180587_TripolinolateA.pdbqt.pdb
REMARK  9 active torsions:
REMARK  status: ('A' for Active; 'I' for Inactive)
REMARK    1  A    between atoms: C_1  and  O_16
REMARK    2  A    between atoms: C_2  and  O_7
REMARK    3  A    between atoms: C_3  and  C_9
REMARK    4  A    between atoms: C_10  and  C_11
REMARK    5  A    between atoms: C_11  and  O_12
REMARK    6  A    between atoms: O_12  and  C_14
REMARK    7  A    between atoms: O_16  and  C_18
REMARK    8  A    between atoms: C_18  and  C_19
REMARK    9  A    between atoms: C_19  and  C_21
REMARK                            x       y       z     vdW  Elec       q    Type
REMARK                         _______ _______ _______ _____ _____    ______ ____
ROOT
ATOM      1  C   UNL     1       3.504  30.991  15.404  0.00  0.00    +0.000 A 
ATOM      2  C   UNL     1       3.729  29.611  15.410  0.00  0.00    +0.000 A 
ATOM      3  C   UNL     1       6.093  30.054  15.722  0.00  0.00    +0.000 A 
ATOM      4  C   UNL     1       4.557  31.902  15.523  0.00  0.00    +0.000 A 
ATOM      5  C   UNL     1       5.039  29.153  15.577  0.00  0.00    +0.000 A 
ATOM      6  C   UNL     1       5.854  31.427  15.691  0.00  0.00    +0.000 A 
ENDROOT
BRANCH   2   7
ATOM      7  O   UNL     1       2.640  28.795  15.232  0.00  0.00    +0.000 OA
ATOM      8  C   UNL     1       2.766  27.825  14.230  0.00  0.00    +0.000 C 
ENDBRANCH   2   7
BRANCH   3   9
ATOM      9  C   UNL     1       7.423  29.568  15.895  0.00  0.00    +0.000 C 
ATOM     10  C   UNL     1       8.542  29.157  16.041  0.00  0.00    +0.000 C 
BRANCH  10  11
ATOM     11  C   UNL     1       9.968  28.630  16.230  0.00  0.00    +0.000 C 
BRANCH  11  12
ATOM     12  O   UNL     1      11.207  28.174  16.395  0.00  0.00    +0.000 OA
BRANCH  12  14
ATOM     13  O   UNL     1      11.019  26.231  17.682  0.00  0.00    +0.000 OA
ATOM     14  C   UNL     1      11.300  26.860  16.678  0.00  0.00    +0.000 C 
ATOM     15  C   UNL     1      11.843  26.027  15.567  0.00  0.00    +0.000 C 
ENDBRANCH  12  14
ENDBRANCH  11  12
ENDBRANCH  10  11
ENDBRANCH   3   9
BRANCH   1  16
ATOM     16  O   UNL     1       2.211  31.487  15.188  0.00  0.00    +0.000 OA
BRANCH  16  18
ATOM     17  O   UNL     1       2.016  32.521  17.262  0.00  0.00    +0.000 OA
ATOM     18  C   UNL     1       1.868  32.524  16.047  0.00  0.00    +0.000 C 
BRANCH  18  19
ATOM     19  C   UNL     1       1.270  33.652  15.290  0.00  0.00    +0.000 C 
ATOM     20  C   UNL     1       0.052  34.432  15.770  0.00  0.00    +0.000 C 
BRANCH  19  21
ATOM     21  C   UNL     1       1.855  34.042  14.057  0.00  0.00    +0.000 C 
ATOM     22  C   UNL     1       2.488  34.473  12.720  0.00  0.00    +0.000 C 
ENDBRANCH  19  21
ENDBRANCH  18  19
ENDBRANCH  16  18
ENDBRANCH   1  16
TORSDOF 9
ENDMDL
MODEL 4
REMARK VINA RESULT:      -5.8      4.009      6.750
REMARK  Name = 122180587_TripolinolateA.pdbqt.pdb
REMARK  9 active torsions:
REMARK  status: ('A' for Active; 'I' for Inactive)
REMARK    1  A    between atoms: C_1  and  O_16
REMARK    2  A    between atoms: C_2  and  O_7
REMARK    3  A    between atoms: C_3  and  C_9
REMARK    4  A    between atoms: C_10  and  C_11
REMARK    5  A    between atoms: C_11  and  O_12
REMARK    6  A    between atoms: O_12  and  C_14
REMARK    7  A    between atoms: O_16  and  C_18
REMARK    8  A    between atoms: C_18  and  C_19
REMARK    9  A    between atoms: C_19  and  C_21
REMARK                            x       y       z     vdW  Elec       q    Type
REMARK                         _______ _______ _______ _____ _____    ______ ____
ROOT
ATOM      1  C   UNL     1       4.954  31.185  15.338  0.00  0.00    +0.000 A 
ATOM      2  C   UNL     1       6.331  31.031  15.524  0.00  0.00    +0.000 A 
ATOM      3  C   UNL     1       6.468  33.398  16.038  0.00  0.00    +0.000 A 
ATOM      4  C   UNL     1       4.335  32.430  15.465  0.00  0.00    +0.000 A 
ATOM      5  C   UNL     1       7.081  32.155  15.882  0.00  0.00    +0.000 A 
ATOM      6  C   UNL     1       5.097  33.537  15.826  0.00  0.00    +0.000 A 
ENDROOT
BRANCH   2   7
ATOM      7  O   UNL     1       6.858  29.780  15.323  0.00  0.00    +0.000 OA
ATOM      8  C   UNL     1       7.832  29.376  16.244  0.00  0.00    +0.000 C 
ENDBRANCH   2   7
BRANCH   3   9
ATOM      9  C   UNL     1       7.249  34.533  16.408  0.00  0.00    +0.000 C 
ATOM     10  C   UNL     1       7.905  35.489  16.719  0.00  0.00    +0.000 C 
BRANCH  10  11
ATOM     11  C   UNL     1       8.743  36.710  17.111  0.00  0.00    +0.000 C 
BRANCH  11  12
ATOM     12  O   UNL     1       9.470  37.772  17.450  0.00  0.00    +0.000 OA
BRANCH  12  14
ATOM     13  O   UNL     1      10.812  39.024  16.002  0.00  0.00    +0.000 OA
ATOM     14  C   UNL     1       9.752  38.618  16.440  0.00  0.00    +0.000 C 
ATOM     15  C   UNL     1       8.553  39.155  15.733  0.00  0.00    +0.000 C 
ENDBRANCH  12  14
ENDBRANCH  11  12
ENDBRANCH  10  11
ENDBRANCH   3   9
BRANCH   1  16
ATOM     16  O   UNL     1       4.179  30.091  14.928  0.00  0.00    +0.000 OA
BRANCH  16  18
ATOM     17  O   UNL     1       3.779  29.269  17.066  0.00  0.00    +0.000 OA
ATOM     18  C   UNL     1       3.391  29.563  15.943  0.00  0.00    +0.000 C 
BRANCH  18  19
ATOM     19  C   UNL     1       1.993  29.380  15.478  0.00  0.00    +0.000 C 
ATOM     20  C   UNL     1       1.580  28.330  14.456  0.00  0.00    +0.000 C 
BRANCH  19  21
ATOM     21  C   UNL     1       0.975  30.216  16.008  0.00  0.00    +0.000 C 
ATOM     22  C   UNL     1      -0.123  31.128  16.587  0.00  0.00    +0.000 C 
ENDBRANCH  19  21
ENDBRANCH  18  19
ENDBRANCH  16  18
ENDBRANCH   1  16
TORSDOF 9
ENDMDL
MODEL 5
REMARK VINA RESULT:      -5.3      5.667      8.707
REMARK  Name = 122180587_TripolinolateA.pdbqt.pdb
REMARK  9 active torsions:
REMARK  status: ('A' for Active; 'I' for Inactive)
REMARK    1  A    between atoms: C_1  and  O_16
REMARK    2  A    between atoms: C_2  and  O_7
REMARK    3  A    between atoms: C_3  and  C_9
REMARK    4  A    between atoms: C_10  and  C_11
REMARK    5  A    between atoms: C_11  and  O_12
REMARK    6  A    between atoms: O_12  and  C_14
REMARK    7  A    between atoms: O_16  and  C_18
REMARK    8  A    between atoms: C_18  and  C_19
REMARK    9  A    between atoms: C_19  and  C_21
REMARK                            x       y       z     vdW  Elec       q    Type
REMARK                         _______ _______ _______ _____ _____    ______ ____
ROOT
ATOM      1  C   UNL     1       9.627  35.092  16.742  0.00  0.00    +0.000 A 
ATOM      2  C   UNL     1       8.486  34.668  17.431  0.00  0.00    +0.000 A 
ATOM      3  C   UNL     1       8.474  32.665  16.062  0.00  0.00    +0.000 A 
ATOM      4  C   UNL     1      10.174  34.337  15.702  0.00  0.00    +0.000 A 
ATOM      5  C   UNL     1       7.920  33.439  17.081  0.00  0.00    +0.000 A 
ATOM      6  C   UNL     1       9.598  33.114  15.371  0.00  0.00    +0.000 A 
ENDROOT
BRANCH   2   7
ATOM      7  O   UNL     1       7.988  35.503  18.399  0.00  0.00    +0.000 OA
ATOM      8  C   UNL     1       8.052  35.018  19.711  0.00  0.00    +0.000 C 
ENDBRANCH   2   7
BRANCH   3   9
ATOM      9  C   UNL     1       7.885  31.412  15.722  0.00  0.00    +0.000 C 
ATOM     10  C   UNL     1       7.390  30.355  15.437  0.00  0.00    +0.000 C 
BRANCH  10  11
ATOM     11  C   UNL     1       6.762  29.006  15.071  0.00  0.00    +0.000 C 
BRANCH  11  12
ATOM     12  O   UNL     1       6.217  27.835  14.751  0.00  0.00    +0.000 OA
BRANCH  12  14
ATOM     13  O   UNL     1       4.232  27.259  13.658  0.00  0.00    +0.000 OA
ATOM     14  C   UNL     1       4.901  27.876  14.466  0.00  0.00    +0.000 C 
ATOM     15  C   UNL     1       4.123  28.850  15.285  0.00  0.00    +0.000 C 
ENDBRANCH  12  14
ENDBRANCH  11  12
ENDBRANCH  10  11
ENDBRANCH   3   9
BRANCH   1  16
ATOM     16  O   UNL     1      10.191  36.342  17.030  0.00  0.00    +0.000 OA
BRANCH  16  18
ATOM     17  O   UNL     1       8.875  37.499  15.501  0.00  0.00    +0.000 OA
ATOM     18  C   UNL     1       9.952  37.296  16.049  0.00  0.00    +0.000 C 
BRANCH  18  19
ATOM     19  C   UNL     1      11.194  38.042  15.730  0.00  0.00    +0.000 C 
ATOM     20  C   UNL     1      12.255  37.531  14.765  0.00  0.00    +0.000 C 
BRANCH  19  21
ATOM     21  C   UNL     1      11.417  39.303  16.344  0.00  0.00    +0.000 C 
ATOM     22  C   UNL     1      11.653  40.669  17.015  0.00  0.00    +0.000 C 
ENDBRANCH  19  21
ENDBRANCH  18  19
ENDBRANCH  16  18
ENDBRANCH   1  16
TORSDOF 9
ENDMDL
MODEL 6
REMARK VINA RESULT:      -5.3     21.289     22.425
REMARK  Name = 122180587_TripolinolateA.pdbqt.pdb
REMARK  9 active torsions:
REMARK  status: ('A' for Active; 'I' for Inactive)
REMARK    1  A    between atoms: C_1  and  O_16
REMARK    2  A    between atoms: C_2  and  O_7
REMARK    3  A    between atoms: C_3  and  C_9
REMARK    4  A    between atoms: C_10  and  C_11
REMARK    5  A    between atoms: C_11  and  O_12
REMARK    6  A    between atoms: O_12  and  C_14
REMARK    7  A    between atoms: O_16  and  C_18
REMARK    8  A    between atoms: C_18  and  C_19
REMARK    9  A    between atoms: C_19  and  C_21
REMARK                            x       y       z     vdW  Elec       q    Type
REMARK                         _______ _______ _______ _____ _____    ______ ____
ROOT
ATOM      1  C   UNL     1     -14.980  30.810  24.368  0.00  0.00    +0.000 A 
ATOM      2  C   UNL     1     -15.236  31.626  23.261  0.00  0.00    +0.000 A 
ATOM      3  C   UNL     1     -15.986  29.659  22.056  0.00  0.00    +0.000 A 
ATOM      4  C   UNL     1     -15.191  29.430  24.321  0.00  0.00    +0.000 A 
ATOM      5  C   UNL     1     -15.748  31.032  22.105  0.00  0.00    +0.000 A 
ATOM      6  C   UNL     1     -15.705  28.857  23.162  0.00  0.00    +0.000 A 
ENDROOT
BRANCH   2   7
ATOM      7  O   UNL     1     -14.945  32.961  23.384  0.00  0.00    +0.000 OA
ATOM      8  C   UNL     1     -15.759  33.829  22.645  0.00  0.00    +0.000 C 
ENDBRANCH   2   7
BRANCH   3   9
ATOM      9  C   UNL     1     -16.514  29.071  20.869  0.00  0.00    +0.000 C 
ATOM     10  C   UNL     1     -16.960  28.578  19.869  0.00  0.00    +0.000 C 
BRANCH  10  11
ATOM     11  C   UNL     1     -17.532  27.949  18.594  0.00  0.00    +0.000 C 
BRANCH  11  12
ATOM     12  O   UNL     1     -18.028  27.403  17.487  0.00  0.00    +0.000 OA
BRANCH  12  14
ATOM     13  O   UNL     1     -17.802  27.673  15.175  0.00  0.00    +0.000 OA
ATOM     14  C   UNL     1     -17.485  27.849  16.337  0.00  0.00    +0.000 C 
ATOM     15  C   UNL     1     -16.283  28.714  16.517  0.00  0.00    +0.000 C 
ENDBRANCH  12  14
ENDBRANCH  11  12
ENDBRANCH  10  11
ENDBRANCH   3   9
BRANCH   1  16
ATOM     16  O   UNL     1     -14.418  31.362  25.527  0.00  0.00    +0.000 OA
BRANCH  16  18
ATOM     17  O   UNL     1     -16.010  30.843  27.141  0.00  0.00    +0.000 OA
ATOM     18  C   UNL     1     -15.356  31.662  26.507  0.00  0.00    +0.000 C 
BRANCH  18  19
ATOM     19  C   UNL     1     -15.480  33.130  26.680  0.00  0.00    +0.000 C 
ATOM     20  C   UNL     1     -16.815  33.847  26.830  0.00  0.00    +0.000 C 
BRANCH  19  21
ATOM     21  C   UNL     1     -14.302  33.922  26.717  0.00  0.00    +0.000 C 
ATOM     22  C   UNL     1     -13.029  34.788  26.754  0.00  0.00    +0.000 C 
ENDBRANCH  19  21
ENDBRANCH  18  19
ENDBRANCH  16  18
ENDBRANCH   1  16
TORSDOF 9
ENDMDL
MODEL 7
REMARK VINA RESULT:      -5.3     30.029     33.945
REMARK  Name = 122180587_TripolinolateA.pdbqt.pdb
REMARK  9 active torsions:
REMARK  status: ('A' for Active; 'I' for Inactive)
REMARK    1  A    between atoms: C_1  and  O_16
REMARK    2  A    between atoms: C_2  and  O_7
REMARK    3  A    between atoms: C_3  and  C_9
REMARK    4  A    between atoms: C_10  and  C_11
REMARK    5  A    between atoms: C_11  and  O_12
REMARK    6  A    between atoms: O_12  and  C_14
REMARK    7  A    between atoms: O_16  and  C_18
REMARK    8  A    between atoms: C_18  and  C_19
REMARK    9  A    between atoms: C_19  and  C_21
REMARK                            x       y       z     vdW  Elec       q    Type
REMARK                         _______ _______ _______ _____ _____    ______ ____
ROOT
ATOM      1  C   UNL     1      -0.784  62.915   7.599  0.00  0.00    +0.000 A 
ATOM      2  C   UNL     1      -0.708  63.346   8.927  0.00  0.00    +0.000 A 
ATOM      3  C   UNL     1      -2.113  61.471   9.555  0.00  0.00    +0.000 A 
ATOM      4  C   UNL     1      -1.538  61.797   7.236  0.00  0.00    +0.000 A 
ATOM      5  C   UNL     1      -1.379  62.604   9.903  0.00  0.00    +0.000 A 
ATOM      6  C   UNL     1      -2.196  61.069   8.223  0.00  0.00    +0.000 A 
ENDROOT
BRANCH   2   7
ATOM      7  O   UNL     1       0.011  64.487   9.179  0.00  0.00    +0.000 OA
ATOM      8  C   UNL     1       1.264  64.296   9.775  0.00  0.00    +0.000 C 
ENDBRANCH   2   7
BRANCH   3   9
ATOM      9  C   UNL     1      -2.787  60.724  10.566  0.00  0.00    +0.000 C 
ATOM     10  C   UNL     1      -3.356  60.095  11.416  0.00  0.00    +0.000 C 
BRANCH  10  11
ATOM     11  C   UNL     1      -4.085  59.296  12.501  0.00  0.00    +0.000 C 
BRANCH  11  12
ATOM     12  O   UNL     1      -4.717  58.603  13.445  0.00  0.00    +0.000 OA
BRANCH  12  14
ATOM     13  O   UNL     1      -3.741  56.583  12.785  0.00  0.00    +0.000 OA
ATOM     14  C   UNL     1      -4.351  57.310  13.548  0.00  0.00    +0.000 C 
ATOM     15  C   UNL     1      -4.764  56.651  14.820  0.00  0.00    +0.000 C 
ENDBRANCH  12  14
ENDBRANCH  11  12
ENDBRANCH  10  11
ENDBRANCH   3   9
BRANCH   1  16
ATOM     16  O   UNL     1      -0.167  63.664   6.587  0.00  0.00    +0.000 OA
BRANCH  16  18
ATOM     17  O   UNL     1      -2.159  64.652   5.906  0.00  0.00    +0.000 OA
ATOM     18  C   UNL     1      -0.953  64.707   6.114  0.00  0.00    +0.000 C 
BRANCH  18  19
ATOM     19  C   UNL     1      -0.128  65.917   5.873  0.00  0.00    +0.000 C 
ATOM     20  C   UNL     1       0.208  66.932   6.958  0.00  0.00    +0.000 C 
BRANCH  19  21
ATOM     21  C   UNL     1       0.387  66.152   4.571  0.00  0.00    +0.000 C 
ATOM     22  C   UNL     1       0.952  66.410   3.162  0.00  0.00    +0.000 C 
ENDBRANCH  19  21
ENDBRANCH  18  19
ENDBRANCH  16  18
ENDBRANCH   1  16
TORSDOF 9
ENDMDL
MODEL 8
REMARK VINA RESULT:      -5.0     27.610     31.578
REMARK  Name = 122180587_TripolinolateA.pdbqt.pdb
REMARK  9 active torsions:
REMARK  status: ('A' for Active; 'I' for Inactive)
REMARK    1  A    between atoms: C_1  and  O_16
REMARK    2  A    between atoms: C_2  and  O_7
REMARK    3  A    between atoms: C_3  and  C_9
REMARK    4  A    between atoms: C_10  and  C_11
REMARK    5  A    between atoms: C_11  and  O_12
REMARK    6  A    between atoms: O_12  and  C_14
REMARK    7  A    between atoms: O_16  and  C_18
REMARK    8  A    between atoms: C_18  and  C_19
REMARK    9  A    between atoms: C_19  and  C_21
REMARK                            x       y       z     vdW  Elec       q    Type
REMARK                         _______ _______ _______ _____ _____    ______ ____
ROOT
ATOM      1  C   UNL     1      -3.966  59.281  13.516  0.00  0.00    +0.000 A 
ATOM      2  C   UNL     1      -4.485  58.831  12.298  0.00  0.00    +0.000 A 
ATOM      3  C   UNL     1      -3.012  60.387  11.161  0.00  0.00    +0.000 A 
ATOM      4  C   UNL     1      -3.006  60.293  13.570  0.00  0.00    +0.000 A 
ATOM      5  C   UNL     1      -3.990  59.394  11.119  0.00  0.00    +0.000 A 
ATOM      6  C   UNL     1      -2.522  60.839  12.385  0.00  0.00    +0.000 A 
ENDROOT
BRANCH   2   7
ATOM      7  O   UNL     1      -5.466  57.873  12.347  0.00  0.00    +0.000 OA
ATOM      8  C   UNL     1      -6.300  57.800  11.225  0.00  0.00    +0.000 C 
ENDBRANCH   2   7
BRANCH   3   9
ATOM      9  C   UNL     1      -2.516  60.946   9.947  0.00  0.00    +0.000 C 
ATOM     10  C   UNL     1      -2.096  61.417   8.925  0.00  0.00    +0.000 C 
BRANCH  10  11
ATOM     11  C   UNL     1      -1.557  62.020   7.623  0.00  0.00    +0.000 C 
BRANCH  11  12
ATOM     12  O   UNL     1      -1.090  62.545   6.493  0.00  0.00    +0.000 OA
BRANCH  12  14
ATOM     13  O   UNL     1      -0.905  64.822   5.995  0.00  0.00    +0.000 OA
ATOM     14  C   UNL     1      -0.621  63.804   6.599  0.00  0.00    +0.000 C 
ATOM     15  C   UNL     1       0.433  63.983   7.639  0.00  0.00    +0.000 C 
ENDBRANCH  12  14
ENDBRANCH  11  12
ENDBRANCH  10  11
ENDBRANCH   3   9
BRANCH   1  16
ATOM     16  O   UNL     1      -4.476  58.777  14.721  0.00  0.00    +0.000 OA
BRANCH  16  18
ATOM     17  O   UNL     1      -3.179  56.847  14.637  0.00  0.00    +0.000 OA
ATOM     18  C   UNL     1      -3.699  57.761  15.265  0.00  0.00    +0.000 C 
BRANCH  18  19
ATOM     19  C   UNL     1      -3.591  57.918  16.737  0.00  0.00    +0.000 C 
ATOM     20  C   UNL     1      -4.295  59.021  17.517  0.00  0.00    +0.000 C 
BRANCH  19  21
ATOM     21  C   UNL     1      -2.798  56.997  17.472  0.00  0.00    +0.000 C 
ATOM     22  C   UNL     1      -1.945  55.995  18.272  0.00  0.00    +0.000 C 
ENDBRANCH  19  21
ENDBRANCH  18  19
ENDBRANCH  16  18
ENDBRANCH   1  16
TORSDOF 9
ENDMDL
MODEL 9
REMARK VINA RESULT:      -4.9     19.884     24.163
REMARK  Name = 122180587_TripolinolateA.pdbqt.pdb
REMARK  9 active torsions:
REMARK  status: ('A' for Active; 'I' for Inactive)
REMARK    1  A    between atoms: C_1  and  O_16
REMARK    2  A    between atoms: C_2  and  O_7
REMARK    3  A    between atoms: C_3  and  C_9
REMARK    4  A    between atoms: C_10  and  C_11
REMARK    5  A    between atoms: C_11  and  O_12
REMARK    6  A    between atoms: O_12  and  C_14
REMARK    7  A    between atoms: O_16  and  C_18
REMARK    8  A    between atoms: C_18  and  C_19
REMARK    9  A    between atoms: C_19  and  C_21
REMARK                            x       y       z     vdW  Elec       q    Type
REMARK                         _______ _______ _______ _____ _____    ______ ____
ROOT
ATOM      1  C   UNL     1     -15.250  31.361  23.049  0.00  0.00    +0.000 A 
ATOM      2  C   UNL     1     -15.030  32.536  23.774  0.00  0.00    +0.000 A 
ATOM      3  C   UNL     1     -17.304  33.209  23.264  0.00  0.00    +0.000 A 
ATOM      4  C   UNL     1     -16.466  31.116  22.409  0.00  0.00    +0.000 A 
ATOM      5  C   UNL     1     -16.076  33.456  23.878  0.00  0.00    +0.000 A 
ATOM      6  C   UNL     1     -17.498  32.042  22.527  0.00  0.00    +0.000 A 
ENDROOT
BRANCH   2   7
ATOM      7  O   UNL     1     -13.784  32.714  24.322  0.00  0.00    +0.000 OA
ATOM      8  C   UNL     1     -13.742  32.801  25.719  0.00  0.00    +0.000 C 
ENDBRANCH   2   7
BRANCH   3   9
ATOM      9  C   UNL     1     -18.362  34.157  23.386  0.00  0.00    +0.000 C 
ATOM     10  C   UNL     1     -19.253  34.956  23.490  0.00  0.00    +0.000 C 
BRANCH  10  11
ATOM     11  C   UNL     1     -20.392  35.971  23.625  0.00  0.00    +0.000 C 
BRANCH  11  12
ATOM     12  O   UNL     1     -21.382  36.852  23.744  0.00  0.00    +0.000 OA
BRANCH  12  14
ATOM     13  O   UNL     1     -20.404  38.774  24.649  0.00  0.00    +0.000 OA
ATOM     14  C   UNL     1     -20.997  38.143  23.793  0.00  0.00    +0.000 C 
ATOM     15  C   UNL     1     -21.360  38.941  22.587  0.00  0.00    +0.000 C 
ENDBRANCH  12  14
ENDBRANCH  11  12
ENDBRANCH  10  11
ENDBRANCH   3   9
BRANCH   1  16
ATOM     16  O   UNL     1     -14.207  30.440  22.880  0.00  0.00    +0.000 OA
BRANCH  16  18
ATOM     17  O   UNL     1     -15.244  28.662  23.963  0.00  0.00    +0.000 OA
ATOM     18  C   UNL     1     -14.611  29.117  23.019  0.00  0.00    +0.000 C 
BRANCH  18  19
ATOM     19  C   UNL     1     -14.154  28.307  21.863  0.00  0.00    +0.000 C 
ATOM     20  C   UNL     1     -13.361  27.014  22.006  0.00  0.00    +0.000 C 
BRANCH  19  21
ATOM     21  C   UNL     1     -14.471  28.741  20.549  0.00  0.00    +0.000 C 
ATOM     22  C   UNL     1     -14.819  29.218  19.126  0.00  0.00    +0.000 C 
ENDBRANCH  19  21
ENDBRANCH  18  19
ENDBRANCH  16  18
ENDBRANCH   1  16
TORSDOF 9
ENDMDL
