MODEL 1
REMARK VINA RESULT:      -8.1      0.000      0.000
REMARK  Name = 135403648_CalciumFolinate.pdbqt.pdb
REMARK  10 active torsions:
REMARK  status: ('A' for Active; 'I' for Inactive)
REMARK    1  A    between atoms: N_1  and  C_3
REMARK    2  A    between atoms: N_1  and  C_24
REMARK    3  A    between atoms: C_6  and  C_11
REMARK    4  A    between atoms: CA_13  and  C_15
REMARK    5  A    between atoms: CA_13  and  CB_18
REMARK    6  A    between atoms: C_15  and  O_16
REMARK    7  A    between atoms: CG_19  and  CD_21
REMARK    8  A    between atoms: CD_21  and  OE1_22
REMARK    9  A    between atoms: C_24  and  C_32
REMARK   10  A    between atoms: N_27  and  C_37
REMARK                            x       y       z     vdW  Elec       q    Type
REMARK                         _______ _______ _______ _____ _____    ______ ____
ROOT
ATOM      1  N   UNL     1      -1.130  39.406  16.245  0.00  0.00    +0.000 N 
ATOM      2  H   UNL     1      -1.408  38.962  17.120  0.00  0.00    +0.000 HD
ENDROOT
BRANCH   1   3
ATOM      3  C   UNL     1      -2.240  39.859  15.502  0.00  0.00    +0.000 A 
ATOM      4  C   UNL     1      -2.108  40.037  14.121  0.00  0.00    +0.000 A 
ATOM      5  C   UNL     1      -3.414  40.309  16.116  0.00  0.00    +0.000 A 
ATOM      6  C   UNL     1      -4.326  40.982  13.983  0.00  0.00    +0.000 A 
ATOM      7  C   UNL     1      -3.146  40.579  13.364  0.00  0.00    +0.000 A 
ATOM      8  C   UNL     1      -4.456  40.851  15.366  0.00  0.00    +0.000 A 
BRANCH   6  11
ATOM      9  O   UNL     1      -5.832  42.696  13.488  0.00  0.00    +0.000 OA
ATOM     10  N   UNL     1      -6.014  40.749  12.246  0.00  0.00    +0.000 N 
ATOM     11  C   ACE A   0      -5.460  41.560  13.218  0.00  0.00    +0.000 C 
ATOM     12  H   UNL     1      -5.638  39.816  12.099  0.00  0.00    +0.000 HD
ATOM     13  CA  UNL     1      -7.072  41.056  11.408  0.00  0.00    +0.000 C 
BRANCH  13  15
ATOM     14  OXT UNL     1      -7.840  38.877  10.792  0.00  0.00    +0.000 OA
ATOM     15  C   UNL     1      -7.468  39.992  10.454  0.00  0.00    +0.000 C 
BRANCH  15  16
ATOM     16  O   UNL     1      -7.388  40.351   9.164  0.00  0.00    +0.000 OA
ATOM     17  H   UNL     1      -8.272  40.152   8.792  0.00  0.00    +0.000 HD
ENDBRANCH  15  16
ENDBRANCH  13  15
BRANCH  13  18
ATOM     18  CB  UNL     1      -7.738  42.309  11.455  0.00  0.00    +0.000 C 
ATOM     19  CG  UNL     1      -8.457  43.661  11.518  0.00  0.00    +0.000 C 
BRANCH  19  21
ATOM     20  OE2 UNL     1     -10.338  45.042  11.655  0.00  0.00    +0.000 OA
ATOM     21  CD  UNL     1      -9.127  44.924  11.595  0.00  0.00    +0.000 C 
BRANCH  21  22
ATOM     22  OE1 UNL     1      -8.300  45.985  11.575  0.00  0.00    +0.000 OA
ATOM     23  HE1 UNL     1      -8.415  46.378  12.463  0.00  0.00    +0.000 HD
ENDBRANCH  21  22
ENDBRANCH  19  21
ENDBRANCH  13  18
ENDBRANCH   6  11
ENDBRANCH   1   3
BRANCH   1  24
ATOM     24  C   UNL     1       0.060  40.245  16.307  0.00  0.00    +0.000 C 
BRANCH  24  31
ATOM     25  O   UNL     1       1.152  45.365  16.830  0.00  0.00    +0.000 OA
ATOM     26  N   UNL     1       1.095  42.469  16.594  0.00  0.00    +0.000 N 
ATOM     27  N   UNL     1       3.776  41.364  16.271  0.00  0.00    +0.000 N 
ATOM     28  N   UNL     1       4.674  43.545  16.286  0.00  0.00    +0.000 NA
ATOM     29  N   UNL     1       3.383  45.419  16.700  0.00  0.00    +0.000 N 
ATOM     30  N   UNL     1       5.654  45.620  16.378  0.00  0.00    +0.000 N 
ATOM     31  C   UNL     1       1.192  41.103  16.350  0.00  0.00    +0.000 C 
ATOM     32  C   UNL     1       2.521  40.686  16.178  0.00  0.00    +0.000 C 
ATOM     33  C   UNL     1       2.283  43.251  16.571  0.00  0.00    +0.000 A 
ATOM     34  C   UNL     1       3.553  42.749  16.387  0.00  0.00    +0.000 A 
ATOM     35  C   UNL     1       2.202  44.742  16.716  0.00  0.00    +0.000 A 
ATOM     36  C   UNL     1       4.566  44.818  16.449  0.00  0.00    +0.000 A 
ATOM     37  H   UNL     1       4.550  41.177  15.640  0.00  0.00    +0.000 HD
ATOM     38  H   UNL     1       3.318  46.423  16.751  0.00  0.00    +0.000 HD
ATOM     39  H   UNL     1       6.521  45.091  16.398  0.00  0.00    +0.000 HD
ATOM     40  H   UNL     1       5.673  46.421  16.996  0.00  0.00    +0.000 HD
BRANCH  26  42
ATOM     41  O   UNL     1      -1.219  43.409  16.968  0.00  0.00    +0.000 OA
ATOM     42  C   UNL     1      -0.127  43.005  16.806  0.00  0.00    +0.000 C 
ENDBRANCH  26  42
ENDBRANCH  24  31
ENDBRANCH   1  24
TORSDOF 10
ENDMDL
MODEL 2
REMARK VINA RESULT:      -7.9      2.349      3.364
REMARK  Name = 135403648_CalciumFolinate.pdbqt.pdb
REMARK  10 active torsions:
REMARK  status: ('A' for Active; 'I' for Inactive)
REMARK    1  A    between atoms: N_1  and  C_3
REMARK    2  A    between atoms: N_1  and  C_24
REMARK    3  A    between atoms: C_6  and  C_11
REMARK    4  A    between atoms: CA_13  and  C_15
REMARK    5  A    between atoms: CA_13  and  CB_18
REMARK    6  A    between atoms: C_15  and  O_16
REMARK    7  A    between atoms: CG_19  and  CD_21
REMARK    8  A    between atoms: CD_21  and  OE1_22
REMARK    9  A    between atoms: C_24  and  C_32
REMARK   10  A    between atoms: N_27  and  C_37
REMARK                            x       y       z     vdW  Elec       q    Type
REMARK                         _______ _______ _______ _____ _____    ______ ____
ROOT
ATOM      1  N   UNL     1      -2.880  41.759  17.836  0.00  0.00    +0.000 N 
ATOM      2  H   UNL     1      -3.298  41.985  18.739  0.00  0.00    +0.000 HD
ENDROOT
BRANCH   1   3
ATOM      3  C   UNL     1      -3.853  41.583  16.830  0.00  0.00    +0.000 A 
ATOM      4  C   UNL     1      -5.203  41.762  17.148  0.00  0.00    +0.000 A 
ATOM      5  C   UNL     1      -3.535  41.062  15.570  0.00  0.00    +0.000 A 
ATOM      6  C   UNL     1      -5.869  41.024  14.947  0.00  0.00    +0.000 A 
ATOM      7  C   UNL     1      -6.203  41.501  16.212  0.00  0.00    +0.000 A 
ATOM      8  C   UNL     1      -4.529  40.800  14.629  0.00  0.00    +0.000 A 
BRANCH   6  11
ATOM      9  O   UNL     1      -8.012  40.379  14.282  0.00  0.00    +0.000 OA
ATOM     10  N   UNL     1      -6.504  40.895  12.601  0.00  0.00    +0.000 N 
ATOM     11  C   ACE A   0      -6.898  40.735  13.916  0.00  0.00    +0.000 C 
ATOM     12  H   UNL     1      -5.553  41.192  12.397  0.00  0.00    +0.000 HD
ATOM     13  CA  UNL     1      -7.273  40.688  11.469  0.00  0.00    +0.000 C 
BRANCH  13  15
ATOM     14  OXT UNL     1      -5.627  41.670  10.041  0.00  0.00    +0.000 OA
ATOM     15  C   UNL     1      -6.592  40.932  10.174  0.00  0.00    +0.000 C 
BRANCH  15  16
ATOM     16  O   UNL     1      -7.125  40.267   9.138  0.00  0.00    +0.000 OA
ATOM     17  H   UNL     1      -6.721  39.375   9.177  0.00  0.00    +0.000 HD
ENDBRANCH  15  16
ENDBRANCH  13  15
BRANCH  13  18
ATOM     18  CB  UNL     1      -8.628  40.270  11.539  0.00  0.00    +0.000 C 
ATOM     19  CG  UNL     1     -10.087  39.807  11.613  0.00  0.00    +0.000 C 
BRANCH  19  21
ATOM     20  OE2 UNL     1     -12.289  39.867  12.395  0.00  0.00    +0.000 OA
ATOM     21  CD  UNL     1     -11.444  39.357  11.681  0.00  0.00    +0.000 C 
BRANCH  21  22
ATOM     22  OE1 UNL     1     -11.710  38.296  10.897  0.00  0.00    +0.000 OA
ATOM     23  HE1 UNL     1     -11.083  37.616  11.217  0.00  0.00    +0.000 HD
ENDBRANCH  21  22
ENDBRANCH  19  21
ENDBRANCH  13  18
ENDBRANCH   6  11
ENDBRANCH   1   3
BRANCH   1  24
ATOM     24  C   UNL     1      -1.652  42.472  17.506  0.00  0.00    +0.000 C 
BRANCH  24  31
ATOM     25  O   UNL     1       3.364  41.425  16.317  0.00  0.00    +0.000 OA
ATOM     26  N   UNL     1       0.730  42.527  16.861  0.00  0.00    +0.000 N 
ATOM     27  N   UNL     1       0.785  45.442  16.965  0.00  0.00    +0.000 N 
ATOM     28  N   UNL     1       3.116  45.408  16.610  0.00  0.00    +0.000 NA
ATOM     29  N   UNL     1       4.279  43.459  16.163  0.00  0.00    +0.000 N 
ATOM     30  N   UNL     1       5.371  45.486  16.180  0.00  0.00    +0.000 N 
ATOM     31  C   UNL     1      -0.446  43.169  17.234  0.00  0.00    +0.000 C 
ATOM     32  C   UNL     1      -0.297  44.565  17.283  0.00  0.00    +0.000 C 
ATOM     33  C   UNL     1       1.900  43.310  16.655  0.00  0.00    +0.000 A 
ATOM     34  C   UNL     1       1.949  44.685  16.732  0.00  0.00    +0.000 A 
ATOM     35  C   UNL     1       3.210  42.641  16.365  0.00  0.00    +0.000 A 
ATOM     36  C   UNL     1       4.215  44.798  16.329  0.00  0.00    +0.000 A 
ATOM     37  H   UNL     1       0.999  46.271  17.511  0.00  0.00    +0.000 HD
ATOM     38  H   UNL     1       5.164  43.002  16.016  0.00  0.00    +0.000 HD
ATOM     39  H   UNL     1       5.214  46.488  16.109  0.00  0.00    +0.000 HD
ATOM     40  H   UNL     1       6.021  45.145  15.483  0.00  0.00    +0.000 HD
BRANCH  26  42
ATOM     41  O   UNL     1       0.656  40.010  16.678  0.00  0.00    +0.000 OA
ATOM     42  C   UNL     1       0.725  41.181  16.747  0.00  0.00    +0.000 C 
ENDBRANCH  26  42
ENDBRANCH  24  31
ENDBRANCH   1  24
TORSDOF 10
ENDMDL
MODEL 3
REMARK VINA RESULT:      -7.3     15.700     18.477
REMARK  Name = 135403648_CalciumFolinate.pdbqt.pdb
REMARK  10 active torsions:
REMARK  status: ('A' for Active; 'I' for Inactive)
REMARK    1  A    between atoms: N_1  and  C_3
REMARK    2  A    between atoms: N_1  and  C_24
REMARK    3  A    between atoms: C_6  and  C_11
REMARK    4  A    between atoms: CA_13  and  C_15
REMARK    5  A    between atoms: CA_13  and  CB_18
REMARK    6  A    between atoms: C_15  and  O_16
REMARK    7  A    between atoms: CG_19  and  CD_21
REMARK    8  A    between atoms: CD_21  and  OE1_22
REMARK    9  A    between atoms: C_24  and  C_32
REMARK   10  A    between atoms: N_27  and  C_37
REMARK                            x       y       z     vdW  Elec       q    Type
REMARK                         _______ _______ _______ _____ _____    ______ ____
ROOT
ATOM      1  N   UNL     1      11.513  27.104  15.783  0.00  0.00    +0.000 N 
ATOM      2  H   UNL     1      11.978  27.305  16.668  0.00  0.00    +0.000 HD
ENDROOT
BRANCH   1   3
ATOM      3  C   UNL     1      10.265  27.753  15.678  0.00  0.00    +0.000 A 
ATOM      4  C   UNL     1       9.985  28.832  16.522  0.00  0.00    +0.000 A 
ATOM      5  C   UNL     1       9.226  27.247  14.888  0.00  0.00    +0.000 A 
ATOM      6  C   UNL     1       7.718  28.950  15.699  0.00  0.00    +0.000 A 
ATOM      7  C   UNL     1       8.729  29.437  16.523  0.00  0.00    +0.000 A 
ATOM      8  C   UNL     1       7.968  27.847  14.883  0.00  0.00    +0.000 A 
BRANCH   6  11
ATOM      9  O   UNL     1       6.230  30.710  16.075  0.00  0.00    +0.000 OA
ATOM     10  N   UNL     1       5.352  28.773  15.157  0.00  0.00    +0.000 N 
ATOM     11  C   ACE A   0       6.366  29.564  15.663  0.00  0.00    +0.000 C 
ATOM     12  H   UNL     1       5.563  27.829  14.843  0.00  0.00    +0.000 HD
ATOM     13  CA  UNL     1       4.017  29.114  15.022  0.00  0.00    +0.000 C 
BRANCH  13  15
ATOM     14  OXT UNL     1       3.554  27.056  13.898  0.00  0.00    +0.000 OA
ATOM     15  C   UNL     1       3.139  28.065  14.450  0.00  0.00    +0.000 C 
BRANCH  15  16
ATOM     16  O   UNL     1       1.827  28.311  14.586  0.00  0.00    +0.000 OA
ATOM     17  H   UNL     1       1.387  27.472  14.335  0.00  0.00    +0.000 HD
ENDBRANCH  15  16
ENDBRANCH  13  15
BRANCH  13  18
ATOM     18  CB  UNL     1       3.517  30.386  15.405  0.00  0.00    +0.000 C 
ATOM     19  CG  UNL     1       2.980  31.757  15.831  0.00  0.00    +0.000 C 
BRANCH  19  21
ATOM     20  OE2 UNL     1       1.996  33.244  17.341  0.00  0.00    +0.000 OA
ATOM     21  CD  UNL     1       2.484  33.034  16.245  0.00  0.00    +0.000 C 
BRANCH  21  22
ATOM     22  OE1 UNL     1       2.581  33.992  15.306  0.00  0.00    +0.000 OA
ATOM     23  HE1 UNL     1       3.291  33.661  14.719  0.00  0.00    +0.000 HD
ENDBRANCH  21  22
ENDBRANCH  19  21
ENDBRANCH  13  18
ENDBRANCH   6  11
ENDBRANCH   1   3
BRANCH   1  24
ATOM     24  C   UNL     1      12.375  27.053  14.608  0.00  0.00    +0.000 C 
BRANCH  24  31
ATOM     25  O   UNL     1      14.066  30.378  10.898  0.00  0.00    +0.000 OA
ATOM     26  N   UNL     1      13.489  28.186  12.718  0.00  0.00    +0.000 N 
ATOM     27  N   UNL     1      14.684  25.687  11.804  0.00  0.00    +0.000 N 
ATOM     28  N   UNL     1      15.494  26.782   9.879  0.00  0.00    +0.000 NA
ATOM     29  N   UNL     1      15.290  29.065   9.567  0.00  0.00    +0.000 N 
ATOM     30  N   UNL     1      16.403  27.775   8.018  0.00  0.00    +0.000 N 
ATOM     31  C   UNL     1      13.184  27.038  13.441  0.00  0.00    +0.000 C 
ATOM     32  C   UNL     1      13.784  25.891  12.895  0.00  0.00    +0.000 C 
ATOM     33  C   UNL     1      14.270  28.061  11.536  0.00  0.00    +0.000 A 
ATOM     34  C   UNL     1      14.814  26.883  11.074  0.00  0.00    +0.000 A 
ATOM     35  C   UNL     1      14.521  29.262  10.672  0.00  0.00    +0.000 A 
ATOM     36  C   UNL     1      15.717  27.842   9.182  0.00  0.00    +0.000 A 
ATOM     37  H   UNL     1      14.617  24.890  11.178  0.00  0.00    +0.000 HD
ATOM     38  H   UNL     1      15.415  29.864   8.967  0.00  0.00    +0.000 HD
ATOM     39  H   UNL     1      16.868  26.879   7.898  0.00  0.00    +0.000 HD
ATOM     40  H   UNL     1      17.005  28.557   7.795  0.00  0.00    +0.000 HD
BRANCH  26  42
ATOM     41  O   UNL     1      12.509  30.380  13.497  0.00  0.00    +0.000 OA
ATOM     42  C   UNL     1      13.000  29.371  13.147  0.00  0.00    +0.000 C 
ENDBRANCH  26  42
ENDBRANCH  24  31
ENDBRANCH   1  24
TORSDOF 10
ENDMDL
MODEL 4
REMARK VINA RESULT:      -7.3      1.863      2.712
REMARK  Name = 135403648_CalciumFolinate.pdbqt.pdb
REMARK  10 active torsions:
REMARK  status: ('A' for Active; 'I' for Inactive)
REMARK    1  A    between atoms: N_1  and  C_3
REMARK    2  A    between atoms: N_1  and  C_24
REMARK    3  A    between atoms: C_6  and  C_11
REMARK    4  A    between atoms: CA_13  and  C_15
REMARK    5  A    between atoms: CA_13  and  CB_18
REMARK    6  A    between atoms: C_15  and  O_16
REMARK    7  A    between atoms: CG_19  and  CD_21
REMARK    8  A    between atoms: CD_21  and  OE1_22
REMARK    9  A    between atoms: C_24  and  C_32
REMARK   10  A    between atoms: N_27  and  C_37
REMARK                            x       y       z     vdW  Elec       q    Type
REMARK                         _______ _______ _______ _____ _____    ______ ____
ROOT
ATOM      1  N   UNL     1      -2.832  41.619  16.975  0.00  0.00    +0.000 N 
ATOM      2  H   UNL     1      -3.221  41.591  17.917  0.00  0.00    +0.000 HD
ENDROOT
BRANCH   1   3
ATOM      3  C   UNL     1      -3.833  41.753  15.990  0.00  0.00    +0.000 A 
ATOM      4  C   UNL     1      -4.931  42.582  16.243  0.00  0.00    +0.000 A 
ATOM      5  C   UNL     1      -3.863  40.951  14.843  0.00  0.00    +0.000 A 
ATOM      6  C   UNL     1      -5.986  41.894  14.183  0.00  0.00    +0.000 A 
ATOM      7  C   UNL     1      -5.991  42.666  15.342  0.00  0.00    +0.000 A 
ATOM      8  C   UNL     1      -4.919  41.030  13.938  0.00  0.00    +0.000 A 
BRANCH   6  11
ATOM      9  O   UNL     1      -7.631  43.031  12.977  0.00  0.00    +0.000 OA
ATOM     10  N   UNL     1      -7.426  40.758  12.584  0.00  0.00    +0.000 N 
ATOM     11  C   ACE A   0      -7.091  41.952  13.193  0.00  0.00    +0.000 C 
ATOM     12  H   UNL     1      -6.921  39.911  12.833  0.00  0.00    +0.000 HD
ATOM     13  CA  UNL     1      -8.414  40.553  11.636  0.00  0.00    +0.000 C 
BRANCH  13  15
ATOM     14  OXT UNL     1      -9.525  38.761  10.510  0.00  0.00    +0.000 OA
ATOM     15  C   UNL     1      -8.563  39.159  11.151  0.00  0.00    +0.000 C 
BRANCH  15  16
ATOM     16  O   UNL     1      -7.542  38.351  11.474  0.00  0.00    +0.000 OA
ATOM     17  H   UNL     1      -7.529  38.342  12.454  0.00  0.00    +0.000 HD
ENDBRANCH  15  16
ENDBRANCH  13  15
BRANCH  13  18
ATOM     18  CB  UNL     1      -9.233  41.608  11.155  0.00  0.00    +0.000 C 
ATOM     19  CG  UNL     1     -10.125  42.745  10.644  0.00  0.00    +0.000 C 
BRANCH  19  21
ATOM     20  OE2 UNL     1     -11.179  44.824  10.812  0.00  0.00    +0.000 OA
ATOM     21  CD  UNL     1     -10.970  43.803  10.181  0.00  0.00    +0.000 C 
BRANCH  21  22
ATOM     22  OE1 UNL     1     -11.541  43.567   8.986  0.00  0.00    +0.000 OA
ATOM     23  HE1 UNL     1     -10.845  43.825   8.348  0.00  0.00    +0.000 HD
ENDBRANCH  21  22
ENDBRANCH  19  21
ENDBRANCH  13  18
ENDBRANCH   6  11
ENDBRANCH   1   3
BRANCH   1  24
ATOM     24  C   UNL     1      -1.593  42.371  16.819  0.00  0.00    +0.000 C 
BRANCH  24  31
ATOM     25  O   UNL     1       3.550  41.528  16.104  0.00  0.00    +0.000 OA
ATOM     26  N   UNL     1       0.841  42.527  16.433  0.00  0.00    +0.000 N 
ATOM     27  N   UNL     1       0.793  45.430  16.717  0.00  0.00    +0.000 N 
ATOM     28  N   UNL     1       3.147  45.478  16.608  0.00  0.00    +0.000 NA
ATOM     29  N   UNL     1       4.411  43.590  16.170  0.00  0.00    +0.000 N 
ATOM     30  N   UNL     1       5.431  45.639  16.422  0.00  0.00    +0.000 N 
ATOM     31  C   UNL     1      -0.387  43.115  16.719  0.00  0.00    +0.000 C 
ATOM     32  C   UNL     1      -0.289  44.508  16.866  0.00  0.00    +0.000 C 
ATOM     33  C   UNL     1       2.000  43.351  16.399  0.00  0.00    +0.000 A 
ATOM     34  C   UNL     1       1.997  44.719  16.563  0.00  0.00    +0.000 A 
ATOM     35  C   UNL     1       3.354  42.735  16.208  0.00  0.00    +0.000 A 
ATOM     36  C   UNL     1       4.289  44.914  16.407  0.00  0.00    +0.000 A 
ATOM     37  H   UNL     1       0.923  46.228  17.331  0.00  0.00    +0.000 HD
ATOM     38  H   UNL     1       5.321  43.166  16.089  0.00  0.00    +0.000 HD
ATOM     39  H   UNL     1       5.251  46.639  16.395  0.00  0.00    +0.000 HD
ATOM     40  H   UNL     1       6.160  45.359  15.779  0.00  0.00    +0.000 HD
BRANCH  26  42
ATOM     41  O   UNL     1       0.894  40.021  16.129  0.00  0.00    +0.000 OA
ATOM     42  C   UNL     1       0.890  41.191  16.239  0.00  0.00    +0.000 C 
ENDBRANCH  26  42
ENDBRANCH  24  31
ENDBRANCH   1  24
TORSDOF 10
ENDMDL
MODEL 5
REMARK VINA RESULT:      -7.2     16.277     18.988
REMARK  Name = 135403648_CalciumFolinate.pdbqt.pdb
REMARK  10 active torsions:
REMARK  status: ('A' for Active; 'I' for Inactive)
REMARK    1  A    between atoms: N_1  and  C_3
REMARK    2  A    between atoms: N_1  and  C_24
REMARK    3  A    between atoms: C_6  and  C_11
REMARK    4  A    between atoms: CA_13  and  C_15
REMARK    5  A    between atoms: CA_13  and  CB_18
REMARK    6  A    between atoms: C_15  and  O_16
REMARK    7  A    between atoms: CG_19  and  CD_21
REMARK    8  A    between atoms: CD_21  and  OE1_22
REMARK    9  A    between atoms: C_24  and  C_32
REMARK   10  A    between atoms: N_27  and  C_37
REMARK                            x       y       z     vdW  Elec       q    Type
REMARK                         _______ _______ _______ _____ _____    ______ ____
ROOT
ATOM      1  N   UNL     1      11.283  27.266  15.562  0.00  0.00    +0.000 N 
ATOM      2  H   UNL     1      11.719  27.379  16.477  0.00  0.00    +0.000 HD
ENDROOT
BRANCH   1   3
ATOM      3  C   UNL     1      10.019  27.889  15.494  0.00  0.00    +0.000 A 
ATOM      4  C   UNL     1       9.773  29.017  16.282  0.00  0.00    +0.000 A 
ATOM      5  C   UNL     1       8.944  27.318  14.804  0.00  0.00    +0.000 A 
ATOM      6  C   UNL     1       7.458  29.050  15.595  0.00  0.00    +0.000 A 
ATOM      7  C   UNL     1       8.508  29.604  16.321  0.00  0.00    +0.000 A 
ATOM      8  C   UNL     1       7.678  27.899  14.838  0.00  0.00    +0.000 A 
BRANCH   6  11
ATOM      9  O   UNL     1       5.953  30.782  16.029  0.00  0.00    +0.000 OA
ATOM     10  N   UNL     1       5.080  28.838  15.120  0.00  0.00    +0.000 N 
ATOM     11  C   ACE A   0       6.096  29.641  15.603  0.00  0.00    +0.000 C 
ATOM     12  H   UNL     1       5.298  27.901  14.791  0.00  0.00    +0.000 HD
ATOM     13  CA  UNL     1       3.737  29.158  15.026  0.00  0.00    +0.000 C 
BRANCH  13  15
ATOM     14  OXT UNL     1       1.640  28.117  14.544  0.00  0.00    +0.000 OA
ATOM     15  C   UNL     1       2.860  28.099  14.469  0.00  0.00    +0.000 C 
BRANCH  15  16
ATOM     16  O   UNL     1       3.519  27.100  13.863  0.00  0.00    +0.000 OA
ATOM     17  H   UNL     1       3.617  27.392  12.933  0.00  0.00    +0.000 HD
ENDBRANCH  15  16
ENDBRANCH  13  15
BRANCH  13  18
ATOM     18  CB  UNL     1       3.227  30.418  15.434  0.00  0.00    +0.000 C 
ATOM     19  CG  UNL     1       2.679  31.776  15.887  0.00  0.00    +0.000 C 
BRANCH  19  21
ATOM     20  OE2 UNL     1       1.855  33.940  15.570  0.00  0.00    +0.000 OA
ATOM     21  CD  UNL     1       2.171  33.040  16.328  0.00  0.00    +0.000 C 
BRANCH  21  22
ATOM     22  OE1 UNL     1       2.091  33.162  17.665  0.00  0.00    +0.000 OA
ATOM     23  HE1 UNL     1       2.986  32.908  17.969  0.00  0.00    +0.000 HD
ENDBRANCH  21  22
ENDBRANCH  19  21
ENDBRANCH  13  18
ENDBRANCH   6  11
ENDBRANCH   1   3
BRANCH   1  24
ATOM     24  C   UNL     1      12.176  27.368  14.415  0.00  0.00    +0.000 C 
BRANCH  24  31
ATOM     25  O   UNL     1      15.463  24.413  11.561  0.00  0.00    +0.000 OA
ATOM     26  N   UNL     1      13.709  26.414  12.729  0.00  0.00    +0.000 N 
ATOM     27  N   UNL     1      13.913  28.969  11.336  0.00  0.00    +0.000 N 
ATOM     28  N   UNL     1      15.573  28.065   9.927  0.00  0.00    +0.000 NA
ATOM     29  N   UNL     1      16.175  25.832   9.986  0.00  0.00    +0.000 N 
ATOM     30  N   UNL     1      17.131  27.253   8.447  0.00  0.00    +0.000 N 
ATOM     31  C   UNL     1      13.008  27.487  13.269  0.00  0.00    +0.000 C 
ATOM     32  C   UNL     1      13.203  28.671  12.540  0.00  0.00    +0.000 C 
ATOM     33  C   UNL     1      14.552  26.646  11.608  0.00  0.00    +0.000 A 
ATOM     34  C   UNL     1      14.684  27.854  10.958  0.00  0.00    +0.000 A 
ATOM     35  C   UNL     1      15.409  25.537  11.072  0.00  0.00    +0.000 A 
ATOM     36  C   UNL     1      16.268  27.078   9.475  0.00  0.00    +0.000 A 
ATOM     37  H   UNL     1      14.438  29.829  11.206  0.00  0.00    +0.000 HD
ATOM     38  H   UNL     1      16.783  25.098   9.661  0.00  0.00    +0.000 HD
ATOM     39  H   UNL     1      16.997  28.146   7.981  0.00  0.00    +0.000 HD
ATOM     40  H   UNL     1      17.227  26.486   7.794  0.00  0.00    +0.000 HD
BRANCH  26  42
ATOM     41  O   UNL     1      13.521  24.176  13.884  0.00  0.00    +0.000 OA
ATOM     42  C   UNL     1      13.591  25.203  13.316  0.00  0.00    +0.000 C 
ENDBRANCH  26  42
ENDBRANCH  24  31
ENDBRANCH   1  24
TORSDOF 10
ENDMDL
MODEL 6
REMARK VINA RESULT:      -7.0      2.197      3.356
REMARK  Name = 135403648_CalciumFolinate.pdbqt.pdb
REMARK  10 active torsions:
REMARK  status: ('A' for Active; 'I' for Inactive)
REMARK    1  A    between atoms: N_1  and  C_3
REMARK    2  A    between atoms: N_1  and  C_24
REMARK    3  A    between atoms: C_6  and  C_11
REMARK    4  A    between atoms: CA_13  and  C_15
REMARK    5  A    between atoms: CA_13  and  CB_18
REMARK    6  A    between atoms: C_15  and  O_16
REMARK    7  A    between atoms: CG_19  and  CD_21
REMARK    8  A    between atoms: CD_21  and  OE1_22
REMARK    9  A    between atoms: C_24  and  C_32
REMARK   10  A    between atoms: N_27  and  C_37
REMARK                            x       y       z     vdW  Elec       q    Type
REMARK                         _______ _______ _______ _____ _____    ______ ____
ROOT
ATOM      1  N   UNL     1      -2.310  41.550  18.101  0.00  0.00    +0.000 N 
ATOM      2  H   UNL     1      -2.810  41.406  18.977  0.00  0.00    +0.000 HD
ENDROOT
BRANCH   1   3
ATOM      3  C   UNL     1      -3.179  41.577  16.990  0.00  0.00    +0.000 A 
ATOM      4  C   UNL     1      -3.227  40.470  16.136  0.00  0.00    +0.000 A 
ATOM      5  C   UNL     1      -3.862  42.737  16.606  0.00  0.00    +0.000 A 
ATOM      6  C   UNL     1      -4.704  41.640  14.625  0.00  0.00    +0.000 A 
ATOM      7  C   UNL     1      -3.995  40.493  14.972  0.00  0.00    +0.000 A 
ATOM      8  C   UNL     1      -4.631  42.767  15.445  0.00  0.00    +0.000 A 
BRANCH   6  11
ATOM      9  O   UNL     1      -6.418  40.874  13.238  0.00  0.00    +0.000 OA
ATOM     10  N   UNL     1      -5.242  42.735  12.520  0.00  0.00    +0.000 N 
ATOM     11  C   ACE A   0      -5.537  41.711  13.399  0.00  0.00    +0.000 C 
ATOM     12  H   UNL     1      -4.486  43.380  12.739  0.00  0.00    +0.000 HD
ATOM     13  CA  UNL     1      -5.869  43.009  11.317  0.00  0.00    +0.000 C 
BRANCH  13  15
ATOM     14  OXT UNL     1      -4.539  44.974  11.026  0.00  0.00    +0.000 OA
ATOM     15  C   UNL     1      -5.344  44.176  10.567  0.00  0.00    +0.000 C 
BRANCH  15  16
ATOM     16  O   UNL     1      -5.826  44.291   9.320  0.00  0.00    +0.000 OA
ATOM     17  H   UNL     1      -6.082  43.381   9.064  0.00  0.00    +0.000 HD
ENDBRANCH  15  16
ENDBRANCH  13  15
BRANCH  13  18
ATOM     18  CB  UNL     1      -6.948  42.226  10.829  0.00  0.00    +0.000 C 
ATOM     19  CG  UNL     1      -8.111  41.373  10.311  0.00  0.00    +0.000 C 
BRANCH  19  21
ATOM     20  OE2 UNL     1      -9.595  39.570  10.422  0.00  0.00    +0.000 OA
ATOM     21  CD  UNL     1      -9.197  40.566   9.843  0.00  0.00    +0.000 C 
BRANCH  21  22
ATOM     22  OE1 UNL     1      -9.736  40.989   8.686  0.00  0.00    +0.000 OA
ATOM     23  HE1 UNL     1     -10.291  41.747   8.959  0.00  0.00    +0.000 HD
ENDBRANCH  21  22
ENDBRANCH  19  21
ENDBRANCH  13  18
ENDBRANCH   6  11
ENDBRANCH   1   3
BRANCH   1  24
ATOM     24  C   UNL     1      -1.205  42.500  18.148  0.00  0.00    +0.000 C 
BRANCH  24  31
ATOM     25  O   UNL     1       3.451  43.324  15.841  0.00  0.00    +0.000 OA
ATOM     26  N   UNL     1       0.973  43.356  17.360  0.00  0.00    +0.000 N 
ATOM     27  N   UNL     1       0.966  45.478  19.362  0.00  0.00    +0.000 N 
ATOM     28  N   UNL     1       3.160  46.073  18.735  0.00  0.00    +0.000 NA
ATOM     29  N   UNL     1       4.250  45.098  16.943  0.00  0.00    +0.000 N 
ATOM     30  N   UNL     1       5.260  46.787  18.138  0.00  0.00    +0.000 N 
ATOM     31  C   UNL     1      -0.109  43.399  18.233  0.00  0.00    +0.000 C 
ATOM     32  C   UNL     1       0.006  44.436  19.172  0.00  0.00    +0.000 C 
ATOM     33  C   UNL     1       2.045  44.271  17.556  0.00  0.00    +0.000 A 
ATOM     34  C   UNL     1       2.070  45.258  18.518  0.00  0.00    +0.000 A 
ATOM     35  C   UNL     1       3.277  44.177  16.706  0.00  0.00    +0.000 A 
ATOM     36  C   UNL     1       4.186  45.982  17.961  0.00  0.00    +0.000 A 
ATOM     37  H   UNL     1       1.272  45.783  20.281  0.00  0.00    +0.000 HD
ATOM     38  H   UNL     1       5.093  45.000  16.401  0.00  0.00    +0.000 HD
ATOM     39  H   UNL     1       5.063  47.555  18.774  0.00  0.00    +0.000 HD
ATOM     40  H   UNL     1       5.749  47.088  17.305  0.00  0.00    +0.000 HD
BRANCH  26  42
ATOM     41  O   UNL     1       0.994  41.663  15.486  0.00  0.00    +0.000 OA
ATOM     42  C   UNL     1       0.981  42.422  16.384  0.00  0.00    +0.000 C 
ENDBRANCH  26  42
ENDBRANCH  24  31
ENDBRANCH   1  24
TORSDOF 10
ENDMDL
MODEL 7
REMARK VINA RESULT:      -7.0      3.520      5.070
REMARK  Name = 135403648_CalciumFolinate.pdbqt.pdb
REMARK  10 active torsions:
REMARK  status: ('A' for Active; 'I' for Inactive)
REMARK    1  A    between atoms: N_1  and  C_3
REMARK    2  A    between atoms: N_1  and  C_24
REMARK    3  A    between atoms: C_6  and  C_11
REMARK    4  A    between atoms: CA_13  and  C_15
REMARK    5  A    between atoms: CA_13  and  CB_18
REMARK    6  A    between atoms: C_15  and  O_16
REMARK    7  A    between atoms: CG_19  and  CD_21
REMARK    8  A    between atoms: CD_21  and  OE1_22
REMARK    9  A    between atoms: C_24  and  C_32
REMARK   10  A    between atoms: N_27  and  C_37
REMARK                            x       y       z     vdW  Elec       q    Type
REMARK                         _______ _______ _______ _____ _____    ______ ____
ROOT
ATOM      1  N   UNL     1      -5.834  42.021  18.751  0.00  0.00    +0.000 N 
ATOM      2  H   UNL     1      -6.142  42.809  19.320  0.00  0.00    +0.000 HD
ENDROOT
BRANCH   1   3
ATOM      3  C   UNL     1      -6.745  41.727  17.715  0.00  0.00    +0.000 A 
ATOM      4  C   UNL     1      -7.752  40.783  17.940  0.00  0.00    +0.000 A 
ATOM      5  C   UNL     1      -6.572  42.208  16.411  0.00  0.00    +0.000 A 
ATOM      6  C   UNL     1      -8.453  40.908  15.633  0.00  0.00    +0.000 A 
ATOM      7  C   UNL     1      -8.610  40.387  16.915  0.00  0.00    +0.000 A 
ATOM      8  C   UNL     1      -7.425  41.818  15.382  0.00  0.00    +0.000 A 
BRANCH   6  11
ATOM      9  O   UNL     1     -10.556  40.547  14.686  0.00  0.00    +0.000 OA
ATOM     10  N   UNL     1      -8.717  40.150  13.335  0.00  0.00    +0.000 N 
ATOM     11  C   ACE A   0      -9.343  40.520  14.510  0.00  0.00    +0.000 C 
ATOM     12  H   UNL     1      -7.701  40.155  13.288  0.00  0.00    +0.000 HD
ATOM     13  CA  UNL     1      -9.322  39.748  12.157  0.00  0.00    +0.000 C 
BRANCH  13  15
ATOM     14  OXT UNL     1      -8.301  40.057  10.019  0.00  0.00    +0.000 OA
ATOM     15  C   UNL     1      -8.404  39.402  11.046  0.00  0.00    +0.000 C 
BRANCH  15  16
ATOM     16  O   UNL     1      -7.677  38.294  11.256  0.00  0.00    +0.000 OA
ATOM     17  H   UNL     1      -7.060  38.531  11.979  0.00  0.00    +0.000 HD
ENDBRANCH  15  16
ENDBRANCH  13  15
BRANCH  13  18
ATOM     18  CB  UNL     1     -10.733  39.672  12.018  0.00  0.00    +0.000 C 
ATOM     19  CG  UNL     1     -12.256  39.578  11.871  0.00  0.00    +0.000 C 
BRANCH  19  21
ATOM     20  OE2 UNL     1     -14.335  40.151  10.970  0.00  0.00    +0.000 OA
ATOM     21  CD  UNL     1     -13.677  39.473  11.739  0.00  0.00    +0.000 C 
BRANCH  21  22
ATOM     22  OE1 UNL     1     -14.238  38.568  12.561  0.00  0.00    +0.000 OA
ATOM     23  HE1 UNL     1     -15.141  38.919  12.701  0.00  0.00    +0.000 HD
ENDBRANCH  21  22
ENDBRANCH  19  21
ENDBRANCH  13  18
ENDBRANCH   6  11
ENDBRANCH   1   3
BRANCH   1  24
ATOM     24  C   UNL     1      -4.406  41.961  18.465  0.00  0.00    +0.000 C 
BRANCH  24  31
ATOM     25  O   UNL     1      -1.223  39.451  15.112  0.00  0.00    +0.000 OA
ATOM     26  N   UNL     1      -2.533  41.140  17.082  0.00  0.00    +0.000 N 
ATOM     27  N   UNL     1      -0.607  42.744  18.574  0.00  0.00    +0.000 N 
ATOM     28  N   UNL     1       1.158  41.719  17.394  0.00  0.00    +0.000 NA
ATOM     29  N   UNL     1       0.797  40.250  15.644  0.00  0.00    +0.000 N 
ATOM     30  N   UNL     1       2.940  40.846  16.237  0.00  0.00    +0.000 N 
ATOM     31  C   UNL     1      -3.026  41.901  18.136  0.00  0.00    +0.000 C 
ATOM     32  C   UNL     1      -2.011  42.606  18.803  0.00  0.00    +0.000 C 
ATOM     33  C   UNL     1      -1.128  41.109  16.861  0.00  0.00    +0.000 A 
ATOM     34  C   UNL     1      -0.203  41.836  17.578  0.00  0.00    +0.000 A 
ATOM     35  C   UNL     1      -0.554  40.211  15.806  0.00  0.00    +0.000 A 
ATOM     36  C   UNL     1       1.609  40.960  16.455  0.00  0.00    +0.000 A 
ATOM     37  H   UNL     1       0.073  42.776  19.328  0.00  0.00    +0.000 HD
ATOM     38  H   UNL     1       1.180  39.609  14.967  0.00  0.00    +0.000 HD
ATOM     39  H   UNL     1       3.472  41.555  16.733  0.00  0.00    +0.000 HD
ATOM     40  H   UNL     1       3.239  40.737  15.277  0.00  0.00    +0.000 HD
BRANCH  26  42
ATOM     41  O   UNL     1      -4.203  39.871  15.675  0.00  0.00    +0.000 OA
ATOM     42  C   UNL     1      -3.405  40.430  16.333  0.00  0.00    +0.000 C 
ENDBRANCH  26  42
ENDBRANCH  24  31
ENDBRANCH   1  24
TORSDOF 10
ENDMDL
MODEL 8
REMARK VINA RESULT:      -6.9      2.692      3.638
REMARK  Name = 135403648_CalciumFolinate.pdbqt.pdb
REMARK  10 active torsions:
REMARK  status: ('A' for Active; 'I' for Inactive)
REMARK    1  A    between atoms: N_1  and  C_3
REMARK    2  A    between atoms: N_1  and  C_24
REMARK    3  A    between atoms: C_6  and  C_11
REMARK    4  A    between atoms: CA_13  and  C_15
REMARK    5  A    between atoms: CA_13  and  CB_18
REMARK    6  A    between atoms: C_15  and  O_16
REMARK    7  A    between atoms: CG_19  and  CD_21
REMARK    8  A    between atoms: CD_21  and  OE1_22
REMARK    9  A    between atoms: C_24  and  C_32
REMARK   10  A    between atoms: N_27  and  C_37
REMARK                            x       y       z     vdW  Elec       q    Type
REMARK                         _______ _______ _______ _____ _____    ______ ____
ROOT
ATOM      1  N   UNL     1      -2.490  41.857  18.928  0.00  0.00    +0.000 N 
ATOM      2  H   UNL     1      -2.849  42.115  19.847  0.00  0.00    +0.000 HD
ENDROOT
BRANCH   1   3
ATOM      3  C   UNL     1      -3.525  41.607  18.003  0.00  0.00    +0.000 A 
ATOM      4  C   UNL     1      -3.200  41.125  16.731  0.00  0.00    +0.000 A 
ATOM      5  C   UNL     1      -4.849  41.992  18.244  0.00  0.00    +0.000 A 
ATOM      6  C   UNL     1      -5.501  41.308  16.021  0.00  0.00    +0.000 A 
ATOM      7  C   UNL     1      -4.180  40.961  15.752  0.00  0.00    +0.000 A 
ATOM      8  C   UNL     1      -5.834  41.830  17.272  0.00  0.00    +0.000 A 
BRANCH   6  11
ATOM      9  O   UNL     1      -6.295  41.255  13.826  0.00  0.00    +0.000 OA
ATOM     10  N   UNL     1      -7.843  40.885  15.509  0.00  0.00    +0.000 N 
ATOM     11  C   ACE A   0      -6.579  41.147  15.014  0.00  0.00    +0.000 C 
ATOM     12  H   UNL     1      -7.981  40.818  16.515  0.00  0.00    +0.000 HD
ATOM     13  CA  UNL     1      -9.003  40.698  14.779  0.00  0.00    +0.000 C 
BRANCH  13  15
ATOM     14  OXT UNL     1     -11.288  40.067  15.086  0.00  0.00    +0.000 OA
ATOM     15  C   UNL     1     -10.228  40.434  15.572  0.00  0.00    +0.000 C 
BRANCH  15  16
ATOM     16  O   UNL     1     -10.084  40.631  16.891  0.00  0.00    +0.000 OA
ATOM     17  H   UNL     1      -9.127  40.505  17.061  0.00  0.00    +0.000 HD
ENDBRANCH  15  16
ENDBRANCH  13  15
BRANCH  13  18
ATOM     18  CB  UNL     1      -9.024  40.754  13.361  0.00  0.00    +0.000 C 
ATOM     19  CG  UNL     1      -9.049  40.825  11.830  0.00  0.00    +0.000 C 
BRANCH  19  21
ATOM     20  OE2 UNL     1      -9.794  40.223   9.698  0.00  0.00    +0.000 OA
ATOM     21  CD  UNL     1      -9.075  40.911  10.401  0.00  0.00    +0.000 C 
BRANCH  21  22
ATOM     22  OE1 UNL     1      -8.214  41.809   9.890  0.00  0.00    +0.000 OA
ATOM     23  HE1 UNL     1      -7.449  41.761  10.498  0.00  0.00    +0.000 HD
ENDBRANCH  21  22
ENDBRANCH  19  21
ENDBRANCH  13  18
ENDBRANCH   6  11
ENDBRANCH   1   3
BRANCH   1  24
ATOM     24  C   UNL     1      -1.310  42.585  18.478  0.00  0.00    +0.000 C 
BRANCH  24  31
ATOM     25  O   UNL     1       3.332  41.626  16.195  0.00  0.00    +0.000 OA
ATOM     26  N   UNL     1       0.909  42.688  17.399  0.00  0.00    +0.000 N 
ATOM     27  N   UNL     1       1.137  45.547  17.930  0.00  0.00    +0.000 N 
ATOM     28  N   UNL     1       3.355  45.517  17.130  0.00  0.00    +0.000 NA
ATOM     29  N   UNL     1       4.308  43.637  16.177  0.00  0.00    +0.000 N 
ATOM     30  N   UNL     1       5.489  45.610  16.287  0.00  0.00    +0.000 N 
ATOM     31  C   UNL     1      -0.140  43.289  18.086  0.00  0.00    +0.000 C 
ATOM     32  C   UNL     1       0.088  44.656  18.315  0.00  0.00    +0.000 C 
ATOM     33  C   UNL     1       2.059  43.467  17.092  0.00  0.00    +0.000 A 
ATOM     34  C   UNL     1       2.194  44.811  17.365  0.00  0.00    +0.000 A 
ATOM     35  C   UNL     1       3.254  42.822  16.455  0.00  0.00    +0.000 A 
ATOM     36  C   UNL     1       4.347  44.933  16.551  0.00  0.00    +0.000 A 
ATOM     37  H   UNL     1       1.493  46.274  18.544  0.00  0.00    +0.000 HD
ATOM     38  H   UNL     1       5.124  43.189  15.793  0.00  0.00    +0.000 HD
ATOM     39  H   UNL     1       5.375  46.614  16.400  0.00  0.00    +0.000 HD
ATOM     40  H   UNL     1       5.978  45.369  15.435  0.00  0.00    +0.000 HD
BRANCH  26  42
ATOM     41  O   UNL     1       0.797  40.230  16.829  0.00  0.00    +0.000 OA
ATOM     42  C   UNL     1       0.812  41.377  17.086  0.00  0.00    +0.000 C 
ENDBRANCH  26  42
ENDBRANCH  24  31
ENDBRANCH   1  24
TORSDOF 10
ENDMDL
MODEL 9
REMARK VINA RESULT:      -6.8      3.766      5.144
REMARK  Name = 135403648_CalciumFolinate.pdbqt.pdb
REMARK  10 active torsions:
REMARK  status: ('A' for Active; 'I' for Inactive)
REMARK    1  A    between atoms: N_1  and  C_3
REMARK    2  A    between atoms: N_1  and  C_24
REMARK    3  A    between atoms: C_6  and  C_11
REMARK    4  A    between atoms: CA_13  and  C_15
REMARK    5  A    between atoms: CA_13  and  CB_18
REMARK    6  A    between atoms: C_15  and  O_16
REMARK    7  A    between atoms: CG_19  and  CD_21
REMARK    8  A    between atoms: CD_21  and  OE1_22
REMARK    9  A    between atoms: C_24  and  C_32
REMARK   10  A    between atoms: N_27  and  C_37
REMARK                            x       y       z     vdW  Elec       q    Type
REMARK                         _______ _______ _______ _____ _____    ______ ____
ROOT
ATOM      1  N   UNL     1      -6.079  41.914  18.292  0.00  0.00    +0.000 N 
ATOM      2  H   UNL     1      -6.232  42.806  18.761  0.00  0.00    +0.000 HD
ENDROOT
BRANCH   1   3
ATOM      3  C   UNL     1      -7.095  41.623  17.357  0.00  0.00    +0.000 A 
ATOM      4  C   UNL     1      -8.135  40.765  17.727  0.00  0.00    +0.000 A 
ATOM      5  C   UNL     1      -7.008  42.015  16.016  0.00  0.00    +0.000 A 
ATOM      6  C   UNL     1      -9.028  40.804  15.484  0.00  0.00    +0.000 A 
ATOM      7  C   UNL     1      -9.104  40.371  16.805  0.00  0.00    +0.000 A 
ATOM      8  C   UNL     1      -7.972  41.625  15.089  0.00  0.00    +0.000 A 
BRANCH   6  11
ATOM      9  O   UNL     1     -11.220  40.389  14.792  0.00  0.00    +0.000 OA
ATOM     10  N   UNL     1      -9.550  40.101  13.213  0.00  0.00    +0.000 N 
ATOM     11  C   ACE A   0     -10.038  40.413  14.468  0.00  0.00    +0.000 C 
ATOM     12  H   UNL     1      -8.548  40.146  13.041  0.00  0.00    +0.000 HD
ATOM     13  CA  UNL     1     -10.283  39.709  12.106  0.00  0.00    +0.000 C 
BRANCH  13  15
ATOM     14  OXT UNL     1      -9.404  40.206   9.940  0.00  0.00    +0.000 OA
ATOM     15  C   UNL     1      -9.498  39.429  10.879  0.00  0.00    +0.000 C 
BRANCH  15  16
ATOM     16  O   UNL     1      -8.886  38.236  10.878  0.00  0.00    +0.000 OA
ATOM     17  H   UNL     1      -8.191  38.308  11.565  0.00  0.00    +0.000 HD
ENDBRANCH  15  16
ENDBRANCH  13  15
BRANCH  13  18
ATOM     18  CB  UNL     1     -11.696  39.583  12.139  0.00  0.00    +0.000 C 
ATOM     19  CG  UNL     1     -13.224  39.459  12.178  0.00  0.00    +0.000 C 
BRANCH  19  21
ATOM     20  OE2 UNL     1     -15.250  38.317  12.407  0.00  0.00    +0.000 OA
ATOM     21  CD  UNL     1     -14.651  39.361  12.219  0.00  0.00    +0.000 C 
BRANCH  21  22
ATOM     22  OE1 UNL     1     -15.287  40.528  12.009  0.00  0.00    +0.000 OA
ATOM     23  HE1 UNL     1     -16.080  40.265  11.500  0.00  0.00    +0.000 HD
ENDBRANCH  21  22
ENDBRANCH  19  21
ENDBRANCH  13  18
ENDBRANCH   6  11
ENDBRANCH   1   3
BRANCH   1  24
ATOM     24  C   UNL     1      -4.697  41.607  17.942  0.00  0.00    +0.000 C 
BRANCH  24  31
ATOM     25  O   UNL     1       0.195  43.410  18.648  0.00  0.00    +0.000 OA
ATOM     26  N   UNL     1      -2.258  41.978  18.027  0.00  0.00    +0.000 N 
ATOM     27  N   UNL     1      -1.758  39.702  16.272  0.00  0.00    +0.000 N 
ATOM     28  N   UNL     1       0.527  40.275  16.183  0.00  0.00    +0.000 NA
ATOM     29  N   UNL     1       1.433  41.979  17.457  0.00  0.00    +0.000 N 
ATOM     30  N   UNL     1       2.784  40.696  16.104  0.00  0.00    +0.000 N 
ATOM     31  C   UNL     1      -3.369  41.284  17.559  0.00  0.00    +0.000 C 
ATOM     32  C   UNL     1      -3.015  40.232  16.700  0.00  0.00    +0.000 C 
ATOM     33  C   UNL     1      -0.971  41.607  17.548  0.00  0.00    +0.000 A 
ATOM     34  C   UNL     1      -0.722  40.555  16.694  0.00  0.00    +0.000 A 
ATOM     35  C   UNL     1       0.236  42.407  17.942  0.00  0.00    +0.000 A 
ATOM     36  C   UNL     1       1.543  40.966  16.572  0.00  0.00    +0.000 A 
ATOM     37  H   UNL     1      -1.593  39.377  15.324  0.00  0.00    +0.000 HD
ATOM     38  H   UNL     1       2.232  42.548  17.687  0.00  0.00    +0.000 HD
ATOM     39  H   UNL     1       2.825  39.805  15.617  0.00  0.00    +0.000 HD
ATOM     40  H   UNL     1       3.553  40.821  16.749  0.00  0.00    +0.000 HD
BRANCH  26  42
ATOM     41  O   UNL     1      -2.658  43.850  19.674  0.00  0.00    +0.000 OA
ATOM     42  C   UNL     1      -2.448  43.002  18.887  0.00  0.00    +0.000 C 
ENDBRANCH  26  42
ENDBRANCH  24  31
ENDBRANCH   1  24
TORSDOF 10
ENDMDL
