MODEL 1
REMARK VINA RESULT:      -7.8      0.000      0.000
REMARK  Name = 135423438_Nintedanib.pdbqt.pdb
REMARK  9 active torsions:
REMARK  status: ('A' for Active; 'I' for Inactive)
REMARK    1  A    between atoms: N_1  and  C_22
REMARK    2  A    between atoms: C_2  and  C_4
REMARK    3  A    between atoms: C_2  and  C_37
REMARK    4  A    between atoms: C_7  and  O_13
REMARK    5  A    between atoms: C_10  and  C_16
REMARK    6  A    between atoms: C_16  and  O_17
REMARK    7  A    between atoms: C_19  and  N_26
REMARK    8  A    between atoms: C_27  and  C_29
REMARK    9  A    between atoms: C_29  and  N_30
REMARK                            x       y       z     vdW  Elec       q    Type
REMARK                         _______ _______ _______ _____ _____    ______ ____
ROOT
ATOM      1  N   UNL     1       9.567  33.925  15.392  0.00  0.00    +0.000 NA
ATOM      2  C   UNL     1       9.030  33.180  16.314  0.00  0.00    +0.000 C 
ENDROOT
BRANCH   2   4
ATOM      3  N   UNL     1       8.298  29.800  15.106  0.00  0.00    +0.000 N 
ATOM      4  C   UNL     1       8.477  31.891  15.879  0.00  0.00    +0.000 A 
ATOM      5  C   UNL     1       7.087  31.519  15.832  0.00  0.00    +0.000 A 
ATOM      6  C   UNL     1       7.012  30.213  15.350  0.00  0.00    +0.000 A 
ATOM      7  C   UNL     1       9.191  30.795  15.413  0.00  0.00    +0.000 A 
ATOM      8  C   UNL     1       5.884  32.175  16.164  0.00  0.00    +0.000 A 
ATOM      9  C   UNL     1       5.803  29.531  15.178  0.00  0.00    +0.000 A 
ATOM     10  C   UNL     1       4.625  30.212  15.513  0.00  0.00    +0.000 A 
ATOM     11  C   UNL     1       4.665  31.514  16.001  0.00  0.00    +0.000 A 
ATOM     12  H   UNL     1       8.539  28.888  14.745  0.00  0.00    +0.000 HD
BRANCH   7  13
ATOM     13  O   UNL     1      10.498  30.627  15.242  0.00  0.00    +0.000 OA
ATOM     14  H   UNL     1      11.000  31.279  15.761  0.00  0.00    +0.000 HD
ENDBRANCH   7  13
BRANCH  10  16
ATOM     15  O   UNL     1       2.254  30.200  15.420  0.00  0.00    +0.000 OA
ATOM     16  C   UNL     1       3.300  29.571  15.365  0.00  0.00    +0.000 C 
BRANCH  16  17
ATOM     17  O   UNL     1       3.482  28.234  15.169  0.00  0.00    +0.000 OA
ATOM     18  C   UNL     1       2.915  27.650  14.025  0.00  0.00    +0.000 C 
ENDBRANCH  16  17
ENDBRANCH  10  16
ENDBRANCH   2   4
BRANCH   1  22
ATOM     19  C   UNL     1      11.080  37.737  16.431  0.00  0.00    +0.000 A 
ATOM     20  C   UNL     1       9.832  37.587  15.821  0.00  0.00    +0.000 A 
ATOM     21  C   UNL     1      11.813  36.570  16.683  0.00  0.00    +0.000 A 
ATOM     22  C   UNL     1      10.091  35.185  15.703  0.00  0.00    +0.000 A 
ATOM     23  C   UNL     1       9.335  36.333  15.469  0.00  0.00    +0.000 A 
ATOM     24  C   UNL     1      11.326  35.311  16.337  0.00  0.00    +0.000 A 
BRANCH  19  26
ATOM     25  O   UNL     1       9.533  39.913  17.549  0.00  0.00    +0.000 OA
ATOM     26  N   UNL     1      11.603  39.036  16.790  0.00  0.00    +0.000 N 
ATOM     27  C   UNL     1      10.735  40.018  17.330  0.00  0.00    +0.000 C 
ATOM     28  C   UNL     1      13.036  39.222  16.545  0.00  0.00    +0.000 C 
BRANCH  27  29
ATOM     29  C   UNL     1      11.333  41.304  17.660  0.00  0.00    +0.000 C 
BRANCH  29  30
ATOM     30  N   UNL     1      11.917  42.596  18.017  0.00  0.00    +0.000 N 
ATOM     31  N   UNL     1      15.360  42.979  17.241  0.00  0.00    +0.000 N 
ATOM     32  C   UNL     1      13.154  42.308  18.795  0.00  0.00    +0.000 C 
ATOM     33  C   UNL     1      12.616  43.095  16.800  0.00  0.00    +0.000 C 
ATOM     34  C   UNL     1      14.663  42.473  18.454  0.00  0.00    +0.000 C 
ATOM     35  C   UNL     1      14.126  43.259  16.459  0.00  0.00    +0.000 C 
ATOM     36  C   UNL     1      16.006  41.833  16.615  0.00  0.00    +0.000 C 
ENDBRANCH  29  30
ENDBRANCH  27  29
ENDBRANCH  19  26
ENDBRANCH   1  22
BRANCH   2  37
ATOM     37  C   UNL     1       8.938  33.538  17.741  0.00  0.00    +0.000 A 
ATOM     38  C   UNL     1       9.851  32.997  18.644  0.00  0.00    +0.000 A 
ATOM     39  C   UNL     1       7.957  34.439  18.153  0.00  0.00    +0.000 A 
ATOM     40  C   UNL     1       9.773  33.362  19.985  0.00  0.00    +0.000 A 
ATOM     41  C   UNL     1       7.887  34.795  19.495  0.00  0.00    +0.000 A 
ATOM     42  C   UNL     1       8.793  34.258  20.410  0.00  0.00    +0.000 A 
ENDBRANCH   2  37
TORSDOF 9
ENDMDL
MODEL 2
REMARK VINA RESULT:      -7.7     15.295     17.153
REMARK  Name = 135423438_Nintedanib.pdbqt.pdb
REMARK  9 active torsions:
REMARK  status: ('A' for Active; 'I' for Inactive)
REMARK    1  A    between atoms: N_1  and  C_22
REMARK    2  A    between atoms: C_2  and  C_4
REMARK    3  A    between atoms: C_2  and  C_37
REMARK    4  A    between atoms: C_7  and  O_13
REMARK    5  A    between atoms: C_10  and  C_16
REMARK    6  A    between atoms: C_16  and  O_17
REMARK    7  A    between atoms: C_19  and  N_26
REMARK    8  A    between atoms: C_27  and  C_29
REMARK    9  A    between atoms: C_29  and  N_30
REMARK                            x       y       z     vdW  Elec       q    Type
REMARK                         _______ _______ _______ _____ _____    ______ ____
ROOT
ATOM      1  N   UNL     1      -6.356  40.528  13.291  0.00  0.00    +0.000 NA
ATOM      2  C   UNL     1      -7.080  41.366  12.608  0.00  0.00    +0.000 C 
ENDROOT
BRANCH   2   4
ATOM      3  N   UNL     1      -9.610  40.054  10.306  0.00  0.00    +0.000 N 
ATOM      4  C   UNL     1      -8.247  40.811  11.909  0.00  0.00    +0.000 A 
ATOM      5  C   UNL     1      -9.505  40.431  12.496  0.00  0.00    +0.000 A 
ATOM      6  C   UNL     1     -10.327  39.963  11.473  0.00  0.00    +0.000 A 
ATOM      7  C   UNL     1      -8.360  40.565  10.547  0.00  0.00    +0.000 A 
ATOM      8  C   UNL     1     -10.017  40.437  13.810  0.00  0.00    +0.000 A 
ATOM      9  C   UNL     1     -11.632  39.506  11.690  0.00  0.00    +0.000 A 
ATOM     10  C   UNL     1     -12.112  39.529  13.006  0.00  0.00    +0.000 A 
ATOM     11  C   UNL     1     -11.316  39.985  14.051  0.00  0.00    +0.000 A 
ATOM     12  H   UNL     1      -9.967  39.784   9.401  0.00  0.00    +0.000 HD
BRANCH   7  13
ATOM     13  O   UNL     1      -7.491  40.759   9.561  0.00  0.00    +0.000 OA
ATOM     14  H   UNL     1      -7.746  40.251   8.771  0.00  0.00    +0.000 HD
ENDBRANCH   7  13
BRANCH  10  16
ATOM     15  O   UNL     1     -13.771  37.880  13.409  0.00  0.00    +0.000 OA
ATOM     16  C   UNL     1     -13.478  39.064  13.332  0.00  0.00    +0.000 C 
BRANCH  16  17
ATOM     17  O   UNL     1     -14.277  40.154  13.513  0.00  0.00    +0.000 OA
ATOM     18  C   UNL     1     -15.151  40.158  14.613  0.00  0.00    +0.000 C 
ENDBRANCH  16  17
ENDBRANCH  10  16
ENDBRANCH   2   4
BRANCH   1  22
ATOM     19  C   UNL     1      -2.868  41.715  15.372  0.00  0.00    +0.000 A 
ATOM     20  C   UNL     1      -4.111  41.646  16.006  0.00  0.00    +0.000 A 
ATOM     21  C   UNL     1      -2.825  41.374  14.013  0.00  0.00    +0.000 A 
ATOM     22  C   UNL     1      -5.205  40.957  13.963  0.00  0.00    +0.000 A 
ATOM     23  C   UNL     1      -5.264  41.264  15.322  0.00  0.00    +0.000 A 
ATOM     24  C   UNL     1      -3.970  40.990  13.318  0.00  0.00    +0.000 A 
BRANCH  19  26
ATOM     25  O   UNL     1      -0.973  39.914  16.616  0.00  0.00    +0.000 OA
ATOM     26  N   UNL     1      -1.672  42.118  16.076  0.00  0.00    +0.000 N 
ATOM     27  C   UNL     1      -0.825  41.132  16.643  0.00  0.00    +0.000 C 
ATOM     28  C   UNL     1      -1.445  43.564  16.146  0.00  0.00    +0.000 C 
BRANCH  27  29
ATOM     29  C   UNL     1       0.357  41.615  17.343  0.00  0.00    +0.000 C 
BRANCH  29  30
ATOM     30  N   UNL     1       1.558  42.099  18.021  0.00  0.00    +0.000 N 
ATOM     31  N   UNL     1       3.213  44.811  16.438  0.00  0.00    +0.000 N 
ATOM     32  C   UNL     1       2.638  42.149  16.996  0.00  0.00    +0.000 C 
ATOM     33  C   UNL     1       1.405  43.574  18.152  0.00  0.00    +0.000 C 
ATOM     34  C   UNL     1       3.362  43.337  16.300  0.00  0.00    +0.000 C 
ATOM     35  C   UNL     1       2.129  44.764  17.455  0.00  0.00    +0.000 C 
ATOM     36  C   UNL     1       2.613  45.293  15.202  0.00  0.00    +0.000 C 
ENDBRANCH  29  30
ENDBRANCH  27  29
ENDBRANCH  19  26
ENDBRANCH   1  22
BRANCH   2  37
ATOM     37  C   UNL     1      -6.811  42.810  12.486  0.00  0.00    +0.000 A 
ATOM     38  C   UNL     1      -7.364  43.692  13.413  0.00  0.00    +0.000 A 
ATOM     39  C   UNL     1      -5.979  43.262  11.463  0.00  0.00    +0.000 A 
ATOM     40  C   UNL     1      -7.083  45.050  13.306  0.00  0.00    +0.000 A 
ATOM     41  C   UNL     1      -5.705  44.622  11.365  0.00  0.00    +0.000 A 
ATOM     42  C   UNL     1      -6.255  45.515  12.285  0.00  0.00    +0.000 A 
ENDBRANCH   2  37
TORSDOF 9
ENDMDL
MODEL 3
REMARK VINA RESULT:      -7.5     15.651     19.503
REMARK  Name = 135423438_Nintedanib.pdbqt.pdb
REMARK  9 active torsions:
REMARK  status: ('A' for Active; 'I' for Inactive)
REMARK    1  A    between atoms: N_1  and  C_22
REMARK    2  A    between atoms: C_2  and  C_4
REMARK    3  A    between atoms: C_2  and  C_37
REMARK    4  A    between atoms: C_7  and  O_13
REMARK    5  A    between atoms: C_10  and  C_16
REMARK    6  A    between atoms: C_16  and  O_17
REMARK    7  A    between atoms: C_19  and  N_26
REMARK    8  A    between atoms: C_27  and  C_29
REMARK    9  A    between atoms: C_29  and  N_30
REMARK                            x       y       z     vdW  Elec       q    Type
REMARK                         _______ _______ _______ _____ _____    ______ ____
ROOT
ATOM      1  N   UNL     1      -3.930  42.426  13.650  0.00  0.00    +0.000 NA
ATOM      2  C   UNL     1      -3.734  43.033  14.785  0.00  0.00    +0.000 C 
ENDROOT
BRANCH   2   4
ATOM      3  N   UNL     1      -0.484  44.622  15.364  0.00  0.00    +0.000 N 
ATOM      4  C   UNL     1      -2.351  43.421  15.094  0.00  0.00    +0.000 A 
ATOM      5  C   UNL     1      -1.292  42.557  15.545  0.00  0.00    +0.000 A 
ATOM      6  C   UNL     1      -0.147  43.336  15.705  0.00  0.00    +0.000 A 
ATOM      7  C   UNL     1      -1.802  44.692  14.989  0.00  0.00    +0.000 A 
ATOM      8  C   UNL     1      -1.206  41.181  15.839  0.00  0.00    +0.000 A 
ATOM      9  C   UNL     1       1.076  42.814  16.138  0.00  0.00    +0.000 A 
ATOM     10  C   UNL     1       1.130  41.443  16.418  0.00  0.00    +0.000 A 
ATOM     11  C   UNL     1       0.005  40.638  16.273  0.00  0.00    +0.000 A 
ATOM     12  H   UNL     1       0.160  45.399  15.384  0.00  0.00    +0.000 HD
BRANCH   7  13
ATOM     13  O   UNL     1      -2.350  45.839  14.600  0.00  0.00    +0.000 OA
ATOM     14  H   UNL     1      -3.288  45.878  14.857  0.00  0.00    +0.000 HD
ENDBRANCH   7  13
BRANCH  10  16
ATOM     15  O   UNL     1       2.587  40.534  18.056  0.00  0.00    +0.000 OA
ATOM     16  C   UNL     1       2.380  40.803  16.881  0.00  0.00    +0.000 C 
BRANCH  16  17
ATOM     17  O   UNL     1       3.189  40.594  15.804  0.00  0.00    +0.000 OA
ATOM     18  C   UNL     1       4.506  41.078  15.860  0.00  0.00    +0.000 C 
ENDBRANCH  16  17
ENDBRANCH  10  16
ENDBRANCH   2   4
BRANCH   1  22
ATOM     19  C   UNL     1      -7.835  41.145  12.645  0.00  0.00    +0.000 A 
ATOM     20  C   UNL     1      -7.039  40.430  13.543  0.00  0.00    +0.000 A 
ATOM     21  C   UNL     1      -7.285  42.307  12.088  0.00  0.00    +0.000 A 
ATOM     22  C   UNL     1      -5.208  41.988  13.284  0.00  0.00    +0.000 A 
ATOM     23  C   UNL     1      -5.749  40.844  13.870  0.00  0.00    +0.000 A 
ATOM     24  C   UNL     1      -5.996  42.732  12.407  0.00  0.00    +0.000 A 
BRANCH  19  26
ATOM     25  O   UNL     1      -8.495  39.279  10.532  0.00  0.00    +0.000 OA
ATOM     26  N   UNL     1      -9.171  40.715  12.297  0.00  0.00    +0.000 N 
ATOM     27  C   UNL     1      -9.358  39.793  11.237  0.00  0.00    +0.000 C 
ATOM     28  C   UNL     1     -10.246  41.302  13.103  0.00  0.00    +0.000 C 
BRANCH  27  29
ATOM     29  C   UNL     1     -10.733  39.413  10.940  0.00  0.00    +0.000 C 
BRANCH  29  30
ATOM     30  N   UNL     1     -12.119  39.062  10.641  0.00  0.00    +0.000 N 
ATOM     31  N   UNL     1     -14.561  40.575  12.727  0.00  0.00    +0.000 N 
ATOM     32  C   UNL     1     -12.741  38.632  11.924  0.00  0.00    +0.000 C 
ATOM     33  C   UNL     1     -12.867  40.345  10.532  0.00  0.00    +0.000 C 
ATOM     34  C   UNL     1     -13.809  39.296  12.840  0.00  0.00    +0.000 C 
ATOM     35  C   UNL     1     -13.935  41.010  11.449  0.00  0.00    +0.000 C 
ATOM     36  C   UNL     1     -14.053  41.458  13.768  0.00  0.00    +0.000 C 
ENDBRANCH  29  30
ENDBRANCH  27  29
ENDBRANCH  19  26
ENDBRANCH   1  22
BRANCH   2  37
ATOM     37  C   UNL     1      -4.787  43.349  15.767  0.00  0.00    +0.000 A 
ATOM     38  C   UNL     1      -5.569  44.489  15.592  0.00  0.00    +0.000 A 
ATOM     39  C   UNL     1      -5.002  42.479  16.835  0.00  0.00    +0.000 A 
ATOM     40  C   UNL     1      -6.578  44.765  16.509  0.00  0.00    +0.000 A 
ATOM     41  C   UNL     1      -6.014  42.765  17.746  0.00  0.00    +0.000 A 
ATOM     42  C   UNL     1      -6.800  43.905  17.584  0.00  0.00    +0.000 A 
ENDBRANCH   2  37
TORSDOF 9
ENDMDL
MODEL 4
REMARK VINA RESULT:      -7.5     19.229     21.939
REMARK  Name = 135423438_Nintedanib.pdbqt.pdb
REMARK  9 active torsions:
REMARK  status: ('A' for Active; 'I' for Inactive)
REMARK    1  A    between atoms: N_1  and  C_22
REMARK    2  A    between atoms: C_2  and  C_4
REMARK    3  A    between atoms: C_2  and  C_37
REMARK    4  A    between atoms: C_7  and  O_13
REMARK    5  A    between atoms: C_10  and  C_16
REMARK    6  A    between atoms: C_16  and  O_17
REMARK    7  A    between atoms: C_19  and  N_26
REMARK    8  A    between atoms: C_27  and  C_29
REMARK    9  A    between atoms: C_29  and  N_30
REMARK                            x       y       z     vdW  Elec       q    Type
REMARK                         _______ _______ _______ _____ _____    ______ ____
ROOT
ATOM      1  N   UNL     1     -10.266  40.961   9.122  0.00  0.00    +0.000 NA
ATOM      2  C   UNL     1     -11.523  40.725   9.366  0.00  0.00    +0.000 C 
ENDROOT
BRANCH   2   4
ATOM      3  N   UNL     1     -13.643  40.008   6.465  0.00  0.00    +0.000 N 
ATOM      4  C   UNL     1     -12.426  40.705   8.207  0.00  0.00    +0.000 A 
ATOM      5  C   UNL     1     -13.088  41.834   7.608  0.00  0.00    +0.000 A 
ATOM      6  C   UNL     1     -13.838  41.366   6.531  0.00  0.00    +0.000 A 
ATOM      7  C   UNL     1     -12.795  39.594   7.460  0.00  0.00    +0.000 A 
ATOM      8  C   UNL     1     -13.123  43.215   7.891  0.00  0.00    +0.000 A 
ATOM      9  C   UNL     1     -14.614  42.200   5.721  0.00  0.00    +0.000 A 
ATOM     10  C   UNL     1     -14.624  43.568   6.025  0.00  0.00    +0.000 A 
ATOM     11  C   UNL     1     -13.891  44.068   7.096  0.00  0.00    +0.000 A 
ATOM     12  H   UNL     1     -14.068  39.410   5.772  0.00  0.00    +0.000 HD
BRANCH   7  13
ATOM     13  O   UNL     1     -12.447  38.318   7.584  0.00  0.00    +0.000 OA
ATOM     14  H   UNL     1     -11.483  38.213   7.497  0.00  0.00    +0.000 HD
ENDBRANCH   7  13
BRANCH  10  16
ATOM     15  O   UNL     1     -15.470  45.719   5.487  0.00  0.00    +0.000 OA
ATOM     16  C   UNL     1     -15.417  44.526   5.224  0.00  0.00    +0.000 C 
BRANCH  16  17
ATOM     17  O   UNL     1     -16.026  43.848   4.211  0.00  0.00    +0.000 OA
ATOM     18  C   UNL     1     -16.567  44.591   3.149  0.00  0.00    +0.000 C 
ENDBRANCH  16  17
ENDBRANCH  10  16
ENDBRANCH   2   4
BRANCH   1  22
ATOM     19  C   UNL     1      -7.542  41.194  12.351  0.00  0.00    +0.000 A 
ATOM     20  C   UNL     1      -8.131  42.337  11.807  0.00  0.00    +0.000 A 
ATOM     21  C   UNL     1      -7.891  39.962  11.780  0.00  0.00    +0.000 A 
ATOM     22  C   UNL     1      -9.335  41.033  10.164  0.00  0.00    +0.000 A 
ATOM     23  C   UNL     1      -9.023  42.265  10.737  0.00  0.00    +0.000 A 
ATOM     24  C   UNL     1      -8.781  39.877  10.711  0.00  0.00    +0.000 A 
BRANCH  19  26
ATOM     25  O   UNL     1      -4.664  41.388  12.104  0.00  0.00    +0.000 OA
ATOM     26  N   UNL     1      -6.612  41.265  13.455  0.00  0.00    +0.000 N 
ATOM     27  C   UNL     1      -5.221  41.357  13.197  0.00  0.00    +0.000 C 
ATOM     28  C   UNL     1      -7.220  41.225  14.788  0.00  0.00    +0.000 C 
BRANCH  27  29
ATOM     29  C   UNL     1      -4.346  41.416  14.360  0.00  0.00    +0.000 C 
BRANCH  29  30
ATOM     30  N   UNL     1      -3.468  41.506  15.524  0.00  0.00    +0.000 N 
ATOM     31  N   UNL     1      -1.000  38.966  15.772  0.00  0.00    +0.000 N 
ATOM     32  C   UNL     1      -3.477  40.166  16.174  0.00  0.00    +0.000 C 
ATOM     33  C   UNL     1      -2.073  41.417  15.009  0.00  0.00    +0.000 C 
ATOM     34  C   UNL     1      -2.396  39.051  16.280  0.00  0.00    +0.000 C 
ATOM     35  C   UNL     1      -0.992  40.301  15.115  0.00  0.00    +0.000 C 
ATOM     36  C   UNL     1      -0.998  37.971  14.708  0.00  0.00    +0.000 C 
ENDBRANCH  29  30
ENDBRANCH  27  29
ENDBRANCH  19  26
ENDBRANCH   1  22
BRANCH   2  37
ATOM     37  C   UNL     1     -12.093  40.486  10.704  0.00  0.00    +0.000 A 
ATOM     38  C   UNL     1     -12.534  41.566  11.465  0.00  0.00    +0.000 A 
ATOM     39  C   UNL     1     -12.210  39.176  11.167  0.00  0.00    +0.000 A 
ATOM     40  C   UNL     1     -13.095  41.329  12.716  0.00  0.00    +0.000 A 
ATOM     41  C   UNL     1     -12.772  38.950  12.420  0.00  0.00    +0.000 A 
ATOM     42  C   UNL     1     -13.214  40.024  13.192  0.00  0.00    +0.000 A 
ENDBRANCH   2  37
TORSDOF 9
ENDMDL
MODEL 5
REMARK VINA RESULT:      -7.5     25.254     29.604
REMARK  Name = 135423438_Nintedanib.pdbqt.pdb
REMARK  9 active torsions:
REMARK  status: ('A' for Active; 'I' for Inactive)
REMARK    1  A    between atoms: N_1  and  C_22
REMARK    2  A    between atoms: C_2  and  C_4
REMARK    3  A    between atoms: C_2  and  C_37
REMARK    4  A    between atoms: C_7  and  O_13
REMARK    5  A    between atoms: C_10  and  C_16
REMARK    6  A    between atoms: C_16  and  O_17
REMARK    7  A    between atoms: C_19  and  N_26
REMARK    8  A    between atoms: C_27  and  C_29
REMARK    9  A    between atoms: C_29  and  N_30
REMARK                            x       y       z     vdW  Elec       q    Type
REMARK                         _______ _______ _______ _____ _____    ______ ____
ROOT
ATOM      1  N   UNL     1     -17.954  28.596  23.214  0.00  0.00    +0.000 NA
ATOM      2  C   UNL     1     -16.766  29.128  23.249  0.00  0.00    +0.000 C 
ENDROOT
BRANCH   2   4
ATOM      3  N   UNL     1     -16.279  30.526  26.600  0.00  0.00    +0.000 N 
ATOM      4  C   UNL     1     -16.414  29.872  24.465  0.00  0.00    +0.000 A 
ATOM      5  C   UNL     1     -15.592  31.051  24.550  0.00  0.00    +0.000 A 
ATOM      6  C   UNL     1     -15.527  31.429  25.889  0.00  0.00    +0.000 A 
ATOM      7  C   UNL     1     -16.823  29.586  25.761  0.00  0.00    +0.000 A 
ATOM      8  C   UNL     1     -14.891  31.828  23.605  0.00  0.00    +0.000 A 
ATOM      9  C   UNL     1     -14.805  32.541  26.335  0.00  0.00    +0.000 A 
ATOM     10  C   UNL     1     -14.122  33.295  25.371  0.00  0.00    +0.000 A 
ATOM     11  C   UNL     1     -14.163  32.942  24.026  0.00  0.00    +0.000 A 
ATOM     12  H   UNL     1     -16.409  30.563  27.600  0.00  0.00    +0.000 HD
BRANCH   7  13
ATOM     13  O   UNL     1     -17.605  28.617  26.225  0.00  0.00    +0.000 OA
ATOM     14  H   UNL     1     -17.222  27.743  26.031  0.00  0.00    +0.000 HD
ENDBRANCH   7  13
BRANCH  10  16
ATOM     15  O   UNL     1     -12.615  34.515  26.738  0.00  0.00    +0.000 OA
ATOM     16  C   UNL     1     -13.332  34.487  25.748  0.00  0.00    +0.000 C 
BRANCH  16  17
ATOM     17  O   UNL     1     -13.557  35.468  24.829  0.00  0.00    +0.000 OA
ATOM     18  C   UNL     1     -14.493  36.467  25.142  0.00  0.00    +0.000 C 
ENDBRANCH  16  17
ENDBRANCH  10  16
ENDBRANCH   2   4
BRANCH   1  22
ATOM     19  C   UNL     1     -19.344  26.409  19.869  0.00  0.00    +0.000 A 
ATOM     20  C   UNL     1     -18.289  25.946  20.659  0.00  0.00    +0.000 A 
ATOM     21  C   UNL     1     -19.923  27.633  20.231  0.00  0.00    +0.000 A 
ATOM     22  C   UNL     1     -18.394  27.897  22.084  0.00  0.00    +0.000 A 
ATOM     23  C   UNL     1     -17.823  26.668  21.757  0.00  0.00    +0.000 A 
ATOM     24  C   UNL     1     -19.466  28.364  21.326  0.00  0.00    +0.000 A 
BRANCH  19  26
ATOM     25  O   UNL     1     -18.743  27.020  17.104  0.00  0.00    +0.000 OA
ATOM     26  N   UNL     1     -19.826  25.667  18.726  0.00  0.00    +0.000 N 
ATOM     27  C   UNL     1     -19.457  26.073  17.419  0.00  0.00    +0.000 C 
ATOM     28  C   UNL     1     -20.690  24.526  19.041  0.00  0.00    +0.000 C 
BRANCH  27  29
ATOM     29  C   UNL     1     -19.988  25.281  16.318  0.00  0.00    +0.000 C 
BRANCH  29  30
ATOM     30  N   UNL     1     -20.495  24.470  15.213  0.00  0.00    +0.000 N 
ATOM     31  N   UNL     1     -18.022  23.099  13.067  0.00  0.00    +0.000 N 
ATOM     32  C   UNL     1     -19.854  24.985  13.972  0.00  0.00    +0.000 C 
ATOM     33  C   UNL     1     -19.743  23.185  15.252  0.00  0.00    +0.000 C 
ATOM     34  C   UNL     1     -18.768  24.386  13.032  0.00  0.00    +0.000 C 
ATOM     35  C   UNL     1     -18.656  22.586  14.312  0.00  0.00    +0.000 C 
ATOM     36  C   UNL     1     -16.640  23.420  13.397  0.00  0.00    +0.000 C 
ENDBRANCH  29  30
ENDBRANCH  27  29
ENDBRANCH  19  26
ENDBRANCH   1  22
BRANCH   2  37
ATOM     37  C   UNL     1     -15.770  29.041  22.166  0.00  0.00    +0.000 A 
ATOM     38  C   UNL     1     -14.639  28.245  22.337  0.00  0.00    +0.000 A 
ATOM     39  C   UNL     1     -15.998  29.731  20.976  0.00  0.00    +0.000 A 
ATOM     40  C   UNL     1     -13.717  28.147  21.300  0.00  0.00    +0.000 A 
ATOM     41  C   UNL     1     -15.069  29.626  19.946  0.00  0.00    +0.000 A 
ATOM     42  C   UNL     1     -13.932  28.836  20.107  0.00  0.00    +0.000 A 
ENDBRANCH   2  37
TORSDOF 9
ENDMDL
MODEL 6
REMARK VINA RESULT:      -7.3     15.749     17.523
REMARK  Name = 135423438_Nintedanib.pdbqt.pdb
REMARK  9 active torsions:
REMARK  status: ('A' for Active; 'I' for Inactive)
REMARK    1  A    between atoms: N_1  and  C_22
REMARK    2  A    between atoms: C_2  and  C_4
REMARK    3  A    between atoms: C_2  and  C_37
REMARK    4  A    between atoms: C_7  and  O_13
REMARK    5  A    between atoms: C_10  and  C_16
REMARK    6  A    between atoms: C_16  and  O_17
REMARK    7  A    between atoms: C_19  and  N_26
REMARK    8  A    between atoms: C_27  and  C_29
REMARK    9  A    between atoms: C_29  and  N_30
REMARK                            x       y       z     vdW  Elec       q    Type
REMARK                         _______ _______ _______ _____ _____    ______ ____
ROOT
ATOM      1  N   UNL     1      -6.075  41.120  12.508  0.00  0.00    +0.000 NA
ATOM      2  C   UNL     1      -7.310  41.216  12.908  0.00  0.00    +0.000 C 
ENDROOT
BRANCH   2   4
ATOM      3  N   UNL     1      -9.641  39.899  10.408  0.00  0.00    +0.000 N 
ATOM      4  C   UNL     1      -8.349  40.940  11.907  0.00  0.00    +0.000 A 
ATOM      5  C   UNL     1      -9.306  41.874  11.374  0.00  0.00    +0.000 A 
ATOM      6  C   UNL     1     -10.094  41.194  10.448  0.00  0.00    +0.000 A 
ATOM      7  C   UNL     1      -8.591  39.728  11.274  0.00  0.00    +0.000 A 
ATOM      8  C   UNL     1      -9.577  43.239  11.603  0.00  0.00    +0.000 A 
ATOM      9  C   UNL     1     -11.133  41.803   9.737  0.00  0.00    +0.000 A 
ATOM     10  C   UNL     1     -11.374  43.161   9.983  0.00  0.00    +0.000 A 
ATOM     11  C   UNL     1     -10.609  43.868  10.904  0.00  0.00    +0.000 A 
ATOM     12  H   UNL     1     -10.033  39.182   9.815  0.00  0.00    +0.000 HD
BRANCH   7  13
ATOM     13  O   UNL     1      -7.978  38.555  11.393  0.00  0.00    +0.000 OA
ATOM     14  H   UNL     1      -7.086  38.669  11.768  0.00  0.00    +0.000 HD
ENDBRANCH   7  13
BRANCH  10  16
ATOM     15  O   UNL     1     -12.374  44.201   8.099  0.00  0.00    +0.000 OA
ATOM     16  C   UNL     1     -12.452  43.888   9.278  0.00  0.00    +0.000 C 
BRANCH  16  17
ATOM     17  O   UNL     1     -13.470  44.117  10.156  0.00  0.00    +0.000 OA
ATOM     18  C   UNL     1     -14.185  45.321  10.042  0.00  0.00    +0.000 C 
ENDBRANCH  16  17
ENDBRANCH  10  16
ENDBRANCH   2   4
BRANCH   1  22
ATOM     19  C   UNL     1      -2.799  41.897  15.070  0.00  0.00    +0.000 A 
ATOM     20  C   UNL     1      -3.454  40.664  15.075  0.00  0.00    +0.000 A 
ATOM     21  C   UNL     1      -3.273  42.870  14.180  0.00  0.00    +0.000 A 
ATOM     22  C   UNL     1      -5.015  41.397  13.379  0.00  0.00    +0.000 A 
ATOM     23  C   UNL     1      -4.540  40.407  14.238  0.00  0.00    +0.000 A 
ATOM     24  C   UNL     1      -4.357  42.625  13.338  0.00  0.00    +0.000 A 
BRANCH  19  26
ATOM     25  O   UNL     1      -0.013  41.515  14.381  0.00  0.00    +0.000 OA
ATOM     26  N   UNL     1      -1.678  42.170  15.941  0.00  0.00    +0.000 N 
ATOM     27  C   UNL     1      -0.358  41.938  15.480  0.00  0.00    +0.000 C 
ATOM     28  C   UNL     1      -2.029  42.673  17.272  0.00  0.00    +0.000 C 
BRANCH  27  29
ATOM     29  C   UNL     1       0.719  42.228  16.417  0.00  0.00    +0.000 C 
BRANCH  29  30
ATOM     30  N   UNL     1       1.787  42.500  17.377  0.00  0.00    +0.000 N 
ATOM     31  N   UNL     1       4.246  44.825  16.304  0.00  0.00    +0.000 N 
ATOM     32  C   UNL     1       3.074  42.327  16.649  0.00  0.00    +0.000 C 
ATOM     33  C   UNL     1       1.879  43.982  17.499  0.00  0.00    +0.000 C 
ATOM     34  C   UNL     1       4.151  43.345  16.176  0.00  0.00    +0.000 C 
ATOM     35  C   UNL     1       2.956  45.001  17.025  0.00  0.00    +0.000 C 
ATOM     36  C   UNL     1       4.064  45.377  14.969  0.00  0.00    +0.000 C 
ENDBRANCH  29  30
ENDBRANCH  27  29
ENDBRANCH  19  26
ENDBRANCH   1  22
BRANCH   2  37
ATOM     37  C   UNL     1      -7.729  41.582  14.272  0.00  0.00    +0.000 A 
ATOM     38  C   UNL     1      -8.213  40.595  15.129  0.00  0.00    +0.000 A 
ATOM     39  C   UNL     1      -7.601  42.906  14.690  0.00  0.00    +0.000 A 
ATOM     40  C   UNL     1      -8.581  40.945  16.425  0.00  0.00    +0.000 A 
ATOM     41  C   UNL     1      -7.973  43.244  15.987  0.00  0.00    +0.000 A 
ATOM     42  C   UNL     1      -8.462  42.266  16.853  0.00  0.00    +0.000 A 
ENDBRANCH   2  37
TORSDOF 9
ENDMDL
MODEL 7
REMARK VINA RESULT:      -7.3      2.347      3.826
REMARK  Name = 135423438_Nintedanib.pdbqt.pdb
REMARK  9 active torsions:
REMARK  status: ('A' for Active; 'I' for Inactive)
REMARK    1  A    between atoms: N_1  and  C_22
REMARK    2  A    between atoms: C_2  and  C_4
REMARK    3  A    between atoms: C_2  and  C_37
REMARK    4  A    between atoms: C_7  and  O_13
REMARK    5  A    between atoms: C_10  and  C_16
REMARK    6  A    between atoms: C_16  and  O_17
REMARK    7  A    between atoms: C_19  and  N_26
REMARK    8  A    between atoms: C_27  and  C_29
REMARK    9  A    between atoms: C_29  and  N_30
REMARK                            x       y       z     vdW  Elec       q    Type
REMARK                         _______ _______ _______ _____ _____    ______ ____
ROOT
ATOM      1  N   UNL     1       9.816  34.515  17.668  0.00  0.00    +0.000 NA
ATOM      2  C   UNL     1       9.180  34.533  16.533  0.00  0.00    +0.000 C 
ENDROOT
BRANCH   2   4
ATOM      3  N   UNL     1       8.662  31.234  15.025  0.00  0.00    +0.000 N 
ATOM      4  C   UNL     1       8.716  33.237  16.019  0.00  0.00    +0.000 A 
ATOM      5  C   UNL     1       7.385  32.698  16.110  0.00  0.00    +0.000 A 
ATOM      6  C   UNL     1       7.387  31.452  15.485  0.00  0.00    +0.000 A 
ATOM      7  C   UNL     1       9.473  32.297  15.332  0.00  0.00    +0.000 A 
ATOM      8  C   UNL     1       6.177  33.155  16.675  0.00  0.00    +0.000 A 
ATOM      9  C   UNL     1       6.249  30.644  15.390  0.00  0.00    +0.000 A 
ATOM     10  C   UNL     1       5.064  31.129  15.959  0.00  0.00    +0.000 A 
ATOM     11  C   UNL     1       5.029  32.365  16.593  0.00  0.00    +0.000 A 
ATOM     12  H   UNL     1       8.948  30.405  14.526  0.00  0.00    +0.000 HD
BRANCH   7  13
ATOM     13  O   UNL     1      10.752  32.317  14.971  0.00  0.00    +0.000 OA
ATOM     14  H   UNL     1      10.960  33.134  14.484  0.00  0.00    +0.000 HD
ENDBRANCH   7  13
BRANCH  10  16
ATOM     15  O   UNL     1       3.774  29.146  16.156  0.00  0.00    +0.000 OA
ATOM     16  C   UNL     1       3.812  30.343  15.908  0.00  0.00    +0.000 C 
BRANCH  16  17
ATOM     17  O   UNL     1       2.790  31.173  15.554  0.00  0.00    +0.000 OA
ATOM     18  C   UNL     1       1.529  30.956  16.133  0.00  0.00    +0.000 C 
ENDBRANCH  16  17
ENDBRANCH  10  16
ENDBRANCH   2   4
BRANCH   1  22
ATOM     19  C   UNL     1      11.357  38.132  19.233  0.00  0.00    +0.000 A 
ATOM     20  C   UNL     1      12.176  37.214  18.571  0.00  0.00    +0.000 A 
ATOM     21  C   UNL     1      10.001  37.804  19.359  0.00  0.00    +0.000 A 
ATOM     22  C   UNL     1      10.326  35.696  18.222  0.00  0.00    +0.000 A 
ATOM     23  C   UNL     1      11.673  36.017  18.062  0.00  0.00    +0.000 A 
ATOM     24  C   UNL     1       9.486  36.611  18.854  0.00  0.00    +0.000 A 
BRANCH  19  26
ATOM     25  O   UNL     1      11.329  40.686  17.871  0.00  0.00    +0.000 OA
ATOM     26  N   UNL     1      11.876  39.370  19.769  0.00  0.00    +0.000 N 
ATOM     27  C   UNL     1      11.801  40.556  18.996  0.00  0.00    +0.000 C 
ATOM     28  C   UNL     1      12.459  39.275  21.110  0.00  0.00    +0.000 C 
BRANCH  27  29
ATOM     29  C   UNL     1      12.351  41.762  19.599  0.00  0.00    +0.000 C 
BRANCH  29  30
ATOM     30  N   UNL     1      12.912  42.981  20.177  0.00  0.00    +0.000 N 
ATOM     31  N   UNL     1      10.658  44.932  22.105  0.00  0.00    +0.000 N 
ATOM     32  C   UNL     1      11.991  44.093  19.813  0.00  0.00    +0.000 C 
ATOM     33  C   UNL     1      12.563  42.962  21.625  0.00  0.00    +0.000 C 
ATOM     34  C   UNL     1      11.001  44.946  20.657  0.00  0.00    +0.000 C 
ATOM     35  C   UNL     1      11.572  43.816  22.469  0.00  0.00    +0.000 C 
ATOM     36  C   UNL     1       9.300  44.418  22.213  0.00  0.00    +0.000 C 
ENDBRANCH  29  30
ENDBRANCH  27  29
ENDBRANCH  19  26
ENDBRANCH   1  22
BRANCH   2  37
ATOM     37  C   UNL     1       8.901  35.743  15.740  0.00  0.00    +0.000 A 
ATOM     38  C   UNL     1       7.621  36.294  15.755  0.00  0.00    +0.000 A 
ATOM     39  C   UNL     1       9.935  36.333  15.015  0.00  0.00    +0.000 A 
ATOM     40  C   UNL     1       7.373  37.452  15.024  0.00  0.00    +0.000 A 
ATOM     41  C   UNL     1       9.677  37.490  14.288  0.00  0.00    +0.000 A 
ATOM     42  C   UNL     1       8.398  38.049  14.292  0.00  0.00    +0.000 A 
ENDBRANCH   2  37
TORSDOF 9
ENDMDL
MODEL 8
REMARK VINA RESULT:      -7.1     19.196     22.070
REMARK  Name = 135423438_Nintedanib.pdbqt.pdb
REMARK  9 active torsions:
REMARK  status: ('A' for Active; 'I' for Inactive)
REMARK    1  A    between atoms: N_1  and  C_22
REMARK    2  A    between atoms: C_2  and  C_4
REMARK    3  A    between atoms: C_2  and  C_37
REMARK    4  A    between atoms: C_7  and  O_13
REMARK    5  A    between atoms: C_10  and  C_16
REMARK    6  A    between atoms: C_16  and  O_17
REMARK    7  A    between atoms: C_19  and  N_26
REMARK    8  A    between atoms: C_27  and  C_29
REMARK    9  A    between atoms: C_29  and  N_30
REMARK                            x       y       z     vdW  Elec       q    Type
REMARK                         _______ _______ _______ _____ _____    ______ ____
ROOT
ATOM      1  N   UNL     1     -11.093  40.051   9.345  0.00  0.00    +0.000 NA
ATOM      2  C   UNL     1     -12.321  39.820   9.711  0.00  0.00    +0.000 C 
ENDROOT
BRANCH   2   4
ATOM      3  N   UNL     1     -14.216  39.305   6.619  0.00  0.00    +0.000 N 
ATOM      4  C   UNL     1     -13.297  39.596   8.637  0.00  0.00    +0.000 A 
ATOM      5  C   UNL     1     -14.720  39.435   8.781  0.00  0.00    +0.000 A 
ATOM      6  C   UNL     1     -15.259  39.254   7.509  0.00  0.00    +0.000 A 
ATOM      7  C   UNL     1     -13.030  39.514   7.276  0.00  0.00    +0.000 A 
ATOM      8  C   UNL     1     -15.599  39.421   9.884  0.00  0.00    +0.000 A 
ATOM      9  C   UNL     1     -16.626  39.065   7.279  0.00  0.00    +0.000 A 
ATOM     10  C   UNL     1     -17.473  39.060   8.396  0.00  0.00    +0.000 A 
ATOM     11  C   UNL     1     -16.967  39.233   9.679  0.00  0.00    +0.000 A 
ATOM     12  H   UNL     1     -14.321  39.206   5.620  0.00  0.00    +0.000 HD
BRANCH   7  13
ATOM     13  O   UNL     1     -11.882  39.615   6.615  0.00  0.00    +0.000 OA
ATOM     14  H   UNL     1     -11.241  38.956   6.933  0.00  0.00    +0.000 HD
ENDBRANCH   7  13
BRANCH  10  16
ATOM     15  O   UNL     1     -19.450  38.534   7.193  0.00  0.00    +0.000 OA
ATOM     16  C   UNL     1     -18.932  38.866   8.250  0.00  0.00    +0.000 C 
BRANCH  16  17
ATOM     17  O   UNL     1     -19.528  39.116   9.450  0.00  0.00    +0.000 OA
ATOM     18  C   UNL     1     -20.680  39.919   9.463  0.00  0.00    +0.000 C 
ENDBRANCH  16  17
ENDBRANCH  10  16
ENDBRANCH   2   4
BRANCH   1  22
ATOM     19  C   UNL     1      -8.172  40.849  12.300  0.00  0.00    +0.000 A 
ATOM     20  C   UNL     1      -8.907  41.876  11.701  0.00  0.00    +0.000 A 
ATOM     21  C   UNL     1      -8.443  39.541  11.879  0.00  0.00    +0.000 A 
ATOM     22  C   UNL     1     -10.098  40.311  10.295  0.00  0.00    +0.000 A 
ATOM     23  C   UNL     1      -9.864  41.617  10.721  0.00  0.00    +0.000 A 
ATOM     24  C   UNL     1      -9.398  39.269  10.900  0.00  0.00    +0.000 A 
BRANCH  19  26
ATOM     25  O   UNL     1      -5.365  41.343  11.792  0.00  0.00    +0.000 OA
ATOM     26  N   UNL     1      -7.174  41.114  13.312  0.00  0.00    +0.000 N 
ATOM     27  C   UNL     1      -5.828  41.339  12.928  0.00  0.00    +0.000 C 
ATOM     28  C   UNL     1      -7.668  41.116  14.691  0.00  0.00    +0.000 C 
BRANCH  27  29
ATOM     29  C   UNL     1      -4.878  41.591  14.004  0.00  0.00    +0.000 C 
BRANCH  29  30
ATOM     30  N   UNL     1      -3.916  41.868  15.068  0.00  0.00    +0.000 N 
ATOM     31  N   UNL     1      -1.330  39.466  15.450  0.00  0.00    +0.000 N 
ATOM     32  C   UNL     1      -3.817  40.630  15.891  0.00  0.00    +0.000 C 
ATOM     33  C   UNL     1      -2.563  41.753  14.456  0.00  0.00    +0.000 C 
ATOM     34  C   UNL     1      -2.685  39.575  16.056  0.00  0.00    +0.000 C 
ATOM     35  C   UNL     1      -1.431  40.697  14.621  0.00  0.00    +0.000 C 
ATOM     36  C   UNL     1      -1.368  38.335  14.533  0.00  0.00    +0.000 C 
ENDBRANCH  29  30
ENDBRANCH  27  29
ENDBRANCH  19  26
ENDBRANCH   1  22
BRANCH   2  37
ATOM     37  C   UNL     1     -12.791  39.774  11.107  0.00  0.00    +0.000 A 
ATOM     38  C   UNL     1     -13.199  40.950  11.733  0.00  0.00    +0.000 A 
ATOM     39  C   UNL     1     -12.850  38.546  11.764  0.00  0.00    +0.000 A 
ATOM     40  C   UNL     1     -13.666  40.894  13.042  0.00  0.00    +0.000 A 
ATOM     41  C   UNL     1     -13.318  38.500  13.073  0.00  0.00    +0.000 A 
ATOM     42  C   UNL     1     -13.725  39.672  13.711  0.00  0.00    +0.000 A 
ENDBRANCH   2  37
TORSDOF 9
ENDMDL
MODEL 9
REMARK VINA RESULT:      -7.0     25.224     30.048
REMARK  Name = 135423438_Nintedanib.pdbqt.pdb
REMARK  9 active torsions:
REMARK  status: ('A' for Active; 'I' for Inactive)
REMARK    1  A    between atoms: N_1  and  C_22
REMARK    2  A    between atoms: C_2  and  C_4
REMARK    3  A    between atoms: C_2  and  C_37
REMARK    4  A    between atoms: C_7  and  O_13
REMARK    5  A    between atoms: C_10  and  C_16
REMARK    6  A    between atoms: C_16  and  O_17
REMARK    7  A    between atoms: C_19  and  N_26
REMARK    8  A    between atoms: C_27  and  C_29
REMARK    9  A    between atoms: C_29  and  N_30
REMARK                            x       y       z     vdW  Elec       q    Type
REMARK                         _______ _______ _______ _____ _____    ______ ____
ROOT
ATOM      1  N   UNL     1     -18.319  28.747  22.089  0.00  0.00    +0.000 NA
ATOM      2  C   UNL     1     -17.233  29.459  22.183  0.00  0.00    +0.000 C 
ENDROOT
BRANCH   2   4
ATOM      3  N   UNL     1     -18.131  32.517  23.990  0.00  0.00    +0.000 N 
ATOM      4  C   UNL     1     -17.327  30.700  22.963  0.00  0.00    +0.000 A 
ATOM      5  C   UNL     1     -16.240  31.422  23.573  0.00  0.00    +0.000 A 
ATOM      6  C   UNL     1     -16.776  32.543  24.205  0.00  0.00    +0.000 A 
ATOM      7  C   UNL     1     -18.480  31.421  23.243  0.00  0.00    +0.000 A 
ATOM      8  C   UNL     1     -14.848  31.217  23.651  0.00  0.00    +0.000 A 
ATOM      9  C   UNL     1     -15.996  33.470  24.903  0.00  0.00    +0.000 A 
ATOM     10  C   UNL     1     -14.615  33.241  24.958  0.00  0.00    +0.000 A 
ATOM     11  C   UNL     1     -14.049  32.129  24.343  0.00  0.00    +0.000 A 
ATOM     12  H   UNL     1     -18.771  33.217  24.336  0.00  0.00    +0.000 HD
BRANCH   7  13
ATOM     13  O   UNL     1     -19.743  31.195  22.896  0.00  0.00    +0.000 OA
ATOM     14  H   UNL     1     -19.928  30.240  22.870  0.00  0.00    +0.000 HD
ENDBRANCH   7  13
BRANCH  10  16
ATOM     15  O   UNL     1     -12.543  33.897  25.911  0.00  0.00    +0.000 OA
ATOM     16  C   UNL     1     -13.711  34.167  25.675  0.00  0.00    +0.000 C 
BRANCH  16  17
ATOM     17  O   UNL     1     -14.406  35.297  25.990  0.00  0.00    +0.000 OA
ATOM     18  C   UNL     1     -13.921  36.527  25.515  0.00  0.00    +0.000 C 
ENDBRANCH  16  17
ENDBRANCH  10  16
ENDBRANCH   2   4
BRANCH   1  22
ATOM     19  C   UNL     1     -18.492  25.163  19.846  0.00  0.00    +0.000 A 
ATOM     20  C   UNL     1     -18.413  25.150  21.241  0.00  0.00    +0.000 A 
ATOM     21  C   UNL     1     -18.511  26.416  19.219  0.00  0.00    +0.000 A 
ATOM     22  C   UNL     1     -18.337  27.566  21.338  0.00  0.00    +0.000 A 
ATOM     23  C   UNL     1     -18.346  26.329  21.982  0.00  0.00    +0.000 A 
ATOM     24  C   UNL     1     -18.446  27.601  19.949  0.00  0.00    +0.000 A 
BRANCH  19  26
ATOM     25  O   UNL     1     -16.881  22.804  20.314  0.00  0.00    +0.000 OA
ATOM     26  N   UNL     1     -18.553  23.943  19.073  0.00  0.00    +0.000 N 
ATOM     27  C   UNL     1     -17.706  22.857  19.407  0.00  0.00    +0.000 C 
ATOM     28  C   UNL     1     -19.519  23.950  17.970  0.00  0.00    +0.000 C 
BRANCH  27  29
ATOM     29  C   UNL     1     -17.819  21.665  18.578  0.00  0.00    +0.000 C 
BRANCH  29  30
ATOM     30  N   UNL     1     -17.944  20.486  17.723  0.00  0.00    +0.000 N 
ATOM     31  N   UNL     1     -20.118  20.843  14.940  0.00  0.00    +0.000 N 
ATOM     32  C   UNL     1     -19.401  20.228  17.555  0.00  0.00    +0.000 C 
ATOM     33  C   UNL     1     -17.709  20.950  16.327  0.00  0.00    +0.000 C 
ATOM     34  C   UNL     1     -20.355  20.387  16.336  0.00  0.00    +0.000 C 
ATOM     35  C   UNL     1     -18.664  21.109  15.108  0.00  0.00    +0.000 C 
ATOM     36  C   UNL     1     -20.772  22.138  14.801  0.00  0.00    +0.000 C 
ENDBRANCH  29  30
ENDBRANCH  27  29
ENDBRANCH  19  26
ENDBRANCH   1  22
BRANCH   2  37
ATOM     37  C   UNL     1     -15.940  29.113  21.568  0.00  0.00    +0.000 A 
ATOM     38  C   UNL     1     -15.110  28.184  22.193  0.00  0.00    +0.000 A 
ATOM     39  C   UNL     1     -15.587  29.698  20.352  0.00  0.00    +0.000 A 
ATOM     40  C   UNL     1     -13.902  27.843  21.591  0.00  0.00    +0.000 A 
ATOM     41  C   UNL     1     -14.378  29.350  19.760  0.00  0.00    +0.000 A 
ATOM     42  C   UNL     1     -13.537  28.424  20.378  0.00  0.00    +0.000 A 
ENDBRANCH   2  37
TORSDOF 9
ENDMDL
