MODEL 1
REMARK VINA RESULT:      -7.8      0.000      0.000
REMARK  Name = 14132199_RiccardinD.pdbqt.pdb
REMARK  3 active torsions:
REMARK  status: ('A' for Active; 'I' for Inactive)
REMARK    1  A    between atoms: C_11  and  O_30
REMARK    2  A    between atoms: C_16  and  O_32
REMARK    3  A    between atoms: C_28  and  O_34
REMARK                            x       y       z     vdW  Elec       q    Type
REMARK                         _______ _______ _______ _____ _____    ______ ____
ROOT
ATOM      1  O   UNL     1       1.447  45.284  23.808  0.00  0.00    +0.000 OA
ATOM      2  C   UNL     1      -1.721  41.975  18.576  0.00  0.00    +0.000 C 
ATOM      3  C   UNL     1      -1.911  41.538  17.222  0.00  0.00    +0.000 A 
ATOM      4  C   UNL     1      -1.042  41.950  16.179  0.00  0.00    +0.000 A 
ATOM      5  C   UNL     1      -1.364  42.510  19.972  0.00  0.00    +0.000 C 
ATOM      6  C   UNL     1       2.804  45.527  18.200  0.00  0.00    +0.000 C 
ATOM      7  C   UNL     1       0.020  42.951  16.428  0.00  0.00    +0.000 A 
ATOM      8  C   UNL     1       1.947  44.798  17.325  0.00  0.00    +0.000 A 
ATOM      9  C   UNL     1       3.380  46.114  19.491  0.00  0.00    +0.000 C 
ATOM     10  C   UNL     1      -0.857  43.099  21.168  0.00  0.00    +0.000 A 
ATOM     11  C   UNL     1       1.391  42.665  16.354  0.00  0.00    +0.000 A 
ATOM     12  C   UNL     1       3.461  46.365  20.888  0.00  0.00    +0.000 A 
ATOM     13  C   UNL     1      -0.348  44.236  16.851  0.00  0.00    +0.000 A 
ATOM     14  C   UNL     1       2.351  43.567  16.818  0.00  0.00    +0.000 A 
ATOM     15  C   UNL     1       0.600  45.148  17.304  0.00  0.00    +0.000 A 
ATOM     16  C   UNL     1      -1.252  41.378  14.911  0.00  0.00    +0.000 A 
ATOM     17  C   UNL     1      -2.956  40.645  16.977  0.00  0.00    +0.000 A 
ATOM     18  C   UNL     1      -2.310  40.502  14.667  0.00  0.00    +0.000 A 
ATOM     19  C   UNL     1      -3.168  40.142  15.699  0.00  0.00    +0.000 A 
ATOM     20  C   UNL     1       2.485  45.743  21.659  0.00  0.00    +0.000 A 
ATOM     21  C   UNL     1      -1.257  44.388  21.525  0.00  0.00    +0.000 A 
ATOM     22  C   UNL     1       0.189  42.475  21.849  0.00  0.00    +0.000 A 
ATOM     23  C   UNL     1       2.420  45.900  23.038  0.00  0.00    +0.000 A 
ATOM     24  C   UNL     1       4.411  47.171  21.497  0.00  0.00    +0.000 A 
ATOM     25  C   UNL     1       0.560  44.495  23.098  0.00  0.00    +0.000 A 
ATOM     26  C   UNL     1      -0.555  45.089  22.503  0.00  0.00    +0.000 A 
ATOM     27  C   UNL     1       0.897  43.169  22.828  0.00  0.00    +0.000 A 
ATOM     28  C   UNL     1       3.373  46.708  23.648  0.00  0.00    +0.000 A 
ATOM     29  C   UNL     1       4.363  47.340  22.887  0.00  0.00    +0.000 A 
ENDROOT
BRANCH  11  30
ATOM     30  O   UNL     1       1.800  41.466  15.833  0.00  0.00    +0.000 OA
ATOM     31  H   UNL     1       1.758  41.528  14.859  0.00  0.00    +0.000 HD
ENDBRANCH  11  30
BRANCH  16  32
ATOM     32  O   UNL     1      -0.424  41.629  13.849  0.00  0.00    +0.000 OA
ATOM     33  H   UNL     1      -0.851  42.329  13.319  0.00  0.00    +0.000 HD
ENDBRANCH  16  32
BRANCH  28  34
ATOM     34  O   UNL     1       3.374  46.909  25.000  0.00  0.00    +0.000 OA
ATOM     35  H   UNL     1       4.292  47.100  25.264  0.00  0.00    +0.000 HD
ENDBRANCH  28  34
TORSDOF 3
ENDMDL
MODEL 2
REMARK VINA RESULT:      -7.5     22.752     25.054
REMARK  Name = 14132199_RiccardinD.pdbqt.pdb
REMARK  3 active torsions:
REMARK  status: ('A' for Active; 'I' for Inactive)
REMARK    1  A    between atoms: C_11  and  O_30
REMARK    2  A    between atoms: C_16  and  O_32
REMARK    3  A    between atoms: C_28  and  O_34
REMARK                            x       y       z     vdW  Elec       q    Type
REMARK                         _______ _______ _______ _____ _____    ______ ____
ROOT
ATOM      1  O   UNL     1       0.089  26.581  29.096  0.00  0.00    +0.000 OA
ATOM      2  C   UNL     1      -1.182  19.764  29.620  0.00  0.00    +0.000 C 
ATOM      3  C   UNL     1      -1.639  18.559  30.249  0.00  0.00    +0.000 A 
ATOM      4  C   UNL     1      -2.146  18.558  31.575  0.00  0.00    +0.000 A 
ATOM      5  C   UNL     1      -0.760  21.142  29.084  0.00  0.00    +0.000 C 
ATOM      6  C   UNL     1      -1.796  23.735  33.754  0.00  0.00    +0.000 C 
ATOM      7  C   UNL     1      -2.102  19.783  32.404  0.00  0.00    +0.000 A 
ATOM      8  C   UNL     1      -1.912  22.322  33.609  0.00  0.00    +0.000 A 
ATOM      9  C   UNL     1      -1.506  25.198  33.410  0.00  0.00    +0.000 C 
ATOM     10  C   UNL     1      -0.441  22.499  28.780  0.00  0.00    +0.000 A 
ATOM     11  C   UNL     1      -3.246  20.472  32.835  0.00  0.00    +0.000 A 
ATOM     12  C   UNL     1      -1.098  26.291  32.598  0.00  0.00    +0.000 A 
ATOM     13  C   UNL     1      -0.856  20.352  32.706  0.00  0.00    +0.000 A 
ATOM     14  C   UNL     1      -3.160  21.740  33.413  0.00  0.00    +0.000 A 
ATOM     15  C   UNL     1      -0.757  21.610  33.292  0.00  0.00    +0.000 A 
ATOM     16  C   UNL     1      -2.667  17.343  32.057  0.00  0.00    +0.000 A 
ATOM     17  C   UNL     1      -1.616  17.388  29.487  0.00  0.00    +0.000 A 
ATOM     18  C   UNL     1      -2.624  16.173  31.300  0.00  0.00    +0.000 A 
ATOM     19  C   UNL     1      -2.089  16.194  30.017  0.00  0.00    +0.000 A 
ATOM     20  C   UNL     1      -0.724  25.958  31.301  0.00  0.00    +0.000 A 
ATOM     21  C   UNL     1       0.815  23.004  29.118  0.00  0.00    +0.000 A 
ATOM     22  C   UNL     1      -1.452  23.359  28.349  0.00  0.00    +0.000 A 
ATOM     23  C   UNL     1      -0.288  26.911  30.388  0.00  0.00    +0.000 A 
ATOM     24  C   UNL     1      -1.045  27.613  33.012  0.00  0.00    +0.000 A 
ATOM     25  C   UNL     1      -0.016  25.237  28.788  0.00  0.00    +0.000 A 
ATOM     26  C   UNL     1       1.037  24.379  29.112  0.00  0.00    +0.000 A 
ATOM     27  C   UNL     1      -1.239  24.736  28.341  0.00  0.00    +0.000 A 
ATOM     28  C   UNL     1      -0.235  28.237  30.805  0.00  0.00    +0.000 A 
ATOM     29  C   UNL     1      -0.610  28.589  32.106  0.00  0.00    +0.000 A 
ENDROOT
BRANCH  11  30
ATOM     30  O   UNL     1      -4.478  19.896  32.669  0.00  0.00    +0.000 OA
ATOM     31  H   UNL     1      -4.570  19.181  33.328  0.00  0.00    +0.000 HD
ENDBRANCH  11  30
BRANCH  16  32
ATOM     32  O   UNL     1      -3.264  17.240  33.286  0.00  0.00    +0.000 OA
ATOM     33  H   UNL     1      -3.166  16.312  33.569  0.00  0.00    +0.000 HD
ENDBRANCH  16  32
BRANCH  28  34
ATOM     34  O   UNL     1       0.182  29.230  29.964  0.00  0.00    +0.000 OA
ATOM     35  H   UNL     1      -0.494  29.931  29.986  0.00  0.00    +0.000 HD
ENDBRANCH  28  34
TORSDOF 3
ENDMDL
MODEL 3
REMARK VINA RESULT:      -7.5     20.746     23.289
REMARK  Name = 14132199_RiccardinD.pdbqt.pdb
REMARK  3 active torsions:
REMARK  status: ('A' for Active; 'I' for Inactive)
REMARK    1  A    between atoms: C_11  and  O_30
REMARK    2  A    between atoms: C_16  and  O_32
REMARK    3  A    between atoms: C_28  and  O_34
REMARK                            x       y       z     vdW  Elec       q    Type
REMARK                         _______ _______ _______ _____ _____    ______ ____
ROOT
ATOM      1  O   UNL     1      -2.463  63.630   5.225  0.00  0.00    +0.000 OA
ATOM      2  C   UNL     1      -2.236  61.604  11.874  0.00  0.00    +0.000 C 
ATOM      3  C   UNL     1      -1.857  61.676  13.256  0.00  0.00    +0.000 A 
ATOM      4  C   UNL     1      -0.987  62.689  13.736  0.00  0.00    +0.000 A 
ATOM      5  C   UNL     1      -2.564  61.684  10.374  0.00  0.00    +0.000 C 
ATOM      6  C   UNL     1       0.723  65.923   9.460  0.00  0.00    +0.000 C 
ATOM      7  C   UNL     1      -0.335  63.634  12.802  0.00  0.00    +0.000 A 
ATOM      8  C   UNL     1       0.630  65.272  10.725  0.00  0.00    +0.000 A 
ATOM      9  C   UNL     1       0.485  66.233   7.980  0.00  0.00    +0.000 C 
ATOM     10  C   UNL     1      -2.746  61.942   8.983  0.00  0.00    +0.000 A 
ATOM     11  C   UNL     1      -0.602  65.011  12.778  0.00  0.00    +0.000 A 
ATOM     12  C   UNL     1      -0.067  66.057   6.683  0.00  0.00    +0.000 A 
ATOM     13  C   UNL     1       0.530  63.128  11.822  0.00  0.00    +0.000 A 
ATOM     14  C   UNL     1      -0.145  65.825  11.739  0.00  0.00    +0.000 A 
ATOM     15  C   UNL     1       1.001  63.931  10.788  0.00  0.00    +0.000 A 
ATOM     16  C   UNL     1      -0.767  62.733  15.125  0.00  0.00    +0.000 A 
ATOM     17  C   UNL     1      -2.421  60.740  14.125  0.00  0.00    +0.000 A 
ATOM     18  C   UNL     1      -1.316  61.784  15.987  0.00  0.00    +0.000 A 
ATOM     19  C   UNL     1      -2.137  60.781  15.485  0.00  0.00    +0.000 A 
ATOM     20  C   UNL     1      -0.960  64.998   6.559  0.00  0.00    +0.000 A 
ATOM     21  C   UNL     1      -1.841  61.416   8.060  0.00  0.00    +0.000 A 
ATOM     22  C   UNL     1      -3.690  62.887   8.580  0.00  0.00    +0.000 A 
ATOM     23  C   UNL     1      -1.576  64.686   5.352  0.00  0.00    +0.000 A 
ATOM     24  C   UNL     1       0.230  66.841   5.578  0.00  0.00    +0.000 A 
ATOM     25  C   UNL     1      -2.694  62.924   6.391  0.00  0.00    +0.000 A 
ATOM     26  C   UNL     1      -1.819  61.898   6.753  0.00  0.00    +0.000 A 
ATOM     27  C   UNL     1      -3.676  63.376   7.275  0.00  0.00    +0.000 A 
ATOM     28  C   UNL     1      -1.277  65.473   4.245  0.00  0.00    +0.000 A 
ATOM     29  C   UNL     1      -0.382  66.543   4.354  0.00  0.00    +0.000 A 
ENDROOT
BRANCH  11  30
ATOM     30  O   UNL     1      -1.343  65.570  13.786  0.00  0.00    +0.000 OA
ATOM     31  H   UNL     1      -2.182  65.892  13.403  0.00  0.00    +0.000 HD
ENDBRANCH  11  30
BRANCH  16  32
ATOM     32  O   UNL     1      -0.019  63.717  15.716  0.00  0.00    +0.000 OA
ATOM     33  H   UNL     1       0.866  63.339  15.878  0.00  0.00    +0.000 HD
ENDBRANCH  16  32
BRANCH  28  34
ATOM     34  O   UNL     1      -1.843  65.228   3.026  0.00  0.00    +0.000 OA
ATOM     35  H   UNL     1      -1.305  65.691   2.358  0.00  0.00    +0.000 HD
ENDBRANCH  28  34
TORSDOF 3
ENDMDL
MODEL 4
REMARK VINA RESULT:      -7.5     21.173     23.199
REMARK  Name = 14132199_RiccardinD.pdbqt.pdb
REMARK  3 active torsions:
REMARK  status: ('A' for Active; 'I' for Inactive)
REMARK    1  A    between atoms: C_11  and  O_30
REMARK    2  A    between atoms: C_16  and  O_32
REMARK    3  A    between atoms: C_28  and  O_34
REMARK                            x       y       z     vdW  Elec       q    Type
REMARK                         _______ _______ _______ _____ _____    ______ ____
ROOT
ATOM      1  O   UNL     1      -0.867  63.334  13.822  0.00  0.00    +0.000 OA
ATOM      2  C   UNL     1       0.065  66.237   7.571  0.00  0.00    +0.000 C 
ATOM      3  C   UNL     1      -0.106  66.386   6.154  0.00  0.00    +0.000 A 
ATOM      4  C   UNL     1      -0.872  65.462   5.397  0.00  0.00    +0.000 A 
ATOM      5  C   UNL     1       0.126  65.950   9.080  0.00  0.00    +0.000 C 
ATOM      6  C   UNL     1      -2.731  61.331   8.736  0.00  0.00    +0.000 C 
ATOM      7  C   UNL     1      -1.419  64.238   6.022  0.00  0.00    +0.000 A 
ATOM      8  C   UNL     1      -2.344  62.091   7.594  0.00  0.00    +0.000 A 
ATOM      9  C   UNL     1      -2.862  60.895  10.197  0.00  0.00    +0.000 C 
ATOM     10  C   UNL     1       0.046  65.515  10.437  0.00  0.00    +0.000 A 
ATOM     11  C   UNL     1      -2.791  63.995   6.187  0.00  0.00    +0.000 A 
ATOM     12  C   UNL     1      -2.659  60.963  11.602  0.00  0.00    +0.000 A 
ATOM     13  C   UNL     1      -0.530  63.302   6.568  0.00  0.00    +0.000 A 
ATOM     14  C   UNL     1      -3.257  62.946   6.983  0.00  0.00    +0.000 A 
ATOM     15  C   UNL     1      -0.981  62.245   7.353  0.00  0.00    +0.000 A 
ATOM     16  C   UNL     1      -1.065  65.761   4.035  0.00  0.00    +0.000 A 
ATOM     17  C   UNL     1       0.469  67.507   5.553  0.00  0.00    +0.000 A 
ATOM     18  C   UNL     1      -0.473  66.871   3.436  0.00  0.00    +0.000 A 
ATOM     19  C   UNL     1       0.303  67.741   4.193  0.00  0.00    +0.000 A 
ATOM     20  C   UNL     1      -1.912  62.051  12.040  0.00  0.00    +0.000 A 
ATOM     21  C   UNL     1       0.958  64.572  10.913  0.00  0.00    +0.000 A 
ATOM     22  C   UNL     1      -1.063  65.869  11.205  0.00  0.00    +0.000 A 
ATOM     23  C   UNL     1      -1.614  62.253  13.383  0.00  0.00    +0.000 A 
ATOM     24  C   UNL     1      -3.134  60.039  12.521  0.00  0.00    +0.000 A 
ATOM     25  C   UNL     1      -0.456  64.197  12.822  0.00  0.00    +0.000 A 
ATOM     26  C   UNL     1       0.716  63.915  12.117  0.00  0.00    +0.000 A 
ATOM     27  C   UNL     1      -1.314  65.217  12.411  0.00  0.00    +0.000 A 
ATOM     28  C   UNL     1      -2.091  61.326  14.303  0.00  0.00    +0.000 A 
ATOM     29  C   UNL     1      -2.846  60.226  13.879  0.00  0.00    +0.000 A 
ENDROOT
BRANCH  11  30
ATOM     30  O   UNL     1      -3.697  64.816   5.569  0.00  0.00    +0.000 OA
ATOM     31  H   UNL     1      -4.130  65.361   6.254  0.00  0.00    +0.000 HD
ENDBRANCH  11  30
BRANCH  16  32
ATOM     32  O   UNL     1      -1.859  64.994   3.224  0.00  0.00    +0.000 OA
ATOM     33  H   UNL     1      -2.601  64.678   3.774  0.00  0.00    +0.000 HD
ENDBRANCH  16  32
BRANCH  28  34
ATOM     34  O   UNL     1      -1.840  61.457  15.639  0.00  0.00    +0.000 OA
ATOM     35  H   UNL     1      -1.691  60.562  15.996  0.00  0.00    +0.000 HD
ENDBRANCH  28  34
TORSDOF 3
ENDMDL
MODEL 5
REMARK VINA RESULT:      -7.3     10.347     16.622
REMARK  Name = 14132199_RiccardinD.pdbqt.pdb
REMARK  3 active torsions:
REMARK  status: ('A' for Active; 'I' for Inactive)
REMARK    1  A    between atoms: C_11  and  O_30
REMARK    2  A    between atoms: C_16  and  O_32
REMARK    3  A    between atoms: C_28  and  O_34
REMARK                            x       y       z     vdW  Elec       q    Type
REMARK                         _______ _______ _______ _____ _____    ______ ____
ROOT
ATOM      1  O   UNL     1     -14.791  39.203   9.214  0.00  0.00    +0.000 OA
ATOM      2  C   UNL     1      -8.661  40.931  12.007  0.00  0.00    +0.000 C 
ATOM      3  C   UNL     1      -7.739  41.235  13.064  0.00  0.00    +0.000 A 
ATOM      4  C   UNL     1      -8.153  41.289  14.420  0.00  0.00    +0.000 A 
ATOM      5  C   UNL     1      -9.765  40.565  11.003  0.00  0.00    +0.000 C 
ATOM      6  C   UNL     1     -13.698  40.394  14.759  0.00  0.00    +0.000 C 
ATOM      7  C   UNL     1      -9.582  41.158  14.782  0.00  0.00    +0.000 A 
ATOM      8  C   UNL     1     -12.360  40.785  15.054  0.00  0.00    +0.000 A 
ATOM      9  C   UNL     1     -14.925  39.953  13.956  0.00  0.00    +0.000 C 
ATOM     10  C   UNL     1     -10.921  40.205  10.247  0.00  0.00    +0.000 A 
ATOM     11  C   UNL     1     -10.103  40.080  15.513  0.00  0.00    +0.000 A 
ATOM     12  C   UNL     1     -15.663  39.584  12.799  0.00  0.00    +0.000 A 
ATOM     13  C   UNL     1     -10.492  42.107  14.296  0.00  0.00    +0.000 A 
ATOM     14  C   UNL     1     -11.479  39.877  15.634  0.00  0.00    +0.000 A 
ATOM     15  C   UNL     1     -11.866  41.922  14.420  0.00  0.00    +0.000 A 
ATOM     16  C   UNL     1      -7.149  41.488  15.385  0.00  0.00    +0.000 A 
ATOM     17  C   UNL     1      -6.400  41.426  12.712  0.00  0.00    +0.000 A 
ATOM     18  C   UNL     1      -5.817  41.698  15.027  0.00  0.00    +0.000 A 
ATOM     19  C   UNL     1      -5.444  41.676  13.689  0.00  0.00    +0.000 A 
ATOM     20  C   UNL     1     -14.934  39.557  11.615  0.00  0.00    +0.000 A 
ATOM     21  C   UNL     1     -11.792  41.200   9.803  0.00  0.00    +0.000 A 
ATOM     22  C   UNL     1     -11.280  38.860  10.147  0.00  0.00    +0.000 A 
ATOM     23  C   UNL     1     -15.515  39.228  10.396  0.00  0.00    +0.000 A 
ATOM     24  C   UNL     1     -17.015  39.273  12.784  0.00  0.00    +0.000 A 
ATOM     25  C   UNL     1     -13.451  39.518   9.349  0.00  0.00    +0.000 A 
ATOM     26  C   UNL     1     -13.061  40.858   9.340  0.00  0.00    +0.000 A 
ATOM     27  C   UNL     1     -12.547  38.510   9.685  0.00  0.00    +0.000 A 
ATOM     28  C   UNL     1     -16.869  38.917  10.381  0.00  0.00    +0.000 A 
ATOM     29  C   UNL     1     -17.617  38.937  11.564  0.00  0.00    +0.000 A 
ENDROOT
BRANCH  11  30
ATOM     30  O   UNL     1      -9.244  39.195  16.109  0.00  0.00    +0.000 OA
ATOM     31  H   UNL     1      -9.604  38.966  16.988  0.00  0.00    +0.000 HD
ENDBRANCH  11  30
BRANCH  16  32
ATOM     32  O   UNL     1      -7.412  41.469  16.729  0.00  0.00    +0.000 OA
ATOM     33  H   UNL     1      -7.733  40.572  16.940  0.00  0.00    +0.000 HD
ENDBRANCH  16  32
BRANCH  28  34
ATOM     34  O   UNL     1     -17.510  38.583   9.221  0.00  0.00    +0.000 OA
ATOM     35  H   UNL     1     -18.318  38.097   9.465  0.00  0.00    +0.000 HD
ENDBRANCH  28  34
TORSDOF 3
ENDMDL
MODEL 6
REMARK VINA RESULT:      -7.2     26.015     29.595
REMARK  Name = 14132199_RiccardinD.pdbqt.pdb
REMARK  3 active torsions:
REMARK  status: ('A' for Active; 'I' for Inactive)
REMARK    1  A    between atoms: C_11  and  O_30
REMARK    2  A    between atoms: C_16  and  O_32
REMARK    3  A    between atoms: C_28  and  O_34
REMARK                            x       y       z     vdW  Elec       q    Type
REMARK                         _______ _______ _______ _____ _____    ______ ____
ROOT
ATOM      1  O   UNL     1       6.717  12.158  12.282  0.00  0.00    +0.000 OA
ATOM      2  C   UNL     1       2.944  17.329   9.565  0.00  0.00    +0.000 C 
ATOM      3  C   UNL     1       2.705  18.640   9.032  0.00  0.00    +0.000 A 
ATOM      4  C   UNL     1       3.734  19.614   8.964  0.00  0.00    +0.000 A 
ATOM      5  C   UNL     1       3.373  15.968  10.137  0.00  0.00    +0.000 C 
ATOM      6  C   UNL     1       8.457  17.564  11.236  0.00  0.00    +0.000 C 
ATOM      7  C   UNL     1       5.064  19.355   9.560  0.00  0.00    +0.000 A 
ATOM      8  C   UNL     1       7.458  18.447  10.732  0.00  0.00    +0.000 A 
ATOM      9  C   UNL     1       9.114  16.287  11.765  0.00  0.00    +0.000 C 
ATOM     10  C   UNL     1       3.972  14.792  10.678  0.00  0.00    +0.000 A 
ATOM     11  C   UNL     1       6.243  19.238   8.809  0.00  0.00    +0.000 A 
ATOM     12  C   UNL     1       9.183  14.926  12.169  0.00  0.00    +0.000 A 
ATOM     13  C   UNL     1       5.153  19.120  10.939  0.00  0.00    +0.000 A 
ATOM     14  C   UNL     1       7.428  18.767   9.378  0.00  0.00    +0.000 A 
ATOM     15  C   UNL     1       6.331  18.662  11.521  0.00  0.00    +0.000 A 
ATOM     16  C   UNL     1       3.421  20.828   8.325  0.00  0.00    +0.000 A 
ATOM     17  C   UNL     1       1.428  18.906   8.531  0.00  0.00    +0.000 A 
ATOM     18  C   UNL     1       2.139  21.096   7.845  0.00  0.00    +0.000 A 
ATOM     19  C   UNL     1       1.140  20.137   7.956  0.00  0.00    +0.000 A 
ATOM     20  C   UNL     1       7.998  14.210  12.041  0.00  0.00    +0.000 A 
ATOM     21  C   UNL     1       4.037  14.626  12.062  0.00  0.00    +0.000 A 
ATOM     22  C   UNL     1       4.675  13.931   9.834  0.00  0.00    +0.000 A 
ATOM     23  C   UNL     1       7.898  12.872  12.406  0.00  0.00    +0.000 A 
ATOM     24  C   UNL     1      10.314  14.302  12.674  0.00  0.00    +0.000 A 
ATOM     25  C   UNL     1       5.658  12.875  11.757  0.00  0.00    +0.000 A 
ATOM     26  C   UNL     1       4.875  13.656  12.608  0.00  0.00    +0.000 A 
ATOM     27  C   UNL     1       5.515  12.959  10.372  0.00  0.00    +0.000 A 
ATOM     28  C   UNL     1       9.032  12.248  12.912  0.00  0.00    +0.000 A 
ATOM     29  C   UNL     1      10.233  12.954  13.046  0.00  0.00    +0.000 A 
ENDROOT
BRANCH  11  30
ATOM     30  O   UNL     1       6.230  19.575   7.481  0.00  0.00    +0.000 OA
ATOM     31  H   UNL     1       5.719  20.402   7.383  0.00  0.00    +0.000 HD
ENDBRANCH  11  30
BRANCH  16  32
ATOM     32  O   UNL     1       4.355  21.809   8.119  0.00  0.00    +0.000 OA
ATOM     33  H   UNL     1       5.161  21.534   8.597  0.00  0.00    +0.000 HD
ENDBRANCH  16  32
BRANCH  28  34
ATOM     34  O   UNL     1       9.011  10.936  13.291  0.00  0.00    +0.000 OA
ATOM     35  H   UNL     1       8.460  10.456  12.647  0.00  0.00    +0.000 HD
ENDBRANCH  28  34
TORSDOF 3
ENDMDL
MODEL 7
REMARK VINA RESULT:      -7.2     11.613     16.200
REMARK  Name = 14132199_RiccardinD.pdbqt.pdb
REMARK  3 active torsions:
REMARK  status: ('A' for Active; 'I' for Inactive)
REMARK    1  A    between atoms: C_11  and  O_30
REMARK    2  A    between atoms: C_16  and  O_32
REMARK    3  A    between atoms: C_28  and  O_34
REMARK                            x       y       z     vdW  Elec       q    Type
REMARK                         _______ _______ _______ _____ _____    ______ ____
ROOT
ATOM      1  O   UNL     1     -16.221  42.768  14.188  0.00  0.00    +0.000 OA
ATOM      2  C   UNL     1      -9.547  43.656  12.447  0.00  0.00    +0.000 C 
ATOM      3  C   UNL     1      -8.299  43.327  11.821  0.00  0.00    +0.000 A 
ATOM      4  C   UNL     1      -8.124  42.116  11.102  0.00  0.00    +0.000 A 
ATOM      5  C   UNL     1     -10.953  43.870  13.033  0.00  0.00    +0.000 C 
ATOM      6  C   UNL     1     -12.822  39.031  11.390  0.00  0.00    +0.000 C 
ATOM      7  C   UNL     1      -9.188  41.087  11.080  0.00  0.00    +0.000 A 
ATOM      8  C   UNL     1     -11.467  39.439  11.216  0.00  0.00    +0.000 A 
ATOM      9  C   UNL     1     -14.291  39.063  11.819  0.00  0.00    +0.000 C 
ATOM     10  C   UNL     1     -12.308  43.877  13.478  0.00  0.00    +0.000 A 
ATOM     11  C   UNL     1      -9.893  40.723   9.923  0.00  0.00    +0.000 A 
ATOM     12  C   UNL     1     -15.463  39.597  12.419  0.00  0.00    +0.000 A 
ATOM     13  C   UNL     1      -9.589  40.502  12.289  0.00  0.00    +0.000 A 
ATOM     14  C   UNL     1     -11.037  39.924   9.986  0.00  0.00    +0.000 A 
ATOM     15  C   UNL     1     -10.720  39.695  12.363  0.00  0.00    +0.000 A 
ATOM     16  C   UNL     1      -6.897  41.941  10.437  0.00  0.00    +0.000 A 
ATOM     17  C   UNL     1      -7.272  44.270  11.902  0.00  0.00    +0.000 A 
ATOM     18  C   UNL     1      -5.868  42.878  10.537  0.00  0.00    +0.000 A 
ATOM     19  C   UNL     1      -6.053  44.039  11.277  0.00  0.00    +0.000 A 
ATOM     20  C   UNL     1     -15.317  40.859  12.984  0.00  0.00    +0.000 A 
ATOM     21  C   UNL     1     -12.640  43.266  14.688  0.00  0.00    +0.000 A 
ATOM     22  C   UNL     1     -13.312  44.299  12.605  0.00  0.00    +0.000 A 
ATOM     23  C   UNL     1     -16.366  41.512  13.621  0.00  0.00    +0.000 A 
ATOM     24  C   UNL     1     -16.690  38.953  12.481  0.00  0.00    +0.000 A 
ATOM     25  C   UNL     1     -14.961  43.321  14.057  0.00  0.00    +0.000 A 
ATOM     26  C   UNL     1     -13.973  42.995  14.988  0.00  0.00    +0.000 A 
ATOM     27  C   UNL     1     -14.648  44.032  12.898  0.00  0.00    +0.000 A 
ATOM     28  C   UNL     1     -17.595  40.865  13.683  0.00  0.00    +0.000 A 
ATOM     29  C   UNL     1     -17.760  39.595  13.118  0.00  0.00    +0.000 A 
ENDROOT
BRANCH  11  30
ATOM     30  O   UNL     1      -9.462  41.175   8.704  0.00  0.00    +0.000 OA
ATOM     31  H   UNL     1      -8.544  40.868   8.573  0.00  0.00    +0.000 HD
ENDBRANCH  11  30
BRANCH  16  32
ATOM     32  O   UNL     1      -6.645  40.857   9.639  0.00  0.00    +0.000 OA
ATOM     33  H   UNL     1      -6.884  41.116   8.729  0.00  0.00    +0.000 HD
ENDBRANCH  16  32
BRANCH  28  34
ATOM     34  O   UNL     1     -18.673  41.443  14.292  0.00  0.00    +0.000 OA
ATOM     35  H   UNL     1     -19.458  40.919  14.050  0.00  0.00    +0.000 HD
ENDBRANCH  28  34
TORSDOF 3
ENDMDL
MODEL 8
REMARK VINA RESULT:      -7.2     13.201     19.722
REMARK  Name = 14132199_RiccardinD.pdbqt.pdb
REMARK  3 active torsions:
REMARK  status: ('A' for Active; 'I' for Inactive)
REMARK    1  A    between atoms: C_11  and  O_30
REMARK    2  A    between atoms: C_16  and  O_32
REMARK    3  A    between atoms: C_28  and  O_34
REMARK                            x       y       z     vdW  Elec       q    Type
REMARK                         _______ _______ _______ _____ _____    ______ ____
ROOT
ATOM      1  O   UNL     1     -15.510  38.331   6.043  0.00  0.00    +0.000 OA
ATOM      2  C   UNL     1     -11.120  39.843  11.220  0.00  0.00    +0.000 C 
ATOM      3  C   UNL     1     -10.730  40.108  12.575  0.00  0.00    +0.000 A 
ATOM      4  C   UNL     1     -11.682  40.158  13.626  0.00  0.00    +0.000 A 
ATOM      5  C   UNL     1     -11.698  39.522   9.832  0.00  0.00    +0.000 C 
ATOM      6  C   UNL     1     -16.860  39.425  11.550  0.00  0.00    +0.000 C 
ATOM      7  C   UNL     1     -13.131  40.065  13.342  0.00  0.00    +0.000 A 
ATOM      8  C   UNL     1     -15.767  39.772  12.396  0.00  0.00    +0.000 A 
ATOM      9  C   UNL     1     -17.637  39.029  10.291  0.00  0.00    +0.000 C 
ATOM     10  C   UNL     1     -12.429  39.205   8.649  0.00  0.00    +0.000 A 
ATOM     11  C   UNL     1     -13.938  38.996  13.757  0.00  0.00    +0.000 A 
ATOM     12  C   UNL     1     -17.819  38.696   8.922  0.00  0.00    +0.000 A 
ATOM     13  C   UNL     1     -13.726  41.046  12.537  0.00  0.00    +0.000 A 
ATOM     14  C   UNL     1     -15.238  38.832  13.275  0.00  0.00    +0.000 A 
ATOM     15  C   UNL     1     -15.026  40.901  12.059  0.00  0.00    +0.000 A 
ATOM     16  C   UNL     1     -11.181  40.316  14.932  0.00  0.00    +0.000 A 
ATOM     17  C   UNL     1      -9.366  40.263  12.831  0.00  0.00    +0.000 A 
ATOM     18  C   UNL     1      -9.820  40.490  15.180  0.00  0.00    +0.000 A 
ATOM     19  C   UNL     1      -8.912  40.473  14.128  0.00  0.00    +0.000 A 
ATOM     20  C   UNL     1     -16.656  38.660   8.161  0.00  0.00    +0.000 A 
ATOM     21  C   UNL     1     -13.005  40.230   7.898  0.00  0.00    +0.000 A 
ATOM     22  C   UNL     1     -12.741  37.872   8.374  0.00  0.00    +0.000 A 
ATOM     23  C   UNL     1     -16.668  38.363   6.803  0.00  0.00    +0.000 A 
ATOM     24  C   UNL     1     -19.041  38.426   8.325  0.00  0.00    +0.000 A 
ATOM     25  C   UNL     1     -14.349  38.604   6.743  0.00  0.00    +0.000 A 
ATOM     26  C   UNL     1     -13.962  39.932   6.931  0.00  0.00    +0.000 A 
ATOM     27  C   UNL     1     -13.697  37.565   7.408  0.00  0.00    +0.000 A 
ATOM     28  C   UNL     1     -17.893  38.093   6.206  0.00  0.00    +0.000 A 
ATOM     29  C   UNL     1     -19.073  38.122   6.958  0.00  0.00    +0.000 A 
ENDROOT
BRANCH  11  30
ATOM     30  O   UNL     1     -13.435  38.078  14.642  0.00  0.00    +0.000 OA
ATOM     31  H   UNL     1     -12.466  38.044  14.525  0.00  0.00    +0.000 HD
ENDBRANCH  11  30
BRANCH  16  32
ATOM     32  O   UNL     1     -11.993  40.289  16.035  0.00  0.00    +0.000 OA
ATOM     33  H   UNL     1     -11.732  39.507  16.557  0.00  0.00    +0.000 HD
ENDBRANCH  16  32
BRANCH  28  34
ATOM     34  O   UNL     1     -17.985  37.792   4.876  0.00  0.00    +0.000 OA
ATOM     35  H   UNL     1     -18.514  38.494   4.456  0.00  0.00    +0.000 HD
ENDBRANCH  28  34
TORSDOF 3
ENDMDL
MODEL 9
REMARK VINA RESULT:      -7.1     30.368     32.220
REMARK  Name = 14132199_RiccardinD.pdbqt.pdb
REMARK  3 active torsions:
REMARK  status: ('A' for Active; 'I' for Inactive)
REMARK    1  A    between atoms: C_11  and  O_30
REMARK    2  A    between atoms: C_16  and  O_32
REMARK    3  A    between atoms: C_28  and  O_34
REMARK                            x       y       z     vdW  Elec       q    Type
REMARK                         _______ _______ _______ _____ _____    ______ ____
ROOT
ATOM      1  O   UNL     1       9.720  62.589  -5.484  0.00  0.00    +0.000 OA
ATOM      2  C   UNL     1      11.290  57.081  -9.427  0.00  0.00    +0.000 C 
ATOM      3  C   UNL     1      11.042  55.850 -10.122  0.00  0.00    +0.000 A 
ATOM      4  C   UNL     1       9.780  55.204 -10.061  0.00  0.00    +0.000 A 
ATOM      5  C   UNL     1      11.383  58.403  -8.649  0.00  0.00    +0.000 C 
ATOM      6  C   UNL     1       6.335  58.058  -6.647  0.00  0.00    +0.000 C 
ATOM      7  C   UNL     1       8.710  55.711  -9.173  0.00  0.00    +0.000 A 
ATOM      8  C   UNL     1       6.929  57.029  -7.435  0.00  0.00    +0.000 A 
ATOM      9  C   UNL     1       6.180  59.367  -5.870  0.00  0.00    +0.000 C 
ATOM     10  C   UNL     1      11.255  59.599  -7.882  0.00  0.00    +0.000 A 
ATOM     11  C   UNL     1       7.501  56.248  -9.640  0.00  0.00    +0.000 A 
ATOM     12  C   UNL     1       6.581  60.620  -5.331  0.00  0.00    +0.000 A 
ATOM     13  C   UNL     1       8.940  55.749  -7.791  0.00  0.00    +0.000 A 
ATOM     14  C   UNL     1       6.624  56.922  -8.788  0.00  0.00    +0.000 A 
ATOM     15  C   UNL     1       8.068  56.407  -6.929  0.00  0.00    +0.000 A 
ATOM     16  C   UNL     1       9.610  54.062 -10.866  0.00  0.00    +0.000 A 
ATOM     17  C   UNL     1      12.076  55.336 -10.907  0.00  0.00    +0.000 A 
ATOM     18  C   UNL     1      10.652  53.542 -11.632  0.00  0.00    +0.000 A 
ATOM     19  C   UNL     1      11.889  54.174 -11.646  0.00  0.00    +0.000 A 
ATOM     20  C   UNL     1       7.880  61.009  -5.641  0.00  0.00    +0.000 A 
ATOM     21  C   UNL     1      11.489  59.564  -6.506  0.00  0.00    +0.000 A 
ATOM     22  C   UNL     1      10.693  60.733  -8.470  0.00  0.00    +0.000 A 
ATOM     23  C   UNL     1       8.426  62.201  -5.179  0.00  0.00    +0.000 A 
ATOM     24  C   UNL     1       5.788  61.436  -4.539  0.00  0.00    +0.000 A 
ATOM     25  C   UNL     1      10.416  61.706  -6.289  0.00  0.00    +0.000 A 
ATOM     26  C   UNL     1      11.079  60.626  -5.703  0.00  0.00    +0.000 A 
ATOM     27  C   UNL     1      10.280  61.799  -7.674  0.00  0.00    +0.000 A 
ATOM     28  C   UNL     1       7.629  63.018  -4.385  0.00  0.00    +0.000 A 
ATOM     29  C   UNL     1       6.320  62.643  -4.066  0.00  0.00    +0.000 A 
ENDROOT
BRANCH  11  30
ATOM     30  O   UNL     1       7.179  56.125 -10.966  0.00  0.00    +0.000 OA
ATOM     31  H   UNL     1       6.206  56.115 -11.043  0.00  0.00    +0.000 HD
ENDBRANCH  11  30
BRANCH  16  32
ATOM     32  O   UNL     1       8.411  53.406 -10.960  0.00  0.00    +0.000 OA
ATOM     33  H   UNL     1       7.794  54.011 -11.415  0.00  0.00    +0.000 HD
ENDBRANCH  16  32
BRANCH  28  34
ATOM     34  O   UNL     1       8.096  64.205  -3.894  0.00  0.00    +0.000 OA
ATOM     35  H   UNL     1       9.003  64.050  -3.574  0.00  0.00    +0.000 HD
ENDBRANCH  28  34
TORSDOF 3
ENDMDL
