MODEL 1
REMARK VINA RESULT:      -5.3      0.000      0.000
REMARK  Name = 146026348_FluorouracilMononitrate.pdbqt.pdb
REMARK  2 active torsions:
REMARK  status: ('A' for Active; 'I' for Inactive)
REMARK    1  A    between atoms: N_4  and  O_10
REMARK    2  A    between atoms: O_10  and  N_13
REMARK                            x       y       z     vdW  Elec       q    Type
REMARK                         _______ _______ _______ _____ _____    ______ ____
ROOT
ATOM      1  F   UNL     1      -2.183  31.007  14.140  0.00  0.00    +0.000 F 
ATOM      2  O   UNL     1      -2.358  33.787  14.368  0.00  0.00    +0.000 OA
ATOM      3  O   UNL     1       1.960  33.701  16.163  0.00  0.00    +0.000 OA
ATOM      4  N   UNL     1      -0.266  33.777  15.418  0.00  0.00    +0.000 N 
ATOM      5  N   UNL     1      -1.252  31.745  14.763  0.00  0.00    +0.000 N 
ATOM      6  C   UNL     1      -1.399  33.163  14.813  0.00  0.00    +0.000 A 
ATOM      7  C   UNL     1       0.930  33.162  15.791  0.00  0.00    +0.000 A 
ATOM      8  C   UNL     1       0.833  31.730  15.632  0.00  0.00    +0.000 A 
ATOM      9  C   UNL     1      -0.117  31.159  15.188  0.00  0.00    +0.000 A 
ENDROOT
BRANCH   4  10
ATOM     10  O   UNL     1      -0.272  35.183  15.430  0.00  0.00    +0.000 OA
BRANCH  10  13
ATOM     11  O   UNL     1      -0.439  35.401  17.663  0.00  0.00    +0.000 OA
ATOM     12  O   UNL     1      -1.798  36.536  16.297  0.00  0.00    +0.000 OA
ATOM     13  N   UNL     1      -0.891  35.753  16.570  0.00  0.00    +0.000 N 
ENDBRANCH  10  13
ENDBRANCH   4  10
TORSDOF 2
ENDMDL
MODEL 2
REMARK VINA RESULT:      -5.1      3.015      3.899
REMARK  Name = 146026348_FluorouracilMononitrate.pdbqt.pdb
REMARK  2 active torsions:
REMARK  status: ('A' for Active; 'I' for Inactive)
REMARK    1  A    between atoms: N_4  and  O_10
REMARK    2  A    between atoms: O_10  and  N_13
REMARK                            x       y       z     vdW  Elec       q    Type
REMARK                         _______ _______ _______ _____ _____    ______ ____
ROOT
ATOM      1  F   UNL     1       0.410  28.434  15.010  0.00  0.00    +0.000 F 
ATOM      2  O   UNL     1       0.019  30.955  16.150  0.00  0.00    +0.000 OA
ATOM      3  O   UNL     1       4.663  31.219  16.644  0.00  0.00    +0.000 OA
ATOM      4  N   UNL     1       2.320  31.063  16.564  0.00  0.00    +0.000 N 
ATOM      5  N   UNL     1       1.403  29.139  15.574  0.00  0.00    +0.000 N 
ATOM      6  C   UNL     1       1.129  30.431  16.108  0.00  0.00    +0.000 A 
ATOM      7  C   UNL     1       3.632  30.614  16.399  0.00  0.00    +0.000 A 
ATOM      8  C   UNL     1       3.643  29.290  15.822  0.00  0.00    +0.000 A 
ATOM      9  C   UNL     1       2.669  28.690  15.481  0.00  0.00    +0.000 A 
ENDROOT
BRANCH   4  10
ATOM     10  O   UNL     1       2.170  32.383  17.025  0.00  0.00    +0.000 OA
BRANCH  10  13
ATOM     11  O   UNL     1       2.737  33.315  15.059  0.00  0.00    +0.000 OA
ATOM     12  O   UNL     1       0.963  34.051  16.205  0.00  0.00    +0.000 OA
ATOM     13  N   UNL     1       1.942  33.336  16.002  0.00  0.00    +0.000 N 
ENDBRANCH  10  13
ENDBRANCH   4  10
TORSDOF 2
ENDMDL
MODEL 3
REMARK VINA RESULT:      -5.0      2.443      3.711
REMARK  Name = 146026348_FluorouracilMononitrate.pdbqt.pdb
REMARK  2 active torsions:
REMARK  status: ('A' for Active; 'I' for Inactive)
REMARK    1  A    between atoms: N_4  and  O_10
REMARK    2  A    between atoms: O_10  and  N_13
REMARK                            x       y       z     vdW  Elec       q    Type
REMARK                         _______ _______ _______ _____ _____    ______ ____
ROOT
ATOM      1  F   UNL     1      -1.383  33.305  16.263  0.00  0.00    +0.000 F 
ATOM      2  O   UNL     1       0.826  34.337  14.898  0.00  0.00    +0.000 OA
ATOM      3  O   UNL     1       2.882  30.181  15.511  0.00  0.00    +0.000 OA
ATOM      4  N   UNL     1       1.955  32.331  15.321  0.00  0.00    +0.000 N 
ATOM      5  N   UNL     1      -0.221  32.642  16.153  0.00  0.00    +0.000 N 
ATOM      6  C   UNL     1       0.851  33.223  15.415  0.00  0.00    +0.000 A 
ATOM      7  C   UNL     1       2.000  30.996  15.728  0.00  0.00    +0.000 A 
ATOM      8  C   UNL     1       0.792  30.643  16.436  0.00  0.00    +0.000 A 
ATOM      9  C   UNL     1      -0.138  31.374  16.598  0.00  0.00    +0.000 A 
ENDROOT
BRANCH   4  10
ATOM     10  O   UNL     1       3.030  32.776  14.531  0.00  0.00    +0.000 OA
BRANCH  10  13
ATOM     11  O   UNL     1       4.439  33.195  16.234  0.00  0.00    +0.000 OA
ATOM     12  O   UNL     1       4.074  34.727  14.646  0.00  0.00    +0.000 OA
ATOM     13  N   UNL     1       3.928  33.642  15.203  0.00  0.00    +0.000 N 
ENDBRANCH  10  13
ENDBRANCH   4  10
TORSDOF 2
ENDMDL
MODEL 4
REMARK VINA RESULT:      -4.7     10.025     11.150
REMARK  Name = 146026348_FluorouracilMononitrate.pdbqt.pdb
REMARK  2 active torsions:
REMARK  status: ('A' for Active; 'I' for Inactive)
REMARK    1  A    between atoms: N_4  and  O_10
REMARK    2  A    between atoms: O_10  and  N_13
REMARK                            x       y       z     vdW  Elec       q    Type
REMARK                         _______ _______ _______ _____ _____    ______ ____
ROOT
ATOM      1  F   UNL     1      -0.221  44.434  18.875  0.00  0.00    +0.000 F 
ATOM      2  O   UNL     1       1.272  45.623  16.834  0.00  0.00    +0.000 OA
ATOM      3  O   UNL     1       3.239  41.440  16.123  0.00  0.00    +0.000 OA
ATOM      4  N   UNL     1       2.398  43.591  16.549  0.00  0.00    +0.000 N 
ATOM      5  N   UNL     1       0.768  43.795  18.230  0.00  0.00    +0.000 N 
ATOM      6  C   UNL     1       1.464  44.461  17.179  0.00  0.00    +0.000 A 
ATOM      7  C   UNL     1       2.556  42.221  16.764  0.00  0.00    +0.000 A 
ATOM      8  C   UNL     1       1.731  41.785  17.867  0.00  0.00    +0.000 A 
ATOM      9  C   UNL     1       0.978  42.487  18.471  0.00  0.00    +0.000 A 
ENDROOT
BRANCH   4  10
ATOM     10  O   UNL     1       3.072  44.126  15.437  0.00  0.00    +0.000 OA
BRANCH  10  13
ATOM     11  O   UNL     1       4.152  46.097  15.521  0.00  0.00    +0.000 OA
ATOM     12  O   UNL     1       5.129  44.224  16.254  0.00  0.00    +0.000 OA
ATOM     13  N   UNL     1       4.221  44.889  15.762  0.00  0.00    +0.000 N 
ENDBRANCH  10  13
ENDBRANCH   4  10
TORSDOF 2
ENDMDL
MODEL 5
REMARK VINA RESULT:      -4.7      3.288      4.813
REMARK  Name = 146026348_FluorouracilMononitrate.pdbqt.pdb
REMARK  2 active torsions:
REMARK  status: ('A' for Active; 'I' for Inactive)
REMARK    1  A    between atoms: N_4  and  O_10
REMARK    2  A    between atoms: O_10  and  N_13
REMARK                            x       y       z     vdW  Elec       q    Type
REMARK                         _______ _______ _______ _____ _____    ______ ____
ROOT
ATOM      1  F   UNL     1       0.373  34.897  15.122  0.00  0.00    +0.000 F 
ATOM      2  O   UNL     1       2.750  33.495  14.685  0.00  0.00    +0.000 OA
ATOM      3  O   UNL     1       0.498  29.652  16.110  0.00  0.00    +0.000 OA
ATOM      4  N   UNL     1       1.713  31.580  15.542  0.00  0.00    +0.000 N 
ATOM      5  N   UNL     1       0.535  33.613  15.475  0.00  0.00    +0.000 N 
ATOM      6  C   UNL     1       1.769  32.958  15.192  0.00  0.00    +0.000 A 
ATOM      7  C   UNL     1       0.593  30.859  15.960  0.00  0.00    +0.000 A 
ATOM      8  C   UNL     1      -0.531  31.743  16.159  0.00  0.00    +0.000 A 
ATOM      9  C   UNL     1      -0.519  32.917  15.941  0.00  0.00    +0.000 A 
ENDROOT
BRANCH   4  10
ATOM     10  O   UNL     1       2.852  30.823  15.215  0.00  0.00    +0.000 OA
BRANCH  10  13
ATOM     11  O   UNL     1       3.710  29.244  16.567  0.00  0.00    +0.000 OA
ATOM     12  O   UNL     1       4.169  31.408  16.899  0.00  0.00    +0.000 OA
ATOM     13  N   UNL     1       3.646  30.453  16.329  0.00  0.00    +0.000 N 
ENDBRANCH  10  13
ENDBRANCH   4  10
TORSDOF 2
ENDMDL
MODEL 6
REMARK VINA RESULT:      -4.6      5.715      7.052
REMARK  Name = 146026348_FluorouracilMononitrate.pdbqt.pdb
REMARK  2 active torsions:
REMARK  status: ('A' for Active; 'I' for Inactive)
REMARK    1  A    between atoms: N_4  and  O_10
REMARK    2  A    between atoms: O_10  and  N_13
REMARK                            x       y       z     vdW  Elec       q    Type
REMARK                         _______ _______ _______ _____ _____    ______ ____
ROOT
ATOM      1  F   UNL     1       1.628  29.087  15.212  0.00  0.00    +0.000 F 
ATOM      2  O   UNL     1       3.436  30.775  16.514  0.00  0.00    +0.000 OA
ATOM      3  O   UNL     1       6.862  28.270  14.549  0.00  0.00    +0.000 OA
ATOM      4  N   UNL     1       5.180  29.453  15.684  0.00  0.00    +0.000 N 
ATOM      5  N   UNL     1       2.952  28.870  15.216  0.00  0.00    +0.000 N 
ATOM      6  C   UNL     1       3.812  29.793  15.879  0.00  0.00    +0.000 A 
ATOM      7  C   UNL     1       5.694  28.465  14.843  0.00  0.00    +0.000 A 
ATOM      8  C   UNL     1       4.624  27.676  14.278  0.00  0.00    +0.000 A 
ATOM      9  C   UNL     1       3.462  27.879  14.460  0.00  0.00    +0.000 A 
ENDROOT
BRANCH   4  10
ATOM     10  O   UNL     1       6.113  30.358  16.221  0.00  0.00    +0.000 OA
BRANCH  10  13
ATOM     11  O   UNL     1       7.609  31.186  14.761  0.00  0.00    +0.000 OA
ATOM     12  O   UNL     1       5.727  32.301  15.228  0.00  0.00    +0.000 OA
ATOM     13  N   UNL     1       6.527  31.372  15.323  0.00  0.00    +0.000 N 
ENDBRANCH  10  13
ENDBRANCH   4  10
TORSDOF 2
ENDMDL
MODEL 7
REMARK VINA RESULT:      -4.5      9.838     10.902
REMARK  Name = 146026348_FluorouracilMononitrate.pdbqt.pdb
REMARK  2 active torsions:
REMARK  status: ('A' for Active; 'I' for Inactive)
REMARK    1  A    between atoms: N_4  and  O_10
REMARK    2  A    between atoms: O_10  and  N_13
REMARK                            x       y       z     vdW  Elec       q    Type
REMARK                         _______ _______ _______ _____ _____    ______ ____
ROOT
ATOM      1  F   UNL     1      -0.396  44.753  14.611  0.00  0.00    +0.000 F 
ATOM      2  O   UNL     1       2.063  45.675  15.566  0.00  0.00    +0.000 OA
ATOM      3  O   UNL     1       2.804  41.359  17.211  0.00  0.00    +0.000 OA
ATOM      4  N   UNL     1       2.406  43.577  16.545  0.00  0.00    +0.000 N 
ATOM      5  N   UNL     1       0.404  44.012  15.393  0.00  0.00    +0.000 N 
ATOM      6  C   UNL     1       1.658  44.543  15.816  0.00  0.00    +0.000 A 
ATOM      7  C   UNL     1       2.097  42.227  16.725  0.00  0.00    +0.000 A 
ATOM      8  C   UNL     1       0.785  41.936  16.196  0.00  0.00    +0.000 A 
ATOM      9  C   UNL     1       0.089  42.725  15.632  0.00  0.00    +0.000 A 
ENDROOT
BRANCH   4  10
ATOM     10  O   UNL     1       3.700  43.973  16.928  0.00  0.00    +0.000 OA
BRANCH  10  13
ATOM     11  O   UNL     1       4.703  43.034  15.147  0.00  0.00    +0.000 OA
ATOM     12  O   UNL     1       5.231  45.108  15.796  0.00  0.00    +0.000 OA
ATOM     13  N   UNL     1       4.630  44.038  15.860  0.00  0.00    +0.000 N 
ENDBRANCH  10  13
ENDBRANCH   4  10
TORSDOF 2
ENDMDL
MODEL 8
REMARK VINA RESULT:      -4.4      6.954      8.636
REMARK  Name = 146026348_FluorouracilMononitrate.pdbqt.pdb
REMARK  2 active torsions:
REMARK  status: ('A' for Active; 'I' for Inactive)
REMARK    1  A    between atoms: N_4  and  O_10
REMARK    2  A    between atoms: O_10  and  N_13
REMARK                            x       y       z     vdW  Elec       q    Type
REMARK                         _______ _______ _______ _____ _____    ______ ____
ROOT
ATOM      1  F   UNL     1       4.776  32.833  16.590  0.00  0.00    +0.000 F 
ATOM      2  O   UNL     1       7.128  31.962  15.357  0.00  0.00    +0.000 OA
ATOM      3  O   UNL     1       5.032  27.825  14.755  0.00  0.00    +0.000 OA
ATOM      4  N   UNL     1       6.179  29.830  15.178  0.00  0.00    +0.000 N 
ATOM      5  N   UNL     1       4.978  31.556  16.228  0.00  0.00    +0.000 N 
ATOM      6  C   UNL     1       6.194  31.196  15.577  0.00  0.00    +0.000 A 
ATOM      7  C   UNL     1       5.102  28.944  15.236  0.00  0.00    +0.000 A 
ATOM      8  C   UNL     1       3.987  29.549  15.926  0.00  0.00    +0.000 A 
ATOM      9  C   UNL     1       3.970  30.670  16.336  0.00  0.00    +0.000 A 
ENDROOT
BRANCH   4  10
ATOM     10  O   UNL     1       7.299  29.399  14.443  0.00  0.00    +0.000 OA
BRANCH  10  13
ATOM     11  O   UNL     1       8.329  27.414  14.674  0.00  0.00    +0.000 OA
ATOM     12  O   UNL     1       8.650  29.050  16.164  0.00  0.00    +0.000 OA
ATOM     13  N   UNL     1       8.169  28.538  15.157  0.00  0.00    +0.000 N 
ENDBRANCH  10  13
ENDBRANCH   4  10
TORSDOF 2
ENDMDL
MODEL 9
REMARK VINA RESULT:      -4.2     10.845     12.119
REMARK  Name = 146026348_FluorouracilMononitrate.pdbqt.pdb
REMARK  2 active torsions:
REMARK  status: ('A' for Active; 'I' for Inactive)
REMARK    1  A    between atoms: N_4  and  O_10
REMARK    2  A    between atoms: O_10  and  N_13
REMARK                            x       y       z     vdW  Elec       q    Type
REMARK                         _______ _______ _______ _____ _____    ______ ____
ROOT
ATOM      1  F   UNL     1       3.766  46.907  18.987  0.00  0.00    +0.000 F 
ATOM      2  O   UNL     1       4.584  45.552  16.684  0.00  0.00    +0.000 OA
ATOM      3  O   UNL     1       0.855  42.785  17.242  0.00  0.00    +0.000 OA
ATOM      4  N   UNL     1       2.824  44.045  17.013  0.00  0.00    +0.000 N 
ATOM      5  N   UNL     1       3.178  45.779  18.559  0.00  0.00    +0.000 N 
ATOM      6  C   UNL     1       3.635  45.162  17.358  0.00  0.00    +0.000 A 
ATOM      7  C   UNL     1       1.636  43.641  17.624  0.00  0.00    +0.000 A 
ATOM      8  C   UNL     1       1.384  44.430  18.807  0.00  0.00    +0.000 A 
ATOM      9  C   UNL     1       2.066  45.338  19.176  0.00  0.00    +0.000 A 
ENDROOT
BRANCH   4  10
ATOM     10  O   UNL     1       3.136  43.422  15.791  0.00  0.00    +0.000 OA
BRANCH  10  13
ATOM     11  O   UNL     1       3.714  41.369  16.503  0.00  0.00    +0.000 OA
ATOM     12  O   UNL     1       5.157  42.627  15.348  0.00  0.00    +0.000 OA
ATOM     13  N   UNL     1       4.086  42.376  15.896  0.00  0.00    +0.000 N 
ENDBRANCH  10  13
ENDBRANCH   4  10
TORSDOF 2
ENDMDL
