MODEL 1
REMARK VINA RESULT:      -9.5      0.000      0.000
REMARK  Name = 179268_Nortopsentin.pdbqt.pdb
REMARK  2 active torsions:
REMARK  status: ('A' for Active; 'I' for Inactive)
REMARK    1  A    between atoms: C_3  and  C_9
REMARK    2  A    between atoms: C_4  and  C_20
REMARK                            x       y       z     vdW  Elec       q    Type
REMARK                         _______ _______ _______ _____ _____    ______ ____
ROOT
ATOM      1  N   UNL     1       3.430  31.103  14.971  0.00  0.00    +0.000 N 
ATOM      2  N   UNL     1       3.751  32.518  16.641  0.00  0.00    +0.000 NA
ATOM      3  C   UNL     1       4.575  30.689  15.594  0.00  0.00    +0.000 A 
ATOM      4  C   UNL     1       2.962  32.210  15.632  0.00  0.00    +0.000 A 
ATOM      5  C   UNL     1       4.755  31.581  16.627  0.00  0.00    +0.000 A 
ATOM      6  H   UNL     1       2.994  30.678  14.167  0.00  0.00    +0.000 HD
ENDROOT
BRANCH   3   9
ATOM      7 BR   UNL     1      11.186  27.702  15.674  0.00  0.00    +0.000 Br
ATOM      8  N   UNL     1       5.995  27.560  14.399  0.00  0.00    +0.000 N 
ATOM      9  C   UNL     1       5.422  29.536  15.229  0.00  0.00    +0.000 A 
ATOM     10  C   UNL     1       6.815  29.347  15.460  0.00  0.00    +0.000 A 
ATOM     11  C   UNL     1       7.146  28.097  14.928  0.00  0.00    +0.000 A 
ATOM     12  C   UNL     1       4.950  28.422  14.576  0.00  0.00    +0.000 A 
ATOM     13  C   UNL     1       7.833  30.108  16.067  0.00  0.00    +0.000 A 
ATOM     14  C   UNL     1       8.442  27.569  14.971  0.00  0.00    +0.000 A 
ATOM     15  C   UNL     1       9.131  29.601  16.122  0.00  0.00    +0.000 A 
ATOM     16  C   UNL     1       9.420  28.354  15.581  0.00  0.00    +0.000 A 
ATOM     17  H   UNL     1       5.930  26.658  13.944  0.00  0.00    +0.000 HD
ENDBRANCH   3   9
BRANCH   4  20
ATOM     18 BR   UNL     1      -4.232  31.977  14.794  0.00  0.00    +0.000 Br
ATOM     19  N   UNL     1       0.415  34.616  14.606  0.00  0.00    +0.000 N 
ATOM     20  C   UNL     1       1.733  32.955  15.259  0.00  0.00    +0.000 A 
ATOM     21  C   UNL     1       0.395  32.472  15.232  0.00  0.00    +0.000 A 
ATOM     22  C   UNL     1      -0.411  33.535  14.818  0.00  0.00    +0.000 A 
ATOM     23  C   UNL     1       1.714  34.275  14.869  0.00  0.00    +0.000 A 
ATOM     24  C   UNL     1      -0.215  31.235  15.518  0.00  0.00    +0.000 A 
ATOM     25  C   UNL     1      -1.797  33.429  14.675  0.00  0.00    +0.000 A 
ATOM     26  C   UNL     1      -1.598  31.106  15.381  0.00  0.00    +0.000 A 
ATOM     27  C   UNL     1      -2.365  32.187  14.967  0.00  0.00    +0.000 A 
ATOM     28  H   UNL     1       0.104  35.528  14.300  0.00  0.00    +0.000 HD
ENDBRANCH   4  20
TORSDOF 2
ENDMDL
MODEL 2
REMARK VINA RESULT:      -9.3      2.367      9.120
REMARK  Name = 179268_Nortopsentin.pdbqt.pdb
REMARK  2 active torsions:
REMARK  status: ('A' for Active; 'I' for Inactive)
REMARK    1  A    between atoms: C_3  and  C_9
REMARK    2  A    between atoms: C_4  and  C_20
REMARK                            x       y       z     vdW  Elec       q    Type
REMARK                         _______ _______ _______ _____ _____    ______ ____
ROOT
ATOM      1  N   UNL     1       2.550  32.065  14.758  0.00  0.00    +0.000 N 
ATOM      2  N   UNL     1       1.664  30.988  16.475  0.00  0.00    +0.000 NA
ATOM      3  C   UNL     1       1.602  32.904  15.274  0.00  0.00    +0.000 A 
ATOM      4  C   UNL     1       2.557  30.917  15.511  0.00  0.00    +0.000 A 
ATOM      5  C   UNL     1       1.065  32.217  16.338  0.00  0.00    +0.000 A 
ATOM      6  H   UNL     1       3.147  32.243  13.965  0.00  0.00    +0.000 HD
ENDROOT
BRANCH   3   9
ATOM      7 BR   UNL     1      -2.642  38.741  16.024  0.00  0.00    +0.000 Br
ATOM      8  N   UNL     1       1.290  36.094  13.550  0.00  0.00    +0.000 N 
ATOM      9  C   UNL     1       1.244  34.251  14.787  0.00  0.00    +0.000 A 
ATOM     10  C   UNL     1       0.244  35.139  15.278  0.00  0.00    +0.000 A 
ATOM     11  C   UNL     1       0.296  36.287  14.482  0.00  0.00    +0.000 A 
ATOM     12  C   UNL     1       1.867  34.868  13.727  0.00  0.00    +0.000 A 
ATOM     13  C   UNL     1      -0.704  35.088  16.319  0.00  0.00    +0.000 A 
ATOM     14  C   UNL     1      -0.549  37.386  14.672  0.00  0.00    +0.000 A 
ATOM     15  C   UNL     1      -1.556  36.172  16.527  0.00  0.00    +0.000 A 
ATOM     16  C   UNL     1      -1.473  37.295  15.713  0.00  0.00    +0.000 A 
ATOM     17  H   UNL     1       1.556  36.760  12.837  0.00  0.00    +0.000 HD
ENDBRANCH   3   9
BRANCH   4  20
ATOM     18 BR   UNL     1       9.368  28.443  15.456  0.00  0.00    +0.000 Br
ATOM     19  N   UNL     1       4.119  27.706  14.750  0.00  0.00    +0.000 N 
ATOM     20  C   UNL     1       3.453  29.759  15.267  0.00  0.00    +0.000 A 
ATOM     21  C   UNL     1       4.869  29.711  15.388  0.00  0.00    +0.000 A 
ATOM     22  C   UNL     1       5.260  28.411  15.057  0.00  0.00    +0.000 A 
ATOM     23  C   UNL     1       3.020  28.513  14.874  0.00  0.00    +0.000 A 
ATOM     24  C   UNL     1       5.863  30.643  15.746  0.00  0.00    +0.000 A 
ATOM     25  C   UNL     1       6.594  27.992  15.066  0.00  0.00    +0.000 A 
ATOM     26  C   UNL     1       7.201  30.246  15.760  0.00  0.00    +0.000 A 
ATOM     27  C   UNL     1       7.549  28.945  15.425  0.00  0.00    +0.000 A 
ATOM     28  H   UNL     1       4.098  26.734  14.473  0.00  0.00    +0.000 HD
ENDBRANCH   4  20
TORSDOF 2
ENDMDL
MODEL 3
REMARK VINA RESULT:      -9.1      4.245      5.943
REMARK  Name = 179268_Nortopsentin.pdbqt.pdb
REMARK  2 active torsions:
REMARK  status: ('A' for Active; 'I' for Inactive)
REMARK    1  A    between atoms: C_3  and  C_9
REMARK    2  A    between atoms: C_4  and  C_20
REMARK                            x       y       z     vdW  Elec       q    Type
REMARK                         _______ _______ _______ _____ _____    ______ ____
ROOT
ATOM      1  N   UNL     1       6.911  31.409  15.236  0.00  0.00    +0.000 N 
ATOM      2  N   UNL     1       7.492  29.490  16.170  0.00  0.00    +0.000 NA
ATOM      3  C   UNL     1       8.236  31.535  15.552  0.00  0.00    +0.000 A 
ATOM      4  C   UNL     1       6.498  30.160  15.626  0.00  0.00    +0.000 A 
ATOM      5  C   UNL     1       8.576  30.333  16.130  0.00  0.00    +0.000 A 
ATOM      6  H   UNL     1       6.328  32.104  14.795  0.00  0.00    +0.000 HD
ENDROOT
BRANCH   3   9
ATOM      7 BR   UNL     1       9.396  38.599  16.733  0.00  0.00    +0.000 Br
ATOM      8  N   UNL     1      10.800  33.919  14.561  0.00  0.00    +0.000 N 
ATOM      9  C   UNL     1       9.101  32.709  15.318  0.00  0.00    +0.000 A 
ATOM     10  C   UNL     1       8.936  34.043  15.787  0.00  0.00    +0.000 A 
ATOM     11  C   UNL     1      10.018  34.780  15.296  0.00  0.00    +0.000 A 
ATOM     12  C   UNL     1      10.254  32.667  14.570  0.00  0.00    +0.000 A 
ATOM     13  C   UNL     1       7.978  34.706  16.579  0.00  0.00    +0.000 A 
ATOM     14  C   UNL     1      10.192  36.145  15.555  0.00  0.00    +0.000 A 
ATOM     15  C   UNL     1       8.132  36.066  16.851  0.00  0.00    +0.000 A 
ATOM     16  C   UNL     1       9.222  36.763  16.344  0.00  0.00    +0.000 A 
ATOM     17  H   UNL     1      11.655  34.173  14.084  0.00  0.00    +0.000 HD
ENDBRANCH   3   9
BRANCH   4  20
ATOM     18 BR   UNL     1      -0.589  31.420  16.461  0.00  0.00    +0.000 Br
ATOM     19  N   UNL     1       3.452  28.275  14.920  0.00  0.00    +0.000 N 
ATOM     20  C   UNL     1       5.118  29.640  15.453  0.00  0.00    +0.000 A 
ATOM     21  C   UNL     1       3.895  30.286  15.785  0.00  0.00    +0.000 A 
ATOM     22  C   UNL     1       2.866  29.407  15.440  0.00  0.00    +0.000 A 
ATOM     23  C   UNL     1       4.814  28.407  14.923  0.00  0.00    +0.000 A 
ATOM     24  C   UNL     1       3.557  31.534  16.346  0.00  0.00    +0.000 A 
ATOM     25  C   UNL     1       1.514  29.708  15.626  0.00  0.00    +0.000 A 
ATOM     26  C   UNL     1       2.212  31.854  16.541  0.00  0.00    +0.000 A 
ATOM     27  C   UNL     1       1.218  30.952  16.184  0.00  0.00    +0.000 A 
ATOM     28  H   UNL     1       2.947  27.466  14.584  0.00  0.00    +0.000 HD
ENDBRANCH   4  20
TORSDOF 2
ENDMDL
MODEL 4
REMARK VINA RESULT:      -8.8      3.304      8.434
REMARK  Name = 179268_Nortopsentin.pdbqt.pdb
REMARK  2 active torsions:
REMARK  status: ('A' for Active; 'I' for Inactive)
REMARK    1  A    between atoms: C_3  and  C_9
REMARK    2  A    between atoms: C_4  and  C_20
REMARK                            x       y       z     vdW  Elec       q    Type
REMARK                         _______ _______ _______ _____ _____    ______ ____
ROOT
ATOM      1  N   UNL     1       6.690  29.757  16.011  0.00  0.00    +0.000 N 
ATOM      2  N   UNL     1       8.297  28.419  15.288  0.00  0.00    +0.000 NA
ATOM      3  C   UNL     1       6.063  28.775  15.295  0.00  0.00    +0.000 A 
ATOM      4  C   UNL     1       8.039  29.507  15.984  0.00  0.00    +0.000 A 
ATOM      5  C   UNL     1       7.078  27.956  14.856  0.00  0.00    +0.000 A 
ATOM      6  H   UNL     1       6.251  30.534  16.482  0.00  0.00    +0.000 HD
ENDROOT
BRANCH   3   9
ATOM      7 BR   UNL     1      -0.592  31.471  16.343  0.00  0.00    +0.000 Br
ATOM      8  N   UNL     1       2.703  27.787  14.304  0.00  0.00    +0.000 N 
ATOM      9  C   UNL     1       4.613  28.636  15.053  0.00  0.00    +0.000 A 
ATOM     10  C   UNL     1       3.552  29.481  15.489  0.00  0.00    +0.000 A 
ATOM     11  C   UNL     1       2.365  28.922  15.003  0.00  0.00    +0.000 A 
ATOM     12  C   UNL     1       4.058  27.607  14.329  0.00  0.00    +0.000 A 
ATOM     13  C   UNL     1       3.474  30.665  16.247  0.00  0.00    +0.000 A 
ATOM     14  C   UNL     1       1.106  29.486  15.237  0.00  0.00    +0.000 A 
ATOM     15  C   UNL     1       2.229  31.245  16.492  0.00  0.00    +0.000 A 
ATOM     16  C   UNL     1       1.073  30.659  15.992  0.00  0.00    +0.000 A 
ATOM     17  H   UNL     1       2.048  27.174  13.838  0.00  0.00    +0.000 HD
ENDBRANCH   3   9
BRANCH   4  20
ATOM     18 BR   UNL     1      10.534  36.212  17.135  0.00  0.00    +0.000 Br
ATOM     19  N   UNL     1      10.816  30.925  17.882  0.00  0.00    +0.000 N 
ATOM     20  C   UNL     1       9.062  30.351  16.650  0.00  0.00    +0.000 A 
ATOM     21  C   UNL     1       9.192  31.767  16.601  0.00  0.00    +0.000 A 
ATOM     22  C   UNL     1      10.301  32.099  17.383  0.00  0.00    +0.000 A 
ATOM     23  C   UNL     1      10.074  29.861  17.444  0.00  0.00    +0.000 A 
ATOM     24  C   UNL     1       8.477  32.803  15.970  0.00  0.00    +0.000 A 
ATOM     25  C   UNL     1      10.735  33.415  17.568  0.00  0.00    +0.000 A 
ATOM     26  C   UNL     1       8.893  34.125  16.140  0.00  0.00    +0.000 A 
ATOM     27  C   UNL     1      10.001  34.414  16.926  0.00  0.00    +0.000 A 
ATOM     28  H   UNL     1      11.626  30.860  18.484  0.00  0.00    +0.000 HD
ENDBRANCH   4  20
TORSDOF 2
ENDMDL
MODEL 5
REMARK VINA RESULT:      -8.6      3.128      9.171
REMARK  Name = 179268_Nortopsentin.pdbqt.pdb
REMARK  2 active torsions:
REMARK  status: ('A' for Active; 'I' for Inactive)
REMARK    1  A    between atoms: C_3  and  C_9
REMARK    2  A    between atoms: C_4  and  C_20
REMARK                            x       y       z     vdW  Elec       q    Type
REMARK                         _______ _______ _______ _____ _____    ______ ____
ROOT
ATOM      1  N   UNL     1       6.831  29.762  16.163  0.00  0.00    +0.000 N 
ATOM      2  N   UNL     1       8.474  28.496  15.393  0.00  0.00    +0.000 NA
ATOM      3  C   UNL     1       6.233  28.806  15.390  0.00  0.00    +0.000 A 
ATOM      4  C   UNL     1       8.185  29.541  16.140  0.00  0.00    +0.000 A 
ATOM      5  C   UNL     1       7.270  28.031  14.922  0.00  0.00    +0.000 A 
ATOM      6  H   UNL     1       6.372  30.505  16.668  0.00  0.00    +0.000 HD
ENDROOT
BRANCH   3   9
ATOM      7 BR   UNL     1      -0.473  31.403  16.361  0.00  0.00    +0.000 Br
ATOM      8  N   UNL     1       2.903  27.786  14.334  0.00  0.00    +0.000 N 
ATOM      9  C   UNL     1       4.789  28.651  15.123  0.00  0.00    +0.000 A 
ATOM     10  C   UNL     1       3.710  29.477  15.551  0.00  0.00    +0.000 A 
ATOM     11  C   UNL     1       2.539  28.908  15.040  0.00  0.00    +0.000 A 
ATOM     12  C   UNL     1       4.259  27.623  14.378  0.00  0.00    +0.000 A 
ATOM     13  C   UNL     1       3.605  30.651  16.321  0.00  0.00    +0.000 A 
ATOM     14  C   UNL     1       1.269  29.453  15.260  0.00  0.00    +0.000 A 
ATOM     15  C   UNL     1       2.348  31.212  16.553  0.00  0.00    +0.000 A 
ATOM     16  C   UNL     1       1.208  30.617  16.027  0.00  0.00    +0.000 A 
ATOM     17  H   UNL     1       2.263  27.169  13.851  0.00  0.00    +0.000 HD
ENDBRANCH   3   9
BRANCH   4  20
ATOM     18 BR   UNL     1      13.046  29.847  21.506  0.00  0.00    +0.000 Br
ATOM     19  N   UNL     1      10.441  32.110  17.420  0.00  0.00    +0.000 N 
ATOM     20  C   UNL     1       9.184  30.369  16.861  0.00  0.00    +0.000 A 
ATOM     21  C   UNL     1       9.993  29.992  17.969  0.00  0.00    +0.000 A 
ATOM     22  C   UNL     1      10.772  31.104  18.299  0.00  0.00    +0.000 A 
ATOM     23  C   UNL     1       9.481  31.676  16.547  0.00  0.00    +0.000 A 
ATOM     24  C   UNL     1      10.144  28.814  18.727  0.00  0.00    +0.000 A 
ATOM     25  C   UNL     1      11.696  31.101  19.348  0.00  0.00    +0.000 A 
ATOM     26  C   UNL     1      11.060  28.790  19.780  0.00  0.00    +0.000 A 
ATOM     27  C   UNL     1      11.816  29.916  20.076  0.00  0.00    +0.000 A 
ATOM     28  H   UNL     1      10.850  33.035  17.422  0.00  0.00    +0.000 HD
ENDBRANCH   4  20
TORSDOF 2
ENDMDL
MODEL 6
REMARK VINA RESULT:      -8.4      2.428      9.680
REMARK  Name = 179268_Nortopsentin.pdbqt.pdb
REMARK  2 active torsions:
REMARK  status: ('A' for Active; 'I' for Inactive)
REMARK    1  A    between atoms: C_3  and  C_9
REMARK    2  A    between atoms: C_4  and  C_20
REMARK                            x       y       z     vdW  Elec       q    Type
REMARK                         _______ _______ _______ _____ _____    ______ ____
ROOT
ATOM      1  N   UNL     1       6.239  28.485  15.183  0.00  0.00    +0.000 N 
ATOM      2  N   UNL     1       7.438  30.136  16.037  0.00  0.00    +0.000 NA
ATOM      3  C   UNL     1       5.338  29.444  15.556  0.00  0.00    +0.000 A 
ATOM      4  C   UNL     1       7.497  28.940  15.490  0.00  0.00    +0.000 A 
ATOM      5  C   UNL     1       6.103  30.459  16.084  0.00  0.00    +0.000 A 
ATOM      6  H   UNL     1       6.031  27.595  14.756  0.00  0.00    +0.000 HD
ENDROOT
BRANCH   3   9
ATOM      7 BR   UNL     1      -0.987  32.947  16.155  0.00  0.00    +0.000 Br
ATOM      8  N   UNL     1       1.852  28.568  14.990  0.00  0.00    +0.000 N 
ATOM      9  C   UNL     1       3.869  29.389  15.418  0.00  0.00    +0.000 A 
ATOM     10  C   UNL     1       2.913  30.415  15.667  0.00  0.00    +0.000 A 
ATOM     11  C   UNL     1       1.655  29.870  15.389  0.00  0.00    +0.000 A 
ATOM     12  C   UNL     1       3.185  28.270  15.004  0.00  0.00    +0.000 A 
ATOM     13  C   UNL     1       2.983  31.753  16.100  0.00  0.00    +0.000 A 
ATOM     14  C   UNL     1       0.465  30.594  15.523  0.00  0.00    +0.000 A 
ATOM     15  C   UNL     1       1.809  32.494  16.240  0.00  0.00    +0.000 A 
ATOM     16  C   UNL     1       0.578  31.916  15.954  0.00  0.00    +0.000 A 
ATOM     17  H   UNL     1       1.119  27.925  14.724  0.00  0.00    +0.000 HD
ENDBRANCH   3   9
BRANCH   4  20
ATOM     18 BR   UNL     1      14.627  28.472  16.691  0.00  0.00    +0.000 Br
ATOM     19  N   UNL     1      10.129  26.629  14.462  0.00  0.00    +0.000 N 
ATOM     20  C   UNL     1       8.749  28.184  15.237  0.00  0.00    +0.000 A 
ATOM     21  C   UNL     1      10.056  28.476  15.717  0.00  0.00    +0.000 A 
ATOM     22  C   UNL     1      10.902  27.484  15.215  0.00  0.00    +0.000 A 
ATOM     23  C   UNL     1       8.825  27.045  14.469  0.00  0.00    +0.000 A 
ATOM     24  C   UNL     1      10.608  29.486  16.530  0.00  0.00    +0.000 A 
ATOM     25  C   UNL     1      12.274  27.447  15.483  0.00  0.00    +0.000 A 
ATOM     26  C   UNL     1      11.976  29.469  16.809  0.00  0.00    +0.000 A 
ATOM     27  C   UNL     1      12.783  28.465  16.291  0.00  0.00    +0.000 A 
ATOM     28  H   UNL     1      10.478  25.814  13.976  0.00  0.00    +0.000 HD
ENDBRANCH   4  20
TORSDOF 2
ENDMDL
MODEL 7
REMARK VINA RESULT:      -8.3      2.091      9.118
REMARK  Name = 179268_Nortopsentin.pdbqt.pdb
REMARK  2 active torsions:
REMARK  status: ('A' for Active; 'I' for Inactive)
REMARK    1  A    between atoms: C_3  and  C_9
REMARK    2  A    between atoms: C_4  and  C_20
REMARK                            x       y       z     vdW  Elec       q    Type
REMARK                         _______ _______ _______ _____ _____    ______ ____
ROOT
ATOM      1  N   UNL     1       6.088  29.955  15.982  0.00  0.00    +0.000 N 
ATOM      2  N   UNL     1       6.904  31.987  15.666  0.00  0.00    +0.000 NA
ATOM      3  C   UNL     1       5.011  30.748  15.698  0.00  0.00    +0.000 A 
ATOM      4  C   UNL     1       7.214  30.740  15.954  0.00  0.00    +0.000 A 
ATOM      5  C   UNL     1       5.540  32.005  15.505  0.00  0.00    +0.000 A 
ATOM      6  H   UNL     1       6.074  28.967  16.180  0.00  0.00    +0.000 HD
ENDROOT
BRANCH   3   9
ATOM      7 BR   UNL     1      -1.866  32.717  14.484  0.00  0.00    +0.000 Br
ATOM      8  N   UNL     1       1.809  29.021  15.680  0.00  0.00    +0.000 N 
ATOM      9  C   UNL     1       3.596  30.335  15.617  0.00  0.00    +0.000 A 
ATOM     10  C   UNL     1       2.453  31.130  15.319  0.00  0.00    +0.000 A 
ATOM     11  C   UNL     1       1.345  30.278  15.366  0.00  0.00    +0.000 A 
ATOM     12  C   UNL     1       3.166  29.047  15.834  0.00  0.00    +0.000 A 
ATOM     13  C   UNL     1       2.240  32.488  15.013  0.00  0.00    +0.000 A 
ATOM     14  C   UNL     1       0.037  30.713  15.123  0.00  0.00    +0.000 A 
ATOM     15  C   UNL     1       0.945  32.944  14.766  0.00  0.00    +0.000 A 
ATOM     16  C   UNL     1      -0.130  32.065  14.823  0.00  0.00    +0.000 A 
ATOM     17  H   UNL     1       1.231  28.197  15.783  0.00  0.00    +0.000 HD
ENDBRANCH   3   9
BRANCH   4  20
ATOM     18 BR   UNL     1      12.008  25.400  14.950  0.00  0.00    +0.000 Br
ATOM     19  N   UNL     1      10.677  30.173  16.960  0.00  0.00    +0.000 N 
ATOM     20  C   UNL     1       8.589  30.245  16.212  0.00  0.00    +0.000 A 
ATOM     21  C   UNL     1       9.169  29.018  15.785  0.00  0.00    +0.000 A 
ATOM     22  C   UNL     1      10.479  29.000  16.269  0.00  0.00    +0.000 A 
ATOM     23  C   UNL     1       9.539  30.933  16.932  0.00  0.00    +0.000 A 
ATOM     24  C   UNL     1       8.712  27.918  15.034  0.00  0.00    +0.000 A 
ATOM     25  C   UNL     1      11.360  27.938  16.041  0.00  0.00    +0.000 A 
ATOM     26  C   UNL     1       9.574  26.846  14.795  0.00  0.00    +0.000 A 
ATOM     27  C   UNL     1      10.870  26.866  15.293  0.00  0.00    +0.000 A 
ATOM     28  H   UNL     1      11.539  30.433  17.421  0.00  0.00    +0.000 HD
ENDBRANCH   4  20
TORSDOF 2
ENDMDL
MODEL 8
REMARK VINA RESULT:      -8.1     19.952     21.818
REMARK  Name = 179268_Nortopsentin.pdbqt.pdb
REMARK  2 active torsions:
REMARK  status: ('A' for Active; 'I' for Inactive)
REMARK    1  A    between atoms: C_3  and  C_9
REMARK    2  A    between atoms: C_4  and  C_20
REMARK                            x       y       z     vdW  Elec       q    Type
REMARK                         _______ _______ _______ _____ _____    ______ ____
ROOT
ATOM      1  N   UNL     1     -15.778  29.839  21.718  0.00  0.00    +0.000 N 
ATOM      2  N   UNL     1     -14.638  28.313  22.842  0.00  0.00    +0.000 NA
ATOM      3  C   UNL     1     -15.543  28.825  20.832  0.00  0.00    +0.000 A 
ATOM      4  C   UNL     1     -15.216  29.493  22.921  0.00  0.00    +0.000 A 
ATOM      5  C   UNL     1     -14.834  27.888  21.550  0.00  0.00    +0.000 A 
ATOM      6  H   UNL     1     -16.276  30.697  21.534  0.00  0.00    +0.000 HD
ENDROOT
BRANCH   3   9
ATOM      7 BR   UNL     1     -20.689  26.965  16.067  0.00  0.00    +0.000 Br
ATOM      8  N   UNL     1     -15.873  28.986  17.212  0.00  0.00    +0.000 N 
ATOM      9  C   UNL     1     -15.963  28.760  19.418  0.00  0.00    +0.000 A 
ATOM     10  C   UNL     1     -17.184  28.269  18.873  0.00  0.00    +0.000 A 
ATOM     11  C   UNL     1     -17.098  28.424  17.486  0.00  0.00    +0.000 A 
ATOM     12  C   UNL     1     -15.181  29.192  18.372  0.00  0.00    +0.000 A 
ATOM     13  C   UNL     1     -18.357  27.707  19.414  0.00  0.00    +0.000 A 
ATOM     14  C   UNL     1     -18.124  28.046  16.612  0.00  0.00    +0.000 A 
ATOM     15  C   UNL     1     -19.392  27.324  18.561  0.00  0.00    +0.000 A 
ATOM     16  C   UNL     1     -19.269  27.495  17.188  0.00  0.00    +0.000 A 
ATOM     17  H   UNL     1     -15.532  29.215  16.288  0.00  0.00    +0.000 HD
ENDBRANCH   3   9
BRANCH   4  20
ATOM     18 BR   UNL     1     -14.589  36.161  25.688  0.00  0.00    +0.000 Br
ATOM     19  N   UNL     1     -15.467  30.918  26.272  0.00  0.00    +0.000 N 
ATOM     20  C   UNL     1     -15.258  30.337  24.141  0.00  0.00    +0.000 A 
ATOM     21  C   UNL     1     -15.057  31.742  24.237  0.00  0.00    +0.000 A 
ATOM     22  C   UNL     1     -15.194  32.080  25.586  0.00  0.00    +0.000 A 
ATOM     23  C   UNL     1     -15.507  29.859  25.407  0.00  0.00    +0.000 A 
ATOM     24  C   UNL     1     -14.773  32.765  23.311  0.00  0.00    +0.000 A 
ATOM     25  C   UNL     1     -15.062  33.388  26.060  0.00  0.00    +0.000 A 
ATOM     26  C   UNL     1     -14.636  34.079  23.763  0.00  0.00    +0.000 A 
ATOM     27  C   UNL     1     -14.780  34.374  25.113  0.00  0.00    +0.000 A 
ATOM     28  H   UNL     1     -15.616  30.860  27.271  0.00  0.00    +0.000 HD
ENDBRANCH   4  20
TORSDOF 2
ENDMDL
MODEL 9
REMARK VINA RESULT:      -8.1      6.104      7.885
REMARK  Name = 179268_Nortopsentin.pdbqt.pdb
REMARK  2 active torsions:
REMARK  status: ('A' for Active; 'I' for Inactive)
REMARK    1  A    between atoms: C_3  and  C_9
REMARK    2  A    between atoms: C_4  and  C_20
REMARK                            x       y       z     vdW  Elec       q    Type
REMARK                         _______ _______ _______ _____ _____    ______ ____
ROOT
ATOM      1  N   UNL     1       8.708  33.337  15.824  0.00  0.00    +0.000 N 
ATOM      2  N   UNL     1       6.761  33.953  16.673  0.00  0.00    +0.000 NA
ATOM      3  C   UNL     1       8.849  34.655  16.158  0.00  0.00    +0.000 A 
ATOM      4  C   UNL     1       7.433  32.949  16.150  0.00  0.00    +0.000 A 
ATOM      5  C   UNL     1       7.629  35.018  16.683  0.00  0.00    +0.000 A 
ATOM      6  H   UNL     1       9.409  32.742  15.410  0.00  0.00    +0.000 HD
ENDROOT
BRANCH   3   9
ATOM      7 BR   UNL     1      11.867  41.215  16.869  0.00  0.00    +0.000 Br
ATOM      8  N   UNL     1      12.133  36.062  15.467  0.00  0.00    +0.000 N 
ATOM      9  C   UNL     1      10.051  35.495  15.988  0.00  0.00    +0.000 A 
ATOM     10  C   UNL     1      10.221  36.877  16.287  0.00  0.00    +0.000 A 
ATOM     11  C   UNL     1      11.538  37.205  15.950  0.00  0.00    +0.000 A 
ATOM     12  C   UNL     1      11.243  35.025  15.488  0.00  0.00    +0.000 A 
ATOM     13  C   UNL     1       9.392  37.889  16.811  0.00  0.00    +0.000 A 
ATOM     14  C   UNL     1      12.069  38.490  16.108  0.00  0.00    +0.000 A 
ATOM     15  C   UNL     1       9.901  39.177  16.977  0.00  0.00    +0.000 A 
ATOM     16  C   UNL     1      11.215  39.462  16.630  0.00  0.00    +0.000 A 
ATOM     17  H   UNL     1      13.089  35.996  15.145  0.00  0.00    +0.000 HD
ENDBRANCH   3   9
BRANCH   4  20
ATOM     18 BR   UNL     1       1.529  28.876  15.119  0.00  0.00    +0.000 Br
ATOM     19  N   UNL     1       6.823  29.381  15.677  0.00  0.00    +0.000 N 
ATOM     20  C   UNL     1       6.891  31.583  15.940  0.00  0.00    +0.000 A 
ATOM     21  C   UNL     1       5.532  31.201  15.768  0.00  0.00    +0.000 A 
ATOM     22  C   UNL     1       5.519  29.813  15.605  0.00  0.00    +0.000 A 
ATOM     23  C   UNL     1       7.661  30.444  15.881  0.00  0.00    +0.000 A 
ATOM     24  C   UNL     1       4.307  31.896  15.732  0.00  0.00    +0.000 A 
ATOM     25  C   UNL     1       4.344  29.081  15.409  0.00  0.00    +0.000 A 
ATOM     26  C   UNL     1       3.121  31.184  15.538  0.00  0.00    +0.000 A 
ATOM     27  C   UNL     1       3.151  29.805  15.380  0.00  0.00    +0.000 A 
ATOM     28  H   UNL     1       7.117  28.417  15.593  0.00  0.00    +0.000 HD
ENDBRANCH   4  20
TORSDOF 2
ENDMDL
