MODEL 1
REMARK VINA RESULT:      -5.2      0.000      0.000
REMARK  Name = 21574552_Mertensene.pdbqt.pdb
REMARK  1 active torsions:
REMARK  status: ('A' for Active; 'I' for Inactive)
REMARK    1  A    between atoms: C_4  and  C_13
REMARK                            x       y       z     vdW  Elec       q    Type
REMARK                         _______ _______ _______ _____ _____    ______ ____
ROOT
ATOM      1 BR   UNL     1      10.214  33.181  17.383  0.00  0.00    +0.000 Br
ATOM      2 CL   UNL     1       8.160  37.692  14.099  0.00  0.00    +0.000 Cl
ATOM      3 CL   UNL     1      11.551  37.523  14.369  0.00  0.00    +0.000 Cl
ATOM      4  C   UNL     1       8.278  35.452  17.226  0.00  0.00    +0.000 C 
ATOM      5  C   UNL     1       8.251  36.736  16.517  0.00  0.00    +0.000 C 
ATOM      6  C   UNL     1       9.013  37.640  15.661  0.00  0.00    +0.000 C 
ATOM      7  C   UNL     1       9.703  34.903  16.960  0.00  0.00    +0.000 C 
ATOM      8  C   UNL     1      10.395  36.990  15.512  0.00  0.00    +0.000 C 
ATOM      9  C   UNL     1      10.545  35.728  16.158  0.00  0.00    +0.000 C 
ATOM     10  C   UNL     1       8.092  35.678  18.743  0.00  0.00    +0.000 C 
ATOM     11  C   UNL     1       9.102  39.063  16.223  0.00  0.00    +0.000 C 
ENDROOT
BRANCH   4  13
ATOM     12 CL   UNL     1       5.237  32.713  15.549  0.00  0.00    +0.000 Cl
ATOM     13  C   UNL     1       7.269  34.535  16.672  0.00  0.00    +0.000 C 
ATOM     14  C   UNL     1       6.445  33.790  16.218  0.00  0.00    +0.000 C 
ENDBRANCH   4  13
TORSDOF 1
ENDMDL
MODEL 2
REMARK VINA RESULT:      -4.7      2.377      3.031
REMARK  Name = 21574552_Mertensene.pdbqt.pdb
REMARK  1 active torsions:
REMARK  status: ('A' for Active; 'I' for Inactive)
REMARK    1  A    between atoms: C_4  and  C_13
REMARK                            x       y       z     vdW  Elec       q    Type
REMARK                         _______ _______ _______ _____ _____    ______ ____
ROOT
ATOM      1 BR   UNL     1       8.782  34.992  19.630  0.00  0.00    +0.000 Br
ATOM      2 CL   UNL     1      10.876  37.180  14.514  0.00  0.00    +0.000 Cl
ATOM      3 CL   UNL     1       9.911  39.513  16.800  0.00  0.00    +0.000 Cl
ATOM      4  C   UNL     1       8.659  34.868  16.647  0.00  0.00    +0.000 C 
ATOM      5  C   UNL     1       8.920  35.823  15.564  0.00  0.00    +0.000 C 
ATOM      6  C   UNL     1       9.257  37.210  15.254  0.00  0.00    +0.000 C 
ATOM      7  C   UNL     1       8.752  35.723  17.936  0.00  0.00    +0.000 C 
ATOM      8  C   UNL     1       9.284  37.933  16.607  0.00  0.00    +0.000 C 
ATOM      9  C   UNL     1       9.046  37.106  17.743  0.00  0.00    +0.000 C 
ATOM     10  C   UNL     1       7.231  34.295  16.516  0.00  0.00    +0.000 C 
ATOM     11  C   UNL     1       8.276  37.858  14.272  0.00  0.00    +0.000 C 
ENDROOT
BRANCH   4  13
ATOM     12 CL   UNL     1      11.726  31.682  16.705  0.00  0.00    +0.000 Cl
ATOM     13  C   UNL     1       9.684  33.813  16.662  0.00  0.00    +0.000 C 
ATOM     14  C   UNL     1      10.518  32.949  16.677  0.00  0.00    +0.000 C 
ENDBRANCH   4  13
TORSDOF 1
ENDMDL
MODEL 3
REMARK VINA RESULT:      -4.6      2.907      4.798
REMARK  Name = 21574552_Mertensene.pdbqt.pdb
REMARK  1 active torsions:
REMARK  status: ('A' for Active; 'I' for Inactive)
REMARK    1  A    between atoms: C_4  and  C_13
REMARK                            x       y       z     vdW  Elec       q    Type
REMARK                         _______ _______ _______ _____ _____    ______ ____
ROOT
ATOM      1 BR   UNL     1      11.794  37.369  14.648  0.00  0.00    +0.000 Br
ATOM      2 CL   UNL     1       8.221  34.505  18.441  0.00  0.00    +0.000 Cl
ATOM      3 CL   UNL     1       9.879  32.516  16.228  0.00  0.00    +0.000 Cl
ATOM      4  C   UNL     1       9.074  37.248  15.879  0.00  0.00    +0.000 C 
ATOM      5  C   UNL     1       8.246  36.178  16.448  0.00  0.00    +0.000 C 
ATOM      6  C   UNL     1       8.153  34.739  16.677  0.00  0.00    +0.000 C 
ATOM      7  C   UNL     1      10.285  36.503  15.264  0.00  0.00    +0.000 C 
ATOM      8  C   UNL     1       9.388  34.137  15.994  0.00  0.00    +0.000 C 
ATOM      9  C   UNL     1      10.276  35.083  15.403  0.00  0.00    +0.000 C 
ATOM     10  C   UNL     1       8.300  37.979  14.759  0.00  0.00    +0.000 C 
ATOM     11  C   UNL     1       6.848  34.133  16.148  0.00  0.00    +0.000 C 
ENDROOT
BRANCH   4  13
ATOM     12 CL   UNL     1      10.436  39.994  19.067  0.00  0.00    +0.000 Cl
ATOM     13  C   UNL     1       9.526  38.167  16.935  0.00  0.00    +0.000 C 
ATOM     14  C   UNL     1       9.895  38.914  17.799  0.00  0.00    +0.000 C 
ENDBRANCH   4  13
TORSDOF 1
ENDMDL
MODEL 4
REMARK VINA RESULT:      -4.5     26.317     27.825
REMARK  Name = 21574552_Mertensene.pdbqt.pdb
REMARK  1 active torsions:
REMARK  status: ('A' for Active; 'I' for Inactive)
REMARK    1  A    between atoms: C_4  and  C_13
REMARK                            x       y       z     vdW  Elec       q    Type
REMARK                         _______ _______ _______ _____ _____    ______ ____
ROOT
ATOM      1 BR   UNL     1     -18.905  36.057   4.771  0.00  0.00    +0.000 Br
ATOM      2 CL   UNL     1     -14.338  32.376   5.747  0.00  0.00    +0.000 Cl
ATOM      3 CL   UNL     1     -16.697  31.217   3.580  0.00  0.00    +0.000 Cl
ATOM      4  C   UNL     1     -17.178  34.740   6.824  0.00  0.00    +0.000 C 
ATOM      5  C   UNL     1     -16.399  33.497   6.872  0.00  0.00    +0.000 C 
ATOM      6  C   UNL     1     -16.069  32.270   6.153  0.00  0.00    +0.000 C 
ATOM      7  C   UNL     1     -17.964  34.642   5.492  0.00  0.00    +0.000 C 
ATOM      8  C   UNL     1     -16.934  32.296   4.886  0.00  0.00    +0.000 C 
ATOM      9  C   UNL     1     -17.738  33.462   4.723  0.00  0.00    +0.000 C 
ATOM     10  C   UNL     1     -18.175  34.787   8.003  0.00  0.00    +0.000 C 
ATOM     11  C   UNL     1     -16.304  31.006   6.987  0.00  0.00    +0.000 C 
ENDROOT
BRANCH   4  13
ATOM     12 CL   UNL     1     -14.474  38.239   6.764  0.00  0.00    +0.000 Cl
ATOM     13  C   UNL     1     -16.284  35.908   6.802  0.00  0.00    +0.000 C 
ATOM     14  C   UNL     1     -15.552  36.859   6.785  0.00  0.00    +0.000 C 
ENDBRANCH   4  13
TORSDOF 1
ENDMDL
MODEL 5
REMARK VINA RESULT:      -4.3     22.990     24.697
REMARK  Name = 21574552_Mertensene.pdbqt.pdb
REMARK  1 active torsions:
REMARK  status: ('A' for Active; 'I' for Inactive)
REMARK    1  A    between atoms: C_4  and  C_13
REMARK                            x       y       z     vdW  Elec       q    Type
REMARK                         _______ _______ _______ _____ _____    ______ ____
ROOT
ATOM      1 BR   UNL     1       3.511  24.828  -5.367  0.00  0.00    +0.000 Br
ATOM      2 CL   UNL     1      -2.373  25.302  -4.646  0.00  0.00    +0.000 Cl
ATOM      3 CL   UNL     1      -1.221  26.121  -7.745  0.00  0.00    +0.000 Cl
ATOM      4  C   UNL     1       1.300  25.882  -3.653  0.00  0.00    +0.000 C 
ATOM      5  C   UNL     1      -0.086  26.294  -3.898  0.00  0.00    +0.000 C 
ATOM      6  C   UNL     1      -1.100  26.515  -4.926  0.00  0.00    +0.000 C 
ATOM      7  C   UNL     1       1.877  25.634  -5.070  0.00  0.00    +0.000 C 
ATOM      8  C   UNL     1      -0.385  26.266  -6.261  0.00  0.00    +0.000 C 
ATOM      9  C   UNL     1       0.976  25.854  -6.153  0.00  0.00    +0.000 C 
ATOM     10  C   UNL     1       2.084  27.028  -2.976  0.00  0.00    +0.000 C 
ATOM     11  C   UNL     1      -1.725  27.913  -4.858  0.00  0.00    +0.000 C 
ENDROOT
BRANCH   4  13
ATOM     12 CL   UNL     1       1.427  22.140  -1.299  0.00  0.00    +0.000 Cl
ATOM     13  C   UNL     1       1.338  24.640  -2.865  0.00  0.00    +0.000 C 
ATOM     14  C   UNL     1       1.371  23.625  -2.224  0.00  0.00    +0.000 C 
ENDBRANCH   4  13
TORSDOF 1
ENDMDL
MODEL 6
REMARK VINA RESULT:      -4.2     28.501     30.566
REMARK  Name = 21574552_Mertensene.pdbqt.pdb
REMARK  1 active torsions:
REMARK  status: ('A' for Active; 'I' for Inactive)
REMARK    1  A    between atoms: C_4  and  C_13
REMARK                            x       y       z     vdW  Elec       q    Type
REMARK                         _______ _______ _______ _____ _____    ______ ____
ROOT
ATOM      1 BR   UNL     1      -4.499  63.742   7.955  0.00  0.00    +0.000 Br
ATOM      2 CL   UNL     1       0.672  64.292  10.839  0.00  0.00    +0.000 Cl
ATOM      3 CL   UNL     1      -0.577  67.182   9.538  0.00  0.00    +0.000 Cl
ATOM      4  C   UNL     1      -1.729  62.675   8.302  0.00  0.00    +0.000 C 
ATOM      5  C   UNL     1      -0.450  63.250   8.735  0.00  0.00    +0.000 C 
ATOM      6  C   UNL     1       0.232  64.481   9.124  0.00  0.00    +0.000 C 
ATOM      7  C   UNL     1      -2.676  63.897   8.196  0.00  0.00    +0.000 C 
ATOM      8  C   UNL     1      -0.807  65.596   8.941  0.00  0.00    +0.000 C 
ATOM      9  C   UNL     1      -2.098  65.160   8.523  0.00  0.00    +0.000 C 
ATOM     10  C   UNL     1      -1.574  62.026   6.909  0.00  0.00    +0.000 C 
ATOM     11  C   UNL     1       1.506  64.740   8.312  0.00  0.00    +0.000 C 
ENDROOT
BRANCH   4  13
ATOM     12 CL   UNL     1      -3.241  59.835  11.337  0.00  0.00    +0.000 Cl
ATOM     13  C   UNL     1      -2.235  61.726   9.306  0.00  0.00    +0.000 C 
ATOM     14  C   UNL     1      -2.646  60.954  10.128  0.00  0.00    +0.000 C 
ENDBRANCH   4  13
TORSDOF 1
ENDMDL
MODEL 7
REMARK VINA RESULT:      -4.2     29.361     31.504
REMARK  Name = 21574552_Mertensene.pdbqt.pdb
REMARK  1 active torsions:
REMARK  status: ('A' for Active; 'I' for Inactive)
REMARK    1  A    between atoms: C_4  and  C_13
REMARK                            x       y       z     vdW  Elec       q    Type
REMARK                         _______ _______ _______ _____ _____    ______ ____
ROOT
ATOM      1 BR   UNL     1      -0.901  67.000   8.772  0.00  0.00    +0.000 Br
ATOM      2 CL   UNL     1      -2.950  61.987   6.316  0.00  0.00    +0.000 Cl
ATOM      3 CL   UNL     1      -4.765  63.158   8.950  0.00  0.00    +0.000 Cl
ATOM      4  C   UNL     1      -0.221  64.255   7.806  0.00  0.00    +0.000 C 
ATOM      5  C   UNL     1      -0.965  62.999   7.661  0.00  0.00    +0.000 C 
ATOM      6  C   UNL     1      -2.241  62.335   7.912  0.00  0.00    +0.000 C 
ATOM      7  C   UNL     1      -1.201  65.191   8.557  0.00  0.00    +0.000 C 
ATOM      8  C   UNL     1      -3.088  63.360   8.679  0.00  0.00    +0.000 C 
ATOM      9  C   UNL     1      -2.470  64.628   8.882  0.00  0.00    +0.000 C 
ATOM     10  C   UNL     1       1.037  64.029   8.675  0.00  0.00    +0.000 C 
ATOM     11  C   UNL     1      -2.089  61.019   8.683  0.00  0.00    +0.000 C 
ENDROOT
BRANCH   4  13
ATOM     12 CL   UNL     1       0.751  65.957   3.842  0.00  0.00    +0.000 Cl
ATOM     13  C   UNL     1       0.108  64.816   6.486  0.00  0.00    +0.000 C 
ATOM     14  C   UNL     1       0.373  65.276   5.410  0.00  0.00    +0.000 C 
ENDBRANCH   4  13
TORSDOF 1
ENDMDL
MODEL 8
REMARK VINA RESULT:      -4.1     26.544     28.641
REMARK  Name = 21574552_Mertensene.pdbqt.pdb
REMARK  1 active torsions:
REMARK  status: ('A' for Active; 'I' for Inactive)
REMARK    1  A    between atoms: C_4  and  C_13
REMARK                            x       y       z     vdW  Elec       q    Type
REMARK                         _______ _______ _______ _____ _____    ______ ____
ROOT
ATOM      1 BR   UNL     1      -2.116  61.182  13.913  0.00  0.00    +0.000 Br
ATOM      2 CL   UNL     1      -1.740  61.375   7.982  0.00  0.00    +0.000 Cl
ATOM      3 CL   UNL     1       0.326  63.519   9.636  0.00  0.00    +0.000 Cl
ATOM      4  C   UNL     1      -3.623  61.359  11.338  0.00  0.00    +0.000 C 
ATOM      5  C   UNL     1      -3.314  61.864   9.996  0.00  0.00    +0.000 C 
ATOM      6  C   UNL     1      -2.318  62.556   9.184  0.00  0.00    +0.000 C 
ATOM      7  C   UNL     1      -2.404  61.787  12.193  0.00  0.00    +0.000 C 
ATOM      8  C   UNL     1      -1.197  62.942  10.158  0.00  0.00    +0.000 C 
ATOM      9  C   UNL     1      -1.382  62.502  11.502  0.00  0.00    +0.000 C 
ATOM     10  C   UNL     1      -4.896  62.045  11.884  0.00  0.00    +0.000 C 
ATOM     11  C   UNL     1      -2.887  63.773   8.447  0.00  0.00    +0.000 C 
ENDROOT
BRANCH   4  13
ATOM     12 CL   UNL     1      -3.991  56.952  11.273  0.00  0.00    +0.000 Cl
ATOM     13  C   UNL     1      -3.744  59.893  11.324  0.00  0.00    +0.000 C 
ATOM     14  C   UNL     1      -3.843  58.697  11.308  0.00  0.00    +0.000 C 
ENDBRANCH   4  13
TORSDOF 1
ENDMDL
MODEL 9
REMARK VINA RESULT:      -4.0     19.330     20.692
REMARK  Name = 21574552_Mertensene.pdbqt.pdb
REMARK  1 active torsions:
REMARK  status: ('A' for Active; 'I' for Inactive)
REMARK    1  A    between atoms: C_4  and  C_13
REMARK                            x       y       z     vdW  Elec       q    Type
REMARK                         _______ _______ _______ _____ _____    ______ ____
ROOT
ATOM      1 BR   UNL     1      -5.998  41.635  31.257  0.00  0.00    +0.000 Br
ATOM      2 CL   UNL     1      -4.464  46.417  28.073  0.00  0.00    +0.000 Cl
ATOM      3 CL   UNL     1      -7.761  46.226  28.905  0.00  0.00    +0.000 Cl
ATOM      4  C   UNL     1      -4.542  42.649  28.852  0.00  0.00    +0.000 C 
ATOM      5  C   UNL     1      -4.677  43.825  27.985  0.00  0.00    +0.000 C 
ATOM      6  C   UNL     1      -5.485  45.007  27.699  0.00  0.00    +0.000 C 
ATOM      7  C   UNL     1      -5.785  42.715  29.776  0.00  0.00    +0.000 C 
ATOM      8  C   UNL     1      -6.681  44.923  28.657  0.00  0.00    +0.000 C 
ATOM      9  C   UNL     1      -6.662  43.818  29.557  0.00  0.00    +0.000 C 
ATOM     10  C   UNL     1      -4.603  41.357  28.006  0.00  0.00    +0.000 C 
ATOM     11  C   UNL     1      -5.924  45.090  26.233  0.00  0.00    +0.000 C 
ENDROOT
BRANCH   4  13
ATOM     12 CL   UNL     1      -0.847  42.921  31.266  0.00  0.00    +0.000 Cl
ATOM     13  C   UNL     1      -3.310  42.734  29.650  0.00  0.00    +0.000 C 
ATOM     14  C   UNL     1      -2.306  42.807  30.304  0.00  0.00    +0.000 C 
ENDBRANCH   4  13
TORSDOF 1
ENDMDL
