MODEL 1
REMARK VINA RESULT:      -7.6      0.000      0.000
REMARK  Name = 222284_BetaSitosterol.pdbqt.pdb
REMARK  5 active torsions:
REMARK  status: ('A' for Active; 'I' for Inactive)
REMARK    1  A    between atoms: C_5  and  C_22
REMARK    2  A    between atoms: C_19  and  O_20
REMARK    3  A    between atoms: C_22  and  C_24
REMARK    4  A    between atoms: C_25  and  C_26
REMARK    5  A    between atoms: C_26  and  C_30
REMARK                            x       y       z     vdW  Elec       q    Type
REMARK                         _______ _______ _______ _____ _____    ______ ____
ROOT
ATOM      1  C   UNL     1      -7.706  15.303  12.877  0.00  0.00    +0.000 C 
ATOM      2  C   UNL     1      -9.249  15.435  13.327  0.00  0.00    +0.000 C 
ATOM      3  C   UNL     1      -9.893  14.449  14.219  0.00  0.00    +0.000 C 
ATOM      4  C   UNL     1      -9.182  13.402  15.040  0.00  0.00    +0.000 C 
ATOM      5  C   UNL     1      -7.177  16.725  12.989  0.00  0.00    +0.000 C 
ATOM      6  C   UNL     1      -7.108  14.374  13.837  0.00  0.00    +0.000 C 
ATOM      7  C   UNL     1      -9.915  12.338  15.902  0.00  0.00    +0.000 C 
ATOM      8  C   UNL     1      -9.522  16.829  13.492  0.00  0.00    +0.000 C 
ATOM      9  C   UNL     1      -7.776  13.461  14.837  0.00  0.00    +0.000 C 
ATOM     10  C   UNL     1      -8.244  17.607  13.326  0.00  0.00    +0.000 C 
ATOM     11  C   UNL     1     -11.283  14.499  14.483  0.00  0.00    +0.000 C 
ATOM     12  C   UNL     1      -7.671  14.798  11.412  0.00  0.00    +0.000 C 
ATOM     13  C   UNL     1     -11.496  12.700  16.214  0.00  0.00    +0.000 C 
ATOM     14  C   UNL     1      -9.292  12.253  17.256  0.00  0.00    +0.000 C 
ATOM     15  C   UNL     1     -12.010  13.627  15.462  0.00  0.00    +0.000 C 
ATOM     16  C   UNL     1      -9.895  10.975  15.152  0.00  0.00    +0.000 C 
ATOM     17  C   UNL     1     -11.872  12.684  17.609  0.00  0.00    +0.000 C 
ATOM     18  C   UNL     1      -9.835  12.324  18.694  0.00  0.00    +0.000 C 
ATOM     19  C   UNL     1     -11.234  12.530  18.880  0.00  0.00    +0.000 C 
ENDROOT
BRANCH  19  20
ATOM     20  O   UNL     1     -11.889  12.019  19.962  0.00  0.00    +0.000 OA
ATOM     21  H   UNL     1     -12.464  11.277  19.713  0.00  0.00    +0.000 HD
ENDBRANCH  19  20
BRANCH   5  22
ATOM     22  C   UNL     1      -5.806  17.100  12.838  0.00  0.00    +0.000 C 
ATOM     23  C   UNL     1      -5.033  17.795  13.931  0.00  0.00    +0.000 C 
BRANCH  22  24
ATOM     24  C   UNL     1      -5.072  16.825  11.653  0.00  0.00    +0.000 C 
ATOM     25  C   UNL     1      -4.279  16.500  10.378  0.00  0.00    +0.000 C 
BRANCH  25  26
ATOM     26  C   UNL     1      -3.531  16.185   9.203  0.00  0.00    +0.000 C 
ATOM     27  C   UNL     1      -2.881  14.900   9.066  0.00  0.00    +0.000 C 
ATOM     28  C   UNL     1      -2.970  13.826  10.134  0.00  0.00    +0.000 C 
ATOM     29  C   UNL     1      -2.035  14.513   7.874  0.00  0.00    +0.000 C 
BRANCH  26  30
ATOM     30  C   UNL     1      -3.428  17.135   8.153  0.00  0.00    +0.000 C 
ATOM     31  C   UNL     1      -3.300  18.121   6.986  0.00  0.00    +0.000 C 
ENDBRANCH  26  30
ENDBRANCH  25  26
ENDBRANCH  22  24
ENDBRANCH   5  22
TORSDOF 5
ENDMDL
MODEL 2
REMARK VINA RESULT:      -7.4     27.015     30.125
REMARK  Name = 222284_BetaSitosterol.pdbqt.pdb
REMARK  5 active torsions:
REMARK  status: ('A' for Active; 'I' for Inactive)
REMARK    1  A    between atoms: C_5  and  C_22
REMARK    2  A    between atoms: C_19  and  O_20
REMARK    3  A    between atoms: C_22  and  C_24
REMARK    4  A    between atoms: C_25  and  C_26
REMARK    5  A    between atoms: C_26  and  C_30
REMARK                            x       y       z     vdW  Elec       q    Type
REMARK                         _______ _______ _______ _____ _____    ______ ____
ROOT
ATOM      1  C   UNL     1      -4.412  42.766  15.459  0.00  0.00    +0.000 C 
ATOM      2  C   UNL     1      -5.048  42.220  14.081  0.00  0.00    +0.000 C 
ATOM      3  C   UNL     1      -5.288  43.105  12.924  0.00  0.00    +0.000 C 
ATOM      4  C   UNL     1      -4.739  44.499  12.746  0.00  0.00    +0.000 C 
ATOM      5  C   UNL     1      -3.410  41.688  15.845  0.00  0.00    +0.000 C 
ATOM      6  C   UNL     1      -3.794  44.047  15.112  0.00  0.00    +0.000 C 
ATOM      7  C   UNL     1      -5.088  45.416  11.543  0.00  0.00    +0.000 C 
ATOM      8  C   UNL     1      -4.533  40.901  13.874  0.00  0.00    +0.000 C 
ATOM      9  C   UNL     1      -3.950  44.884  13.865  0.00  0.00    +0.000 C 
ATOM     10  C   UNL     1      -3.504  40.599  14.930  0.00  0.00    +0.000 C 
ATOM     11  C   UNL     1      -5.981  42.641  11.779  0.00  0.00    +0.000 C 
ATOM     12  C   UNL     1      -5.551  42.882  16.504  0.00  0.00    +0.000 C 
ATOM     13  C   UNL     1      -5.741  44.614  10.255  0.00  0.00    +0.000 C 
ATOM     14  C   UNL     1      -3.848  46.035  10.989  0.00  0.00    +0.000 C 
ATOM     15  C   UNL     1      -6.170  43.415  10.510  0.00  0.00    +0.000 C 
ATOM     16  C   UNL     1      -6.130  46.478  12.000  0.00  0.00    +0.000 C 
ATOM     17  C   UNL     1      -5.082  44.835   8.989  0.00  0.00    +0.000 C 
ATOM     18  C   UNL     1      -3.231  46.130   9.583  0.00  0.00    +0.000 C 
ATOM     19  C   UNL     1      -3.914  45.502   8.500  0.00  0.00    +0.000 C 
ENDROOT
BRANCH  19  20
ATOM     20  O   UNL     1      -3.841  45.999   7.231  0.00  0.00    +0.000 OA
ATOM     21  H   UNL     1      -2.949  46.326   7.027  0.00  0.00    +0.000 HD
ENDBRANCH  19  20
BRANCH   5  22
ATOM     22  C   UNL     1      -2.479  41.787  16.925  0.00  0.00    +0.000 C 
ATOM     23  C   UNL     1      -2.865  41.496  18.353  0.00  0.00    +0.000 C 
BRANCH  22  24
ATOM     24  C   UNL     1      -1.120  42.148  16.723  0.00  0.00    +0.000 C 
ATOM     25  C   UNL     1       0.351  42.546  16.531  0.00  0.00    +0.000 C 
BRANCH  25  26
ATOM     26  C   UNL     1       1.716  42.933  16.363  0.00  0.00    +0.000 C 
ATOM     27  C   UNL     1       2.059  44.305  16.057  0.00  0.00    +0.000 C 
ATOM     28  C   UNL     1       1.013  45.394  15.919  0.00  0.00    +0.000 C 
ATOM     29  C   UNL     1       3.476  44.779  15.819  0.00  0.00    +0.000 C 
BRANCH  26  30
ATOM     30  C   UNL     1       2.748  41.969  16.503  0.00  0.00    +0.000 C 
ATOM     31  C   UNL     1       3.836  40.894  16.621  0.00  0.00    +0.000 C 
ENDBRANCH  26  30
ENDBRANCH  25  26
ENDBRANCH  22  24
ENDBRANCH   5  22
TORSDOF 5
ENDMDL
MODEL 3
REMARK VINA RESULT:      -7.1     14.395     20.830
REMARK  Name = 222284_BetaSitosterol.pdbqt.pdb
REMARK  5 active torsions:
REMARK  status: ('A' for Active; 'I' for Inactive)
REMARK    1  A    between atoms: C_5  and  C_22
REMARK    2  A    between atoms: C_19  and  O_20
REMARK    3  A    between atoms: C_22  and  C_24
REMARK    4  A    between atoms: C_25  and  C_26
REMARK    5  A    between atoms: C_26  and  C_30
REMARK                            x       y       z     vdW  Elec       q    Type
REMARK                         _______ _______ _______ _____ _____    ______ ____
ROOT
ATOM      1  C   UNL     1       1.231  22.038  -0.435  0.00  0.00    +0.000 C 
ATOM      2  C   UNL     1       2.122  23.296  -0.908  0.00  0.00    +0.000 C 
ATOM      3  C   UNL     1       2.007  23.874  -2.262  0.00  0.00    +0.000 C 
ATOM      4  C   UNL     1       0.903  23.597  -3.252  0.00  0.00    +0.000 C 
ATOM      5  C   UNL     1       0.798  22.412   0.974  0.00  0.00    +0.000 C 
ATOM      6  C   UNL     1       0.127  21.972  -1.394  0.00  0.00    +0.000 C 
ATOM      7  C   UNL     1       0.873  24.172  -4.693  0.00  0.00    +0.000 C 
ATOM      8  C   UNL     1       2.265  24.159   0.225  0.00  0.00    +0.000 C 
ATOM      9  C   UNL     1      -0.037  22.670  -2.722  0.00  0.00    +0.000 C 
ATOM     10  C   UNL     1       1.421  23.635   1.356  0.00  0.00    +0.000 C 
ATOM     11  C   UNL     1       2.899  24.881  -2.707  0.00  0.00    +0.000 C 
ATOM     12  C   UNL     1       2.135  20.778  -0.435  0.00  0.00    +0.000 C 
ATOM     13  C   UNL     1       1.889  25.454  -4.926  0.00  0.00    +0.000 C 
ATOM     14  C   UNL     1      -0.479  24.726  -5.000  0.00  0.00    +0.000 C 
ATOM     15  C   UNL     1       2.794  25.616  -4.009  0.00  0.00    +0.000 C 
ATOM     16  C   UNL     1       1.301  23.060  -5.694  0.00  0.00    +0.000 C 
ATOM     17  C   UNL     1       1.274  26.640  -5.477  0.00  0.00    +0.000 C 
ATOM     18  C   UNL     1      -0.991  26.074  -5.535  0.00  0.00    +0.000 C 
ATOM     19  C   UNL     1      -0.039  27.098  -5.817  0.00  0.00    +0.000 C 
ENDROOT
BRANCH  19  20
ATOM     20  O   UNL     1      -0.254  28.016  -6.802  0.00  0.00    +0.000 OA
ATOM     21  H   UNL     1       0.155  27.742  -7.640  0.00  0.00    +0.000 HD
ENDBRANCH  19  20
BRANCH   5  22
ATOM     22  C   UNL     1      -0.139  21.676   1.763  0.00  0.00    +0.000 C 
ATOM     23  C   UNL     1       0.278  20.539   2.662  0.00  0.00    +0.000 C 
BRANCH  22  24
ATOM     24  C   UNL     1      -1.527  21.979   1.769  0.00  0.00    +0.000 C 
ATOM     25  C   UNL     1      -3.021  22.335   1.776  0.00  0.00    +0.000 C 
BRANCH  25  26
ATOM     26  C   UNL     1      -4.407  22.679   1.795  0.00  0.00    +0.000 C 
ATOM     27  C   UNL     1      -5.174  22.717   0.569  0.00  0.00    +0.000 C 
ATOM     28  C   UNL     1      -4.567  22.381  -0.780  0.00  0.00    +0.000 C 
ATOM     29  C   UNL     1      -6.631  23.117   0.505  0.00  0.00    +0.000 C 
BRANCH  26  30
ATOM     30  C   UNL     1      -5.046  22.980   3.028  0.00  0.00    +0.000 C 
ATOM     31  C   UNL     1      -5.750  23.353   4.338  0.00  0.00    +0.000 C 
ENDBRANCH  26  30
ENDBRANCH  25  26
ENDBRANCH  22  24
ENDBRANCH   5  22
TORSDOF 5
ENDMDL
MODEL 4
REMARK VINA RESULT:      -7.0     17.534     19.507
REMARK  Name = 222284_BetaSitosterol.pdbqt.pdb
REMARK  5 active torsions:
REMARK  status: ('A' for Active; 'I' for Inactive)
REMARK    1  A    between atoms: C_5  and  C_22
REMARK    2  A    between atoms: C_19  and  O_20
REMARK    3  A    between atoms: C_22  and  C_24
REMARK    4  A    between atoms: C_25  and  C_26
REMARK    5  A    between atoms: C_26  and  C_30
REMARK                            x       y       z     vdW  Elec       q    Type
REMARK                         _______ _______ _______ _____ _____    ______ ____
ROOT
ATOM      1  C   UNL     1      -0.971  18.612  31.106  0.00  0.00    +0.000 C 
ATOM      2  C   UNL     1      -2.360  17.854  30.798  0.00  0.00    +0.000 C 
ATOM      3  C   UNL     1      -3.612  18.192  31.506  0.00  0.00    +0.000 C 
ATOM      4  C   UNL     1      -3.846  19.418  32.352  0.00  0.00    +0.000 C 
ATOM      5  C   UNL     1      -0.376  18.847  29.726  0.00  0.00    +0.000 C 
ATOM      6  C   UNL     1      -1.355  19.843  31.800  0.00  0.00    +0.000 C 
ATOM      7  C   UNL     1      -5.158  19.685  33.138  0.00  0.00    +0.000 C 
ATOM      8  C   UNL     1      -2.387  17.580  29.394  0.00  0.00    +0.000 C 
ATOM      9  C   UNL     1      -2.680  20.230  32.409  0.00  0.00    +0.000 C 
ATOM     10  C   UNL     1      -1.195  18.225  28.740  0.00  0.00    +0.000 C 
ATOM     11  C   UNL     1      -4.785  17.418  31.328  0.00  0.00    +0.000 C 
ATOM     12  C   UNL     1      -0.082  17.667  31.954  0.00  0.00    +0.000 C 
ATOM     13  C   UNL     1      -6.438  18.768  32.638  0.00  0.00    +0.000 C 
ATOM     14  C   UNL     1      -5.615  21.089  32.919  0.00  0.00    +0.000 C 
ATOM     15  C   UNL     1      -6.131  17.745  31.900  0.00  0.00    +0.000 C 
ATOM     16  C   UNL     1      -4.923  19.364  34.643  0.00  0.00    +0.000 C 
ATOM     17  C   UNL     1      -7.633  19.507  32.297  0.00  0.00    +0.000 C 
ATOM     18  C   UNL     1      -6.941  21.730  32.476  0.00  0.00    +0.000 C 
ATOM     19  C   UNL     1      -8.037  20.873  32.165  0.00  0.00    +0.000 C 
ENDROOT
BRANCH  19  20
ATOM     20  O   UNL     1      -9.327  21.269  32.366  0.00  0.00    +0.000 OA
ATOM     21  H   UNL     1      -9.370  22.156  32.761  0.00  0.00    +0.000 HD
ENDBRANCH  19  20
BRANCH   5  22
ATOM     22  C   UNL     1       0.794  19.626  29.463  0.00  0.00    +0.000 C 
ATOM     23  C   UNL     1       2.151  19.001  29.256  0.00  0.00    +0.000 C 
BRANCH  22  24
ATOM     24  C   UNL     1       0.753  21.042  29.359  0.00  0.00    +0.000 C 
ATOM     25  C   UNL     1       0.701  22.575  29.274  0.00  0.00    +0.000 C 
BRANCH  25  26
ATOM     26  C   UNL     1       0.635  24.000  29.204  0.00  0.00    +0.000 C 
ATOM     27  C   UNL     1      -0.508  24.656  28.607  0.00  0.00    +0.000 C 
ATOM     28  C   UNL     1      -1.689  23.884  28.048  0.00  0.00    +0.000 C 
ATOM     29  C   UNL     1      -0.627  26.156  28.455  0.00  0.00    +0.000 C 
BRANCH  26  30
ATOM     30  C   UNL     1       1.694  24.785  29.731  0.00  0.00    +0.000 C 
ATOM     31  C   UNL     1       2.873  25.595  30.283  0.00  0.00    +0.000 C 
ENDBRANCH  26  30
ENDBRANCH  25  26
ENDBRANCH  22  24
ENDBRANCH   5  22
TORSDOF 5
ENDMDL
MODEL 5
REMARK VINA RESULT:      -7.0     25.251     27.964
REMARK  Name = 222284_BetaSitosterol.pdbqt.pdb
REMARK  5 active torsions:
REMARK  status: ('A' for Active; 'I' for Inactive)
REMARK    1  A    between atoms: C_5  and  C_22
REMARK    2  A    between atoms: C_19  and  O_20
REMARK    3  A    between atoms: C_22  and  C_24
REMARK    4  A    between atoms: C_25  and  C_26
REMARK    5  A    between atoms: C_26  and  C_30
REMARK                            x       y       z     vdW  Elec       q    Type
REMARK                         _______ _______ _______ _____ _____    ______ ____
ROOT
ATOM      1  C   UNL     1      -6.175  42.083  13.551  0.00  0.00    +0.000 C 
ATOM      2  C   UNL     1      -4.996  43.166  13.741  0.00  0.00    +0.000 C 
ATOM      3  C   UNL     1      -3.845  42.923  14.635  0.00  0.00    +0.000 C 
ATOM      4  C   UNL     1      -3.458  41.596  15.238  0.00  0.00    +0.000 C 
ATOM      5  C   UNL     1      -6.435  42.094  12.052  0.00  0.00    +0.000 C 
ATOM      6  C   UNL     1      -5.617  40.822  14.043  0.00  0.00    +0.000 C 
ATOM      7  C   UNL     1      -2.282  41.414  16.236  0.00  0.00    +0.000 C 
ATOM      8  C   UNL     1      -4.791  43.791  12.470  0.00  0.00    +0.000 C 
ATOM      9  C   UNL     1      -4.366  40.574  14.851  0.00  0.00    +0.000 C 
ATOM     10  C   UNL     1      -5.642  43.104  11.437  0.00  0.00    +0.000 C 
ATOM     11  C   UNL     1      -2.898  43.942  14.902  0.00  0.00    +0.000 C 
ATOM     12  C   UNL     1      -7.413  42.572  14.345  0.00  0.00    +0.000 C 
ATOM     13  C   UNL     1      -1.212  42.673  16.251  0.00  0.00    +0.000 C 
ATOM     14  C   UNL     1      -1.448  40.240  15.842  0.00  0.00    +0.000 C 
ATOM     15  C   UNL     1      -1.637  43.765  15.692  0.00  0.00    +0.000 C 
ATOM     16  C   UNL     1      -2.854  41.280  17.677  0.00  0.00    +0.000 C 
ATOM     17  C   UNL     1       0.172  42.312  16.052  0.00  0.00    +0.000 C 
ATOM     18  C   UNL     1       0.055  40.024  15.597  0.00  0.00    +0.000 C 
ATOM     19  C   UNL     1       0.931  41.141  15.737  0.00  0.00    +0.000 C 
ENDROOT
BRANCH  19  20
ATOM     20  O   UNL     1       2.223  40.982  16.147  0.00  0.00    +0.000 OA
ATOM     21  H   UNL     1       2.478  41.663  16.792  0.00  0.00    +0.000 HD
ENDBRANCH  19  20
BRANCH   5  22
ATOM     22  C   UNL     1      -7.300  41.184  11.367  0.00  0.00    +0.000 C 
ATOM     23  C   UNL     1      -6.952  40.596  10.022  0.00  0.00    +0.000 C 
BRANCH  22  24
ATOM     24  C   UNL     1      -8.539  40.757  11.916  0.00  0.00    +0.000 C 
ATOM     25  C   UNL     1      -9.888  40.321  12.506  0.00  0.00    +0.000 C 
BRANCH  25  26
ATOM     26  C   UNL     1     -11.144  39.933  13.065  0.00  0.00    +0.000 C 
ATOM     27  C   UNL     1     -12.129  39.249  12.257  0.00  0.00    +0.000 C 
ATOM     28  C   UNL     1     -11.883  38.894  10.802  0.00  0.00    +0.000 C 
ATOM     29  C   UNL     1     -13.496  38.849  12.765  0.00  0.00    +0.000 C 
BRANCH  26  30
ATOM     30  C   UNL     1     -11.429  40.211  14.428  0.00  0.00    +0.000 C 
ATOM     31  C   UNL     1     -11.686  40.528  15.906  0.00  0.00    +0.000 C 
ENDBRANCH  26  30
ENDBRANCH  25  26
ENDBRANCH  22  24
ENDBRANCH   5  22
TORSDOF 5
ENDMDL
MODEL 6
REMARK VINA RESULT:      -6.9     23.211     26.511
REMARK  Name = 222284_BetaSitosterol.pdbqt.pdb
REMARK  5 active torsions:
REMARK  status: ('A' for Active; 'I' for Inactive)
REMARK    1  A    between atoms: C_5  and  C_22
REMARK    2  A    between atoms: C_19  and  O_20
REMARK    3  A    between atoms: C_22  and  C_24
REMARK    4  A    between atoms: C_25  and  C_26
REMARK    5  A    between atoms: C_26  and  C_30
REMARK                            x       y       z     vdW  Elec       q    Type
REMARK                         _______ _______ _______ _____ _____    ______ ____
ROOT
ATOM      1  C   UNL     1      -1.603  30.436  33.870  0.00  0.00    +0.000 C 
ATOM      2  C   UNL     1      -2.057  31.946  33.531  0.00  0.00    +0.000 C 
ATOM      3  C   UNL     1      -1.090  32.977  33.101  0.00  0.00    +0.000 C 
ATOM      4  C   UNL     1       0.327  32.728  32.649  0.00  0.00    +0.000 C 
ATOM      5  C   UNL     1      -2.680  29.582  33.220  0.00  0.00    +0.000 C 
ATOM      6  C   UNL     1      -0.282  30.289  33.256  0.00  0.00    +0.000 C 
ATOM      7  C   UNL     1       1.326  33.859  32.281  0.00  0.00    +0.000 C 
ATOM      8  C   UNL     1      -3.341  31.868  32.905  0.00  0.00    +0.000 C 
ATOM      9  C   UNL     1       0.645  31.343  32.702  0.00  0.00    +0.000 C 
ATOM     10  C   UNL     1      -3.696  30.423  32.681  0.00  0.00    +0.000 C 
ATOM     11  C   UNL     1      -1.482  34.330  32.950  0.00  0.00    +0.000 C 
ATOM     12  C   UNL     1      -1.599  30.268  35.412  0.00  0.00    +0.000 C 
ATOM     13  C   UNL     1       0.610  35.319  31.991  0.00  0.00    +0.000 C 
ATOM     14  C   UNL     1       2.020  33.538  30.999  0.00  0.00    +0.000 C 
ATOM     15  C   UNL     1      -0.616  35.426  32.405  0.00  0.00    +0.000 C 
ATOM     16  C   UNL     1       2.320  34.061  33.461  0.00  0.00    +0.000 C 
ATOM     17  C   UNL     1       0.947  35.934  30.728  0.00  0.00    +0.000 C 
ATOM     18  C   UNL     1       2.240  34.297  29.679  0.00  0.00    +0.000 C 
ATOM     19  C   UNL     1       1.681  35.602  29.545  0.00  0.00    +0.000 C 
ENDROOT
BRANCH  19  20
ATOM     20  O   UNL     1       2.277  36.554  28.771  0.00  0.00    +0.000 OA
ATOM     21  H   UNL     1       1.748  36.752  27.980  0.00  0.00    +0.000 HD
ENDBRANCH  19  20
BRANCH   5  22
ATOM     22  C   UNL     1      -2.641  28.157  33.116  0.00  0.00    +0.000 C 
ATOM     23  C   UNL     1      -3.500  27.260  33.972  0.00  0.00    +0.000 C 
BRANCH  22  24
ATOM     24  C   UNL     1      -1.802  27.488  32.184  0.00  0.00    +0.000 C 
ATOM     25  C   UNL     1      -0.904  26.741  31.188  0.00  0.00    +0.000 C 
BRANCH  25  26
ATOM     26  C   UNL     1      -0.062  26.034  30.275  0.00  0.00    +0.000 C 
ATOM     27  C   UNL     1      -0.625  25.367  29.121  0.00  0.00    +0.000 C 
ATOM     28  C   UNL     1      -2.109  25.396  28.809  0.00  0.00    +0.000 C 
ATOM     29  C   UNL     1       0.196  24.562  28.139  0.00  0.00    +0.000 C 
BRANCH  26  30
ATOM     30  C   UNL     1       1.340  25.989  30.494  0.00  0.00    +0.000 C 
ATOM     31  C   UNL     1       2.858  25.990  30.710  0.00  0.00    +0.000 C 
ENDBRANCH  26  30
ENDBRANCH  25  26
ENDBRANCH  22  24
ENDBRANCH   5  22
TORSDOF 5
ENDMDL
MODEL 7
REMARK VINA RESULT:      -6.9     26.851     30.383
REMARK  Name = 222284_BetaSitosterol.pdbqt.pdb
REMARK  5 active torsions:
REMARK  status: ('A' for Active; 'I' for Inactive)
REMARK    1  A    between atoms: C_5  and  C_22
REMARK    2  A    between atoms: C_19  and  O_20
REMARK    3  A    between atoms: C_22  and  C_24
REMARK    4  A    between atoms: C_25  and  C_26
REMARK    5  A    between atoms: C_26  and  C_30
REMARK                            x       y       z     vdW  Elec       q    Type
REMARK                         _______ _______ _______ _____ _____    ______ ____
ROOT
ATOM      1  C   UNL     1      -4.309  42.598  15.441  0.00  0.00    +0.000 C 
ATOM      2  C   UNL     1      -5.004  42.096  14.075  0.00  0.00    +0.000 C 
ATOM      3  C   UNL     1      -5.263  43.012  12.945  0.00  0.00    +0.000 C 
ATOM      4  C   UNL     1      -4.688  44.396  12.778  0.00  0.00    +0.000 C 
ATOM      5  C   UNL     1      -3.320  41.490  15.769  0.00  0.00    +0.000 C 
ATOM      6  C   UNL     1      -3.675  43.872  15.100  0.00  0.00    +0.000 C 
ATOM      7  C   UNL     1      -5.057  45.347  11.608  0.00  0.00    +0.000 C 
ATOM      8  C   UNL     1      -4.527  40.771  13.823  0.00  0.00    +0.000 C 
ATOM      9  C   UNL     1      -3.854  44.739  13.877  0.00  0.00    +0.000 C 
ATOM     10  C   UNL     1      -3.470  40.424  14.836  0.00  0.00    +0.000 C 
ATOM     11  C   UNL     1      -6.005  42.589  11.816  0.00  0.00    +0.000 C 
ATOM     12  C   UNL     1      -5.409  42.717  16.527  0.00  0.00    +0.000 C 
ATOM     13  C   UNL     1      -5.772  44.589  10.326  0.00  0.00    +0.000 C 
ATOM     14  C   UNL     1      -3.823  45.951  11.024  0.00  0.00    +0.000 C 
ATOM     15  C   UNL     1      -6.220  43.395  10.570  0.00  0.00    +0.000 C 
ATOM     16  C   UNL     1      -6.058  46.422  12.122  0.00  0.00    +0.000 C 
ATOM     17  C   UNL     1      -5.151  44.823   9.043  0.00  0.00    +0.000 C 
ATOM     18  C   UNL     1      -3.252  46.062   9.600  0.00  0.00    +0.000 C 
ATOM     19  C   UNL     1      -3.985  45.474   8.528  0.00  0.00    +0.000 C 
ENDROOT
BRANCH  19  20
ATOM     20  O   UNL     1      -3.944  45.997   7.268  0.00  0.00    +0.000 OA
ATOM     21  H   UNL     1      -3.896  46.967   7.287  0.00  0.00    +0.000 HD
ENDBRANCH  19  20
BRANCH   5  22
ATOM     22  C   UNL     1      -2.351  41.544  16.819  0.00  0.00    +0.000 C 
ATOM     23  C   UNL     1      -0.953  41.003  16.657  0.00  0.00    +0.000 C 
BRANCH  22  24
ATOM     24  C   UNL     1      -2.634  42.132  18.081  0.00  0.00    +0.000 C 
ATOM     25  C   UNL     1      -2.969  42.765  19.440  0.00  0.00    +0.000 C 
BRANCH  25  26
ATOM     26  C   UNL     1      -3.293  43.366  20.695  0.00  0.00    +0.000 C 
ATOM     27  C   UNL     1      -4.627  43.861  20.951  0.00  0.00    +0.000 C 
ATOM     28  C   UNL     1      -5.744  43.758  19.928  0.00  0.00    +0.000 C 
ATOM     29  C   UNL     1      -5.032  44.550  22.235  0.00  0.00    +0.000 C 
BRANCH  26  30
ATOM     30  C   UNL     1      -2.302  43.472  21.706  0.00  0.00    +0.000 C 
ATOM     31  C   UNL     1      -1.223  43.533  22.794  0.00  0.00    +0.000 C 
ENDBRANCH  26  30
ENDBRANCH  25  26
ENDBRANCH  22  24
ENDBRANCH   5  22
TORSDOF 5
ENDMDL
MODEL 8
REMARK VINA RESULT:      -6.8     15.685     18.217
REMARK  Name = 222284_BetaSitosterol.pdbqt.pdb
REMARK  5 active torsions:
REMARK  status: ('A' for Active; 'I' for Inactive)
REMARK    1  A    between atoms: C_5  and  C_22
REMARK    2  A    between atoms: C_19  and  O_20
REMARK    3  A    between atoms: C_22  and  C_24
REMARK    4  A    between atoms: C_25  and  C_26
REMARK    5  A    between atoms: C_26  and  C_30
REMARK                            x       y       z     vdW  Elec       q    Type
REMARK                         _______ _______ _______ _____ _____    ______ ____
ROOT
ATOM      1  C   UNL     1     -10.141  19.410  29.602  0.00  0.00    +0.000 C 
ATOM      2  C   UNL     1     -10.576  19.923  28.136  0.00  0.00    +0.000 C 
ATOM      3  C   UNL     1     -11.992  20.007  27.723  0.00  0.00    +0.000 C 
ATOM      4  C   UNL     1     -13.187  19.921  28.639  0.00  0.00    +0.000 C 
ATOM      5  C   UNL     1      -9.043  20.379  30.011  0.00  0.00    +0.000 C 
ATOM      6  C   UNL     1     -11.353  19.513  30.416  0.00  0.00    +0.000 C 
ATOM      7  C   UNL     1     -14.658  19.938  28.140  0.00  0.00    +0.000 C 
ATOM      8  C   UNL     1      -9.663  20.961  27.767  0.00  0.00    +0.000 C 
ATOM      9  C   UNL     1     -12.785  19.727  29.989  0.00  0.00    +0.000 C 
ATOM     10  C   UNL     1      -8.758  21.263  28.931  0.00  0.00    +0.000 C 
ATOM     11  C   UNL     1     -12.347  20.318  26.388  0.00  0.00    +0.000 C 
ATOM     12  C   UNL     1      -9.599  17.963  29.466  0.00  0.00    +0.000 C 
ATOM     13  C   UNL     1     -14.837  20.496  26.596  0.00  0.00    +0.000 C 
ATOM     14  C   UNL     1     -15.471  20.883  28.961  0.00  0.00    +0.000 C 
ATOM     15  C   UNL     1     -13.745  20.546  25.896  0.00  0.00    +0.000 C 
ATOM     16  C   UNL     1     -15.221  18.487  28.172  0.00  0.00    +0.000 C 
ATOM     17  C   UNL     1     -15.787  21.572  26.433  0.00  0.00    +0.000 C 
ATOM     18  C   UNL     1     -16.409  22.057  28.632  0.00  0.00    +0.000 C 
ATOM     19  C   UNL     1     -16.598  22.410  27.263  0.00  0.00    +0.000 C 
ENDROOT
BRANCH  19  20
ATOM     20  O   UNL     1     -17.774  22.945  26.824  0.00  0.00    +0.000 OA
ATOM     21  H   UNL     1     -17.973  22.668  25.914  0.00  0.00    +0.000 HD
ENDBRANCH  19  20
BRANCH   5  22
ATOM     22  C   UNL     1      -8.438  20.429  31.306  0.00  0.00    +0.000 C 
ATOM     23  C   UNL     1      -9.037  21.210  32.448  0.00  0.00    +0.000 C 
BRANCH  22  24
ATOM     24  C   UNL     1      -7.240  19.728  31.609  0.00  0.00    +0.000 C 
ATOM     25  C   UNL     1      -5.932  18.995  31.943  0.00  0.00    +0.000 C 
BRANCH  25  26
ATOM     26  C   UNL     1      -4.707  18.327  32.245  0.00  0.00    +0.000 C 
ATOM     27  C   UNL     1      -4.326  18.072  33.617  0.00  0.00    +0.000 C 
ATOM     28  C   UNL     1      -5.198  18.474  34.792  0.00  0.00    +0.000 C 
ATOM     29  C   UNL     1      -3.024  17.413  34.015  0.00  0.00    +0.000 C 
BRANCH  26  30
ATOM     30  C   UNL     1      -3.854  17.901  31.192  0.00  0.00    +0.000 C 
ATOM     31  C   UNL     1      -2.954  17.480  30.025  0.00  0.00    +0.000 C 
ENDBRANCH  26  30
ENDBRANCH  25  26
ENDBRANCH  22  24
ENDBRANCH   5  22
TORSDOF 5
ENDMDL
MODEL 9
REMARK VINA RESULT:      -6.7      5.570     11.908
REMARK  Name = 222284_BetaSitosterol.pdbqt.pdb
REMARK  5 active torsions:
REMARK  status: ('A' for Active; 'I' for Inactive)
REMARK    1  A    between atoms: C_5  and  C_22
REMARK    2  A    between atoms: C_19  and  O_20
REMARK    3  A    between atoms: C_22  and  C_24
REMARK    4  A    between atoms: C_25  and  C_26
REMARK    5  A    between atoms: C_26  and  C_30
REMARK                            x       y       z     vdW  Elec       q    Type
REMARK                         _______ _______ _______ _____ _____    ______ ____
ROOT
ATOM      1  C   UNL     1      -2.623  16.248   6.891  0.00  0.00    +0.000 C 
ATOM      2  C   UNL     1      -1.121  15.745   7.192  0.00  0.00    +0.000 C 
ATOM      3  C   UNL     1       0.011  16.686   7.315  0.00  0.00    +0.000 C 
ATOM      4  C   UNL     1      -0.095  18.183   7.469  0.00  0.00    +0.000 C 
ATOM      5  C   UNL     1      -3.478  15.409   7.829  0.00  0.00    +0.000 C 
ATOM      6  C   UNL     1      -2.619  17.676   7.216  0.00  0.00    +0.000 C 
ATOM      7  C   UNL     1       1.132  19.133   7.516  0.00  0.00    +0.000 C 
ATOM      8  C   UNL     1      -1.222  14.631   8.085  0.00  0.00    +0.000 C 
ATOM      9  C   UNL     1      -1.453  18.602   7.466  0.00  0.00    +0.000 C 
ATOM     10  C   UNL     1      -2.657  14.459   8.502  0.00  0.00    +0.000 C 
ATOM     11  C   UNL     1       1.343  16.217   7.432  0.00  0.00    +0.000 C 
ATOM     12  C   UNL     1      -2.946  15.945   5.406  0.00  0.00    +0.000 C 
ATOM     13  C   UNL     1       2.563  18.369   7.829  0.00  0.00    +0.000 C 
ATOM     14  C   UNL     1       0.991  20.105   8.640  0.00  0.00    +0.000 C 
ATOM     15  C   UNL     1       2.544  17.079   7.682  0.00  0.00    +0.000 C 
ATOM     16  C   UNL     1       1.281  19.838   6.136  0.00  0.00    +0.000 C 
ATOM     17  C   UNL     1       3.323  18.907   8.933  0.00  0.00    +0.000 C 
ATOM     18  C   UNL     1       1.892  20.529   9.812  0.00  0.00    +0.000 C 
ATOM     19  C   UNL     1       3.163  19.898   9.953  0.00  0.00    +0.000 C 
ENDROOT
BRANCH  19  20
ATOM     20  O   UNL     1       4.226  20.557  10.497  0.00  0.00    +0.000 OA
ATOM     21  H   UNL     1       4.534  21.276   9.919  0.00  0.00    +0.000 HD
ENDBRANCH  19  20
BRANCH   5  22
ATOM     22  C   UNL     1      -4.880  15.594   8.042  0.00  0.00    +0.000 C 
ATOM     23  C   UNL     1      -5.903  15.316   6.970  0.00  0.00    +0.000 C 
BRANCH  22  24
ATOM     24  C   UNL     1      -5.405  16.034   9.287  0.00  0.00    +0.000 C 
ATOM     25  C   UNL     1      -5.993  16.525  10.618  0.00  0.00    +0.000 C 
BRANCH  25  26
ATOM     26  C   UNL     1      -6.541  17.000  11.848  0.00  0.00    +0.000 C 
ATOM     27  C   UNL     1      -7.971  17.159  12.004  0.00  0.00    +0.000 C 
ATOM     28  C   UNL     1      -8.952  16.821  10.898  0.00  0.00    +0.000 C 
ATOM     29  C   UNL     1      -8.620  17.699  13.259  0.00  0.00    +0.000 C 
BRANCH  26  30
ATOM     30  C   UNL     1      -5.681  17.311  12.934  0.00  0.00    +0.000 C 
ATOM     31  C   UNL     1      -4.764  17.700  14.099  0.00  0.00    +0.000 C 
ENDBRANCH  26  30
ENDBRANCH  25  26
ENDBRANCH  22  24
ENDBRANCH   5  22
TORSDOF 5
ENDMDL
