MODEL 1
REMARK VINA RESULT:      -8.0      0.000      0.000
REMARK  Name = 25023738_BI-D-1870.pdbqt.pdb
REMARK  4 active torsions:
REMARK  status: ('A' for Active; 'I' for Inactive)
REMARK    1  A    between atoms: N_2  and  C_26
REMARK    2  A    between atoms: N_14  and  C_16
REMARK    3  A    between atoms: C_20  and  O_24
REMARK    4  A    between atoms: C_27  and  C_28
REMARK                            x       y       z     vdW  Elec       q    Type
REMARK                         _______ _______ _______ _____ _____    ______ ____
ROOT
ATOM      1  O   UNL     1      13.982  30.527  15.560  0.00  0.00    +0.000 OA
ATOM      2  N   UNL     1      10.373  30.734  15.703  0.00  0.00    +0.000 N 
ATOM      3  N   UNL     1      12.403  28.897  15.034  0.00  0.00    +0.000 N 
ATOM      4  N   UNL     1       8.718  29.098  15.176  0.00  0.00    +0.000 NA
ATOM      5  N   UNL     1       9.291  26.952  14.430  0.00  0.00    +0.000 NA
ATOM      6  C   UNL     1      11.686  31.136  15.814  0.00  0.00    +0.000 C 
ATOM      7  C   UNL     1      10.024  29.439  15.266  0.00  0.00    +0.000 A 
ATOM      8  C   UNL     1      12.801  30.181  15.465  0.00  0.00    +0.000 C 
ATOM      9  C   UNL     1      11.026  28.552  14.943  0.00  0.00    +0.000 A 
ATOM     10  C   UNL     1      12.014  32.548  16.290  0.00  0.00    +0.000 C 
ATOM     11  C   UNL     1      13.335  27.841  14.655  0.00  0.00    +0.000 C 
ATOM     12  C   UNL     1      10.583  27.315  14.529  0.00  0.00    +0.000 A 
ATOM     13  C   UNL     1       8.383  27.868  14.762  0.00  0.00    +0.000 A 
ATOM     14  N   UNL     1       7.054  27.480  14.656  0.00  0.00    +0.000 N 
ATOM     15  H   UNL     1       6.980  26.524  14.330  0.00  0.00    +0.000 HD
ENDROOT
BRANCH  14  16
ATOM     16  C   UNL     1       5.864  28.168  14.918  0.00  0.00    +0.000 A 
ATOM     17  C   UNL     1       4.688  27.770  14.267  0.00  0.00    +0.000 A 
ATOM     18  C   UNL     1       3.484  28.431  14.503  0.00  0.00    +0.000 A 
ATOM     19  F   UNL     1       2.380  28.021  13.860  0.00  0.00    +0.000 F 
ATOM     20  C   UNL     1       3.428  29.499  15.388  0.00  0.00    +0.000 A 
ATOM     21  C   UNL     1       4.588  29.899  16.036  0.00  0.00    +0.000 A 
ATOM     22  F   UNL     1       4.546  30.928  16.895  0.00  0.00    +0.000 F 
ATOM     23  C   UNL     1       5.794  29.243  15.807  0.00  0.00    +0.000 A 
BRANCH  20  24
ATOM     24  O   UNL     1       2.244  30.142  15.614  0.00  0.00    +0.000 OA
ATOM     25  H   UNL     1       1.626  29.504  16.020  0.00  0.00    +0.000 HD
ENDBRANCH  20  24
ENDBRANCH  14  16
BRANCH   2  26
ATOM     26  C   UNL     1       9.291  31.657  16.038  0.00  0.00    +0.000 C 
ATOM     27  C   UNL     1       8.153  32.622  16.393  0.00  0.00    +0.000 C 
BRANCH  27  28
ATOM     28  C   UNL     1       7.107  33.514  16.717  0.00  0.00    +0.000 C 
ATOM     29  C   UNL     1       5.859  33.533  15.889  0.00  0.00    +0.000 C 
ATOM     30  C   UNL     1       7.271  34.475  17.854  0.00  0.00    +0.000 C 
ENDBRANCH  27  28
ENDBRANCH   2  26
TORSDOF 4
ENDMDL
MODEL 2
REMARK VINA RESULT:      -6.7     17.621     19.629
REMARK  Name = 25023738_BI-D-1870.pdbqt.pdb
REMARK  4 active torsions:
REMARK  status: ('A' for Active; 'I' for Inactive)
REMARK    1  A    between atoms: N_2  and  C_26
REMARK    2  A    between atoms: N_14  and  C_16
REMARK    3  A    between atoms: C_20  and  O_24
REMARK    4  A    between atoms: C_27  and  C_28
REMARK                            x       y       z     vdW  Elec       q    Type
REMARK                         _______ _______ _______ _____ _____    ______ ____
ROOT
ATOM      1  O   UNL     1      18.462  45.342   7.668  0.00  0.00    +0.000 OA
ATOM      2  N   UNL     1      16.054  47.319   9.506  0.00  0.00    +0.000 N 
ATOM      3  N   UNL     1      16.340  44.737   8.415  0.00  0.00    +0.000 N 
ATOM      4  N   UNL     1      13.875  46.747  10.291  0.00  0.00    +0.000 NA
ATOM      5  N   UNL     1      12.944  44.626   9.928  0.00  0.00    +0.000 NA
ATOM      6  C   UNL     1      17.227  47.008   8.853  0.00  0.00    +0.000 C 
ATOM      7  C   UNL     1      15.004  46.387   9.639  0.00  0.00    +0.000 A 
ATOM      8  C   UNL     1      17.416  45.635   8.255  0.00  0.00    +0.000 C 
ATOM      9  C   UNL     1      15.158  45.128   9.101  0.00  0.00    +0.000 A 
ATOM     10  C   UNL     1      18.332  48.051   8.733  0.00  0.00    +0.000 C 
ATOM     11  C   UNL     1      16.340  43.369   7.907  0.00  0.00    +0.000 C 
ATOM     12  C   UNL     1      14.078  44.292   9.285  0.00  0.00    +0.000 A 
ATOM     13  C   UNL     1      12.875  45.862  10.420  0.00  0.00    +0.000 A 
ATOM     14  N   UNL     1      11.700  46.193  11.082  0.00  0.00    +0.000 N 
ATOM     15  H   UNL     1      11.055  45.413  11.087  0.00  0.00    +0.000 HD
ENDROOT
BRANCH  14  16
ATOM     16  C   UNL     1      11.292  47.374  11.711  0.00  0.00    +0.000 A 
ATOM     17  C   UNL     1      10.315  48.172  11.100  0.00  0.00    +0.000 A 
ATOM     18  C   UNL     1       9.883  49.355  11.697  0.00  0.00    +0.000 A 
ATOM     19  F   UNL     1       8.946  50.090  11.080  0.00  0.00    +0.000 F 
ATOM     20  C   UNL     1      10.416  49.766  12.911  0.00  0.00    +0.000 A 
ATOM     21  C   UNL     1      11.385  48.983  13.522  0.00  0.00    +0.000 A 
ATOM     22  F   UNL     1      11.907  49.369  14.696  0.00  0.00    +0.000 F 
ATOM     23  C   UNL     1      11.820  47.799  12.933  0.00  0.00    +0.000 A 
BRANCH  20  24
ATOM     24  O   UNL     1       9.989  50.927  13.491  0.00  0.00    +0.000 OA
ATOM     25  H   UNL     1       9.965  50.791  14.457  0.00  0.00    +0.000 HD
ENDBRANCH  20  24
ENDBRANCH  14  16
BRANCH   2  26
ATOM     26  C   UNL     1      15.864  48.647  10.084  0.00  0.00    +0.000 C 
ATOM     27  C   UNL     1      15.668  50.044  10.687  0.00  0.00    +0.000 C 
BRANCH  27  28
ATOM     28  C   UNL     1      15.484  51.328  11.246  0.00  0.00    +0.000 C 
ATOM     29  C   UNL     1      14.240  51.632  12.023  0.00  0.00    +0.000 C 
ATOM     30  C   UNL     1      16.509  52.395  11.016  0.00  0.00    +0.000 C 
ENDBRANCH  27  28
ENDBRANCH   2  26
TORSDOF 4
ENDMDL
MODEL 3
REMARK VINA RESULT:      -6.3     13.646     16.321
REMARK  Name = 25023738_BI-D-1870.pdbqt.pdb
REMARK  4 active torsions:
REMARK  status: ('A' for Active; 'I' for Inactive)
REMARK    1  A    between atoms: N_2  and  C_26
REMARK    2  A    between atoms: N_14  and  C_16
REMARK    3  A    between atoms: C_20  and  O_24
REMARK    4  A    between atoms: C_27  and  C_28
REMARK                            x       y       z     vdW  Elec       q    Type
REMARK                         _______ _______ _______ _____ _____    ______ ____
ROOT
ATOM      1  O   UNL     1       1.580  47.501  20.144  0.00  0.00    +0.000 OA
ATOM      2  N   UNL     1      -0.310  44.850  18.566  0.00  0.00    +0.000 N 
ATOM      3  N   UNL     1       2.329  45.830  18.704  0.00  0.00    +0.000 N 
ATOM      4  N   UNL     1       0.409  43.120  17.088  0.00  0.00    +0.000 NA
ATOM      5  N   UNL     1       2.645  42.914  16.417  0.00  0.00    +0.000 NA
ATOM      6  C   UNL     1      -0.060  45.957  19.348  0.00  0.00    +0.000 C 
ATOM      7  C   UNL     1       0.712  44.204  17.840  0.00  0.00    +0.000 A 
ATOM      8  C   UNL     1       1.341  46.511  19.447  0.00  0.00    +0.000 C 
ATOM      9  C   UNL     1       1.997  44.694  17.917  0.00  0.00    +0.000 A 
ATOM     10  C   UNL     1      -1.198  46.623  20.114  0.00  0.00    +0.000 C 
ATOM     11  C   UNL     1       3.735  46.217  18.675  0.00  0.00    +0.000 C 
ATOM     12  C   UNL     1       2.921  43.993  17.173  0.00  0.00    +0.000 A 
ATOM     13  C   UNL     1       1.379  42.503  16.397  0.00  0.00    +0.000 A 
ATOM     14  N   UNL     1       1.108  41.389  15.614  0.00  0.00    +0.000 N 
ATOM     15  H   UNL     1       1.949  41.050  15.164  0.00  0.00    +0.000 HD
ENDROOT
BRANCH  14  16
ATOM     16  C   UNL     1      -0.083  40.698  15.366  0.00  0.00    +0.000 A 
ATOM     17  C   UNL     1      -0.370  39.544  16.108  0.00  0.00    +0.000 A 
ATOM     18  C   UNL     1      -1.546  38.829  15.889  0.00  0.00    +0.000 A 
ATOM     19  F   UNL     1      -1.785  37.730  16.619  0.00  0.00    +0.000 F 
ATOM     20  C   UNL     1      -2.457  39.248  14.928  0.00  0.00    +0.000 A 
ATOM     21  C   UNL     1      -2.179  40.389  14.188  0.00  0.00    +0.000 A 
ATOM     22  F   UNL     1      -3.051  40.805  13.258  0.00  0.00    +0.000 F 
ATOM     23  C   UNL     1      -1.007  41.109  14.402  0.00  0.00    +0.000 A 
BRANCH  20  24
ATOM     24  O   UNL     1      -3.608  38.542  14.718  0.00  0.00    +0.000 OA
ATOM     25  H   UNL     1      -4.003  38.345  15.588  0.00  0.00    +0.000 HD
ENDBRANCH  20  24
ENDBRANCH  14  16
BRANCH   2  26
ATOM     26  C   UNL     1      -1.664  44.312  18.465  0.00  0.00    +0.000 C 
ATOM     27  C   UNL     1      -3.084  43.742  18.360  0.00  0.00    +0.000 C 
BRANCH  27  28
ATOM     28  C   UNL     1      -4.394  43.222  18.264  0.00  0.00    +0.000 C 
ATOM     29  C   UNL     1      -5.146  42.859  19.507  0.00  0.00    +0.000 C 
ATOM     30  C   UNL     1      -5.006  42.987  16.917  0.00  0.00    +0.000 C 
ENDBRANCH  27  28
ENDBRANCH   2  26
TORSDOF 4
ENDMDL
MODEL 4
REMARK VINA RESULT:      -5.7      5.272      7.658
REMARK  Name = 25023738_BI-D-1870.pdbqt.pdb
REMARK  4 active torsions:
REMARK  status: ('A' for Active; 'I' for Inactive)
REMARK    1  A    between atoms: N_2  and  C_26
REMARK    2  A    between atoms: N_14  and  C_16
REMARK    3  A    between atoms: C_20  and  O_24
REMARK    4  A    between atoms: C_27  and  C_28
REMARK                            x       y       z     vdW  Elec       q    Type
REMARK                         _______ _______ _______ _____ _____    ______ ____
ROOT
ATOM      1  O   UNL     1      11.380  28.732  22.446  0.00  0.00    +0.000 OA
ATOM      2  N   UNL     1      10.618  31.095  19.815  0.00  0.00    +0.000 N 
ATOM      3  N   UNL     1      10.336  30.808  22.604  0.00  0.00    +0.000 N 
ATOM      4  N   UNL     1       9.554  33.228  19.926  0.00  0.00    +0.000 NA
ATOM      5  N   UNL     1       8.801  34.133  21.952  0.00  0.00    +0.000 NA
ATOM      6  C   UNL     1      11.093  29.946  20.409  0.00  0.00    +0.000 C 
ATOM      7  C   UNL     1      10.001  32.120  20.562  0.00  0.00    +0.000 A 
ATOM      8  C   UNL     1      10.959  29.756  21.900  0.00  0.00    +0.000 C 
ATOM      9  C   UNL     1       9.870  31.966  21.924  0.00  0.00    +0.000 A 
ATOM     10  C   UNL     1      11.751  28.864  19.560  0.00  0.00    +0.000 C 
ATOM     11  C   UNL     1      10.119  30.806  24.047  0.00  0.00    +0.000 C 
ATOM     12  C   UNL     1       9.255  33.022  22.561  0.00  0.00    +0.000 A 
ATOM     13  C   UNL     1       8.967  34.204  20.633  0.00  0.00    +0.000 A 
ATOM     14  N   UNL     1       8.495  35.356  20.017  0.00  0.00    +0.000 N 
ATOM     15  H   UNL     1       8.083  35.986  20.694  0.00  0.00    +0.000 HD
ENDROOT
BRANCH  14  16
ATOM     16  C   UNL     1       8.503  35.761  18.678  0.00  0.00    +0.000 A 
ATOM     17  C   UNL     1       7.654  35.119  17.766  0.00  0.00    +0.000 A 
ATOM     18  C   UNL     1       7.634  35.496  16.424  0.00  0.00    +0.000 A 
ATOM     19  F   UNL     1       6.807  34.858  15.582  0.00  0.00    +0.000 F 
ATOM     20  C   UNL     1       8.458  36.515  15.966  0.00  0.00    +0.000 A 
ATOM     21  C   UNL     1       9.302  37.154  16.863  0.00  0.00    +0.000 A 
ATOM     22  F   UNL     1      10.102  38.141  16.432  0.00  0.00    +0.000 F 
ATOM     23  C   UNL     1       9.327  36.785  18.204  0.00  0.00    +0.000 A 
BRANCH  20  24
ATOM     24  O   UNL     1       8.433  36.878  14.649  0.00  0.00    +0.000 OA
ATOM     25  H   UNL     1       8.579  37.842  14.599  0.00  0.00    +0.000 HD
ENDBRANCH  20  24
ENDBRANCH  14  16
BRANCH   2  26
ATOM     26  C   UNL     1      10.743  31.282  18.372  0.00  0.00    +0.000 C 
ATOM     27  C   UNL     1      10.869  31.478  16.856  0.00  0.00    +0.000 C 
BRANCH  27  28
ATOM     28  C   UNL     1      10.990  31.659  15.460  0.00  0.00    +0.000 C 
ATOM     29  C   UNL     1      10.306  32.814  14.796  0.00  0.00    +0.000 C 
ATOM     30  C   UNL     1      11.759  30.667  14.643  0.00  0.00    +0.000 C 
ENDBRANCH  27  28
ENDBRANCH   2  26
TORSDOF 4
ENDMDL
MODEL 5
REMARK VINA RESULT:      -5.7     18.997     21.788
REMARK  Name = 25023738_BI-D-1870.pdbqt.pdb
REMARK  4 active torsions:
REMARK  status: ('A' for Active; 'I' for Inactive)
REMARK    1  A    between atoms: N_2  and  C_26
REMARK    2  A    between atoms: N_14  and  C_16
REMARK    3  A    between atoms: C_20  and  O_24
REMARK    4  A    between atoms: C_27  and  C_28
REMARK                            x       y       z     vdW  Elec       q    Type
REMARK                         _______ _______ _______ _____ _____    ______ ____
ROOT
ATOM      1  O   UNL     1      15.606  45.796   9.133  0.00  0.00    +0.000 OA
ATOM      2  N   UNL     1      14.626  48.859  10.791  0.00  0.00    +0.000 N 
ATOM      3  N   UNL     1      13.700  46.226  10.402  0.00  0.00    +0.000 N 
ATOM      4  N   UNL     1      12.691  49.347  12.098  0.00  0.00    +0.000 NA
ATOM      5  N   UNL     1      11.031  47.743  12.501  0.00  0.00    +0.000 NA
ATOM      6  C   UNL     1      15.393  47.997  10.037  0.00  0.00    +0.000 C 
ATOM      7  C   UNL     1      13.402  48.459  11.366  0.00  0.00    +0.000 A 
ATOM      8  C   UNL     1      14.929  46.580   9.806  0.00  0.00    +0.000 C 
ATOM      9  C   UNL     1      12.962  47.169  11.167  0.00  0.00    +0.000 A 
ATOM     10  C   UNL     1      16.709  48.476   9.435  0.00  0.00    +0.000 C 
ATOM     11  C   UNL     1      13.092  44.904  10.290  0.00  0.00    +0.000 C 
ATOM     12  C   UNL     1      11.757  46.878  11.770  0.00  0.00    +0.000 A 
ATOM     13  C   UNL     1      11.526  48.970  12.646  0.00  0.00    +0.000 A 
ATOM     14  N   UNL     1      10.767  49.852  13.403  0.00  0.00    +0.000 N 
ATOM     15  H   UNL     1       9.923  49.407  13.740  0.00  0.00    +0.000 HD
ENDROOT
BRANCH  14  16
ATOM     16  C   UNL     1      10.978  51.189  13.757  0.00  0.00    +0.000 A 
ATOM     17  C   UNL     1      11.196  52.137  12.747  0.00  0.00    +0.000 A 
ATOM     18  C   UNL     1      11.409  53.478  13.061  0.00  0.00    +0.000 A 
ATOM     19  F   UNL     1      11.614  54.354  12.066  0.00  0.00    +0.000 F 
ATOM     20  C   UNL     1      11.410  53.900  14.383  0.00  0.00    +0.000 A 
ATOM     21  C   UNL     1      11.196  52.968  15.389  0.00  0.00    +0.000 A 
ATOM     22  F   UNL     1      11.194  53.364  16.670  0.00  0.00    +0.000 F 
ATOM     23  C   UNL     1      10.981  51.627  15.084  0.00  0.00    +0.000 A 
BRANCH  20  24
ATOM     24  O   UNL     1      11.621  55.217  14.684  0.00  0.00    +0.000 OA
ATOM     25  H   UNL     1      12.510  55.298  15.078  0.00  0.00    +0.000 HD
ENDBRANCH  20  24
ENDBRANCH  14  16
BRANCH   2  26
ATOM     26  C   UNL     1      15.070  50.233  11.015  0.00  0.00    +0.000 C 
ATOM     27  C   UNL     1      15.532  51.675  11.255  0.00  0.00    +0.000 C 
BRANCH  27  28
ATOM     28  C   UNL     1      15.961  53.003  11.471  0.00  0.00    +0.000 C 
ATOM     29  C   UNL     1      14.960  54.066  11.804  0.00  0.00    +0.000 C 
ATOM     30  C   UNL     1      17.409  53.354  11.317  0.00  0.00    +0.000 C 
ENDBRANCH  27  28
ENDBRANCH   2  26
TORSDOF 4
ENDMDL
MODEL 6
REMARK VINA RESULT:      -5.6     25.397     28.425
REMARK  Name = 25023738_BI-D-1870.pdbqt.pdb
REMARK  4 active torsions:
REMARK  status: ('A' for Active; 'I' for Inactive)
REMARK    1  A    between atoms: N_2  and  C_26
REMARK    2  A    between atoms: N_14  and  C_16
REMARK    3  A    between atoms: C_20  and  O_24
REMARK    4  A    between atoms: C_27  and  C_28
REMARK                            x       y       z     vdW  Elec       q    Type
REMARK                         _______ _______ _______ _____ _____    ______ ____
ROOT
ATOM      1  O   UNL     1     -19.547  26.302  29.492  0.00  0.00    +0.000 OA
ATOM      2  N   UNL     1     -18.196  28.928  27.402  0.00  0.00    +0.000 N 
ATOM      3  N   UNL     1     -18.271  28.151  30.110  0.00  0.00    +0.000 N 
ATOM      4  N   UNL     1     -16.888  30.836  27.985  0.00  0.00    +0.000 NA
ATOM      5  N   UNL     1     -16.262  31.280  30.200  0.00  0.00    +0.000 NA
ATOM      6  C   UNL     1     -18.878  27.778  27.737  0.00  0.00    +0.000 C 
ATOM      7  C   UNL     1     -17.543  29.717  28.371  0.00  0.00    +0.000 A 
ATOM      8  C   UNL     1     -18.940  27.330  29.177  0.00  0.00    +0.000 C 
ATOM      9  C   UNL     1     -17.588  29.325  29.691  0.00  0.00    +0.000 A 
ATOM     10  C   UNL     1     -19.570  26.958  26.654  0.00  0.00    +0.000 C 
ATOM     11  C   UNL     1     -18.222  27.881  31.543  0.00  0.00    +0.000 C 
ATOM     12  C   UNL     1     -16.920  30.162  30.558  0.00  0.00    +0.000 A 
ATOM     13  C   UNL     1     -16.266  31.588  28.904  0.00  0.00    +0.000 A 
ATOM     14  N   UNL     1     -15.583  32.744  28.548  0.00  0.00    +0.000 N 
ATOM     15  H   UNL     1     -15.174  33.188  29.360  0.00  0.00    +0.000 HD
ENDROOT
BRANCH  14  16
ATOM     16  C   UNL     1     -15.382  33.356  27.306  0.00  0.00    +0.000 A 
ATOM     17  C   UNL     1     -16.494  33.758  26.554  0.00  0.00    +0.000 A 
ATOM     18  C   UNL     1     -16.333  34.372  25.313  0.00  0.00    +0.000 A 
ATOM     19  F   UNL     1     -17.422  34.742  24.625  0.00  0.00    +0.000 F 
ATOM     20  C   UNL     1     -15.063  34.594  24.797  0.00  0.00    +0.000 A 
ATOM     21  C   UNL     1     -13.957  34.197  25.535  0.00  0.00    +0.000 A 
ATOM     22  F   UNL     1     -12.725  34.407  25.047  0.00  0.00    +0.000 F 
ATOM     23  C   UNL     1     -14.110  33.585  26.775  0.00  0.00    +0.000 A 
BRANCH  20  24
ATOM     24  O   UNL     1     -14.912  35.195  23.579  0.00  0.00    +0.000 OA
ATOM     25  H   UNL     1     -14.705  34.501  22.924  0.00  0.00    +0.000 HD
ENDBRANCH  20  24
ENDBRANCH  14  16
BRANCH   2  26
ATOM     26  C   UNL     1     -18.134  29.366  26.010  0.00  0.00    +0.000 C 
ATOM     27  C   UNL     1     -18.072  29.822  24.547  0.00  0.00    +0.000 C 
BRANCH  27  28
ATOM     28  C   UNL     1     -18.013  30.247  23.201  0.00  0.00    +0.000 C 
ATOM     29  C   UNL     1     -18.067  29.236  22.097  0.00  0.00    +0.000 C 
ATOM     30  C   UNL     1     -17.844  31.701  22.884  0.00  0.00    +0.000 C 
ENDBRANCH  27  28
ENDBRANCH   2  26
TORSDOF 4
ENDMDL
MODEL 7
REMARK VINA RESULT:      -5.5     15.074     16.857
REMARK  Name = 25023738_BI-D-1870.pdbqt.pdb
REMARK  4 active torsions:
REMARK  status: ('A' for Active; 'I' for Inactive)
REMARK    1  A    between atoms: N_2  and  C_26
REMARK    2  A    between atoms: N_14  and  C_16
REMARK    3  A    between atoms: C_20  and  O_24
REMARK    4  A    between atoms: C_27  and  C_28
REMARK                            x       y       z     vdW  Elec       q    Type
REMARK                         _______ _______ _______ _____ _____    ______ ____
ROOT
ATOM      1  O   UNL     1       2.876  48.055  20.610  0.00  0.00    +0.000 OA
ATOM      2  N   UNL     1       0.518  45.701  19.201  0.00  0.00    +0.000 N 
ATOM      3  N   UNL     1       3.222  46.454  18.953  0.00  0.00    +0.000 N 
ATOM      4  N   UNL     1       0.823  44.047  17.508  0.00  0.00    +0.000 NA
ATOM      5  N   UNL     1       2.890  43.720  16.453  0.00  0.00    +0.000 NA
ATOM      6  C   UNL     1       0.993  46.716  20.002  0.00  0.00    +0.000 C 
ATOM      7  C   UNL     1       1.343  45.037  18.269  0.00  0.00    +0.000 A 
ATOM      8  C   UNL     1       2.436  47.147  19.898  0.00  0.00    +0.000 C 
ATOM      9  C   UNL     1       2.663  45.416  18.159  0.00  0.00    +0.000 A 
ATOM     10  C   UNL     1       0.062  47.404  20.993  0.00  0.00    +0.000 C 
ATOM     11  C   UNL     1       4.635  46.730  18.711  0.00  0.00    +0.000 C 
ATOM     12  C   UNL     1       3.384  44.708  17.222  0.00  0.00    +0.000 A 
ATOM     13  C   UNL     1       1.605  43.414  16.621  0.00  0.00    +0.000 A 
ATOM     14  N   UNL     1       1.109  42.393  15.822  0.00  0.00    +0.000 N 
ATOM     15  H   UNL     1       1.830  42.027  15.213  0.00  0.00    +0.000 HD
ENDROOT
BRANCH  14  16
ATOM     16  C   UNL     1      -0.165  41.821  15.735  0.00  0.00    +0.000 A 
ATOM     17  C   UNL     1      -0.681  41.494  14.473  0.00  0.00    +0.000 A 
ATOM     18  C   UNL     1      -1.946  40.922  14.347  0.00  0.00    +0.000 A 
ATOM     19  F   UNL     1      -2.405  40.624  13.122  0.00  0.00    +0.000 F 
ATOM     20  C   UNL     1      -2.719  40.666  15.471  0.00  0.00    +0.000 A 
ATOM     21  C   UNL     1      -2.215  40.987  16.723  0.00  0.00    +0.000 A 
ATOM     22  F   UNL     1      -2.952  40.744  17.817  0.00  0.00    +0.000 F 
ATOM     23  C   UNL     1      -0.953  41.558  16.858  0.00  0.00    +0.000 A 
BRANCH  20  24
ATOM     24  O   UNL     1      -3.959  40.106  15.339  0.00  0.00    +0.000 OA
ATOM     25  H   UNL     1      -3.841  39.157  15.138  0.00  0.00    +0.000 HD
ENDBRANCH  20  24
ENDBRANCH  14  16
BRANCH   2  26
ATOM     26  C   UNL     1      -0.878  45.281  19.296  0.00  0.00    +0.000 C 
ATOM     27  C   UNL     1      -2.344  44.843  19.401  0.00  0.00    +0.000 C 
BRANCH  27  28
ATOM     28  C   UNL     1      -3.694  44.438  19.493  0.00  0.00    +0.000 C 
ATOM     29  C   UNL     1      -4.031  43.080  20.031  0.00  0.00    +0.000 C 
ATOM     30  C   UNL     1      -4.780  45.346  19.005  0.00  0.00    +0.000 C 
ENDBRANCH  27  28
ENDBRANCH   2  26
TORSDOF 4
ENDMDL
MODEL 8
REMARK VINA RESULT:      -5.5      8.640     10.629
REMARK  Name = 25023738_BI-D-1870.pdbqt.pdb
REMARK  4 active torsions:
REMARK  status: ('A' for Active; 'I' for Inactive)
REMARK    1  A    between atoms: N_2  and  C_26
REMARK    2  A    between atoms: N_14  and  C_16
REMARK    3  A    between atoms: C_20  and  O_24
REMARK    4  A    between atoms: C_27  and  C_28
REMARK                            x       y       z     vdW  Elec       q    Type
REMARK                         _______ _______ _______ _____ _____    ______ ____
ROOT
ATOM      1  O   UNL     1      19.547  38.861  16.976  0.00  0.00    +0.000 OA
ATOM      2  N   UNL     1      15.983  39.470  16.843  0.00  0.00    +0.000 N 
ATOM      3  N   UNL     1      17.818  37.345  16.605  0.00  0.00    +0.000 N 
ATOM      4  N   UNL     1      14.179  37.955  16.467  0.00  0.00    +0.000 NA
ATOM      5  N   UNL     1      14.537  35.668  16.102  0.00  0.00    +0.000 NA
ATOM      6  C   UNL     1      17.327  39.744  16.978  0.00  0.00    +0.000 C 
ATOM      7  C   UNL     1      15.510  38.166  16.590  0.00  0.00    +0.000 A 
ATOM      8  C   UNL     1      18.340  38.631  16.857  0.00  0.00    +0.000 C 
ATOM      9  C   UNL     1      16.418  37.137  16.476  0.00  0.00    +0.000 A 
ATOM     10  C   UNL     1      17.791  41.170  17.250  0.00  0.00    +0.000 C 
ATOM     11  C   UNL     1      18.640  36.148  16.457  0.00  0.00    +0.000 C 
ATOM     12  C   UNL     1      15.856  35.903  16.230  0.00  0.00    +0.000 A 
ATOM     13  C   UNL     1      13.725  36.716  16.227  0.00  0.00    +0.000 A 
ATOM     14  N   UNL     1      12.367  36.459  16.094  0.00  0.00    +0.000 N 
ATOM     15  H   UNL     1      12.200  35.477  15.916  0.00  0.00    +0.000 HD
ENDROOT
BRANCH  14  16
ATOM     16  C   UNL     1      11.253  37.302  16.165  0.00  0.00    +0.000 A 
ATOM     17  C   UNL     1      10.321  37.294  15.118  0.00  0.00    +0.000 A 
ATOM     18  C   UNL     1       9.199  38.120  15.155  0.00  0.00    +0.000 A 
ATOM     19  F   UNL     1       8.331  38.082  14.133  0.00  0.00    +0.000 F 
ATOM     20  C   UNL     1       8.984  38.968  16.232  0.00  0.00    +0.000 A 
ATOM     21  C   UNL     1       9.902  38.983  17.273  0.00  0.00    +0.000 A 
ATOM     22  F   UNL     1       9.705  39.798  18.319  0.00  0.00    +0.000 F 
ATOM     23  C   UNL     1      11.025  38.161  17.244  0.00  0.00    +0.000 A 
BRANCH  20  24
ATOM     24  O   UNL     1       7.882  39.776  16.261  0.00  0.00    +0.000 OA
ATOM     25  H   UNL     1       8.067  40.518  16.868  0.00  0.00    +0.000 HD
ENDBRANCH  20  24
ENDBRANCH  14  16
BRANCH   2  26
ATOM     26  C   UNL     1      15.000  40.544  16.958  0.00  0.00    +0.000 C 
ATOM     27  C   UNL     1      13.971  41.674  17.078  0.00  0.00    +0.000 C 
BRANCH  27  28
ATOM     28  C   UNL     1      13.019  42.712  17.188  0.00  0.00    +0.000 C 
ATOM     29  C   UNL     1      12.028  42.700  18.312  0.00  0.00    +0.000 C 
ATOM     30  C   UNL     1      12.970  43.793  16.152  0.00  0.00    +0.000 C 
ENDBRANCH  27  28
ENDBRANCH   2  26
TORSDOF 4
ENDMDL
MODEL 9
REMARK VINA RESULT:      -5.5     16.101     18.045
REMARK  Name = 25023738_BI-D-1870.pdbqt.pdb
REMARK  4 active torsions:
REMARK  status: ('A' for Active; 'I' for Inactive)
REMARK    1  A    between atoms: N_2  and  C_26
REMARK    2  A    between atoms: N_14  and  C_16
REMARK    3  A    between atoms: C_20  and  O_24
REMARK    4  A    between atoms: C_27  and  C_28
REMARK                            x       y       z     vdW  Elec       q    Type
REMARK                         _______ _______ _______ _____ _____    ______ ____
ROOT
ATOM      1  O   UNL     1      15.149  22.025   2.051  0.00  0.00    +0.000 OA
ATOM      2  N   UNL     1      14.000  24.687  -0.114  0.00  0.00    +0.000 N 
ATOM      3  N   UNL     1      14.522  24.198   2.612  0.00  0.00    +0.000 N 
ATOM      4  N   UNL     1      13.347  26.920   0.410  0.00  0.00    +0.000 NA
ATOM      5  N   UNL     1      13.376  27.736   2.608  0.00  0.00    +0.000 NA
ATOM      6  C   UNL     1      14.453  23.438   0.255  0.00  0.00    +0.000 C 
ATOM      7  C   UNL     1      13.793  25.714   0.830  0.00  0.00    +0.000 A 
ATOM      8  C   UNL     1      14.743  23.139   1.705  0.00  0.00    +0.000 C 
ATOM      9  C   UNL     1      14.052  25.461   2.158  0.00  0.00    +0.000 A 
ATOM     10  C   UNL     1      14.660  22.359  -0.802  0.00  0.00    +0.000 C 
ATOM     11  C   UNL     1      14.746  24.098   4.050  0.00  0.00    +0.000 C 
ATOM     12  C   UNL     1      13.819  26.527   2.999  0.00  0.00    +0.000 A 
ATOM     13  C   UNL     1      13.150  27.899   1.306  0.00  0.00    +0.000 A 
ATOM     14  N   UNL     1      12.693  29.151   0.915  0.00  0.00    +0.000 N 
ATOM     15  H   UNL     1      12.600  29.768   1.713  0.00  0.00    +0.000 HD
ENDROOT
BRANCH  14  16
ATOM     16  C   UNL     1      12.362  29.666  -0.343  0.00  0.00    +0.000 A 
ATOM     17  C   UNL     1      12.973  29.129  -1.484  0.00  0.00    +0.000 A 
ATOM     18  C   UNL     1      12.667  29.616  -2.754  0.00  0.00    +0.000 A 
ATOM     19  F   UNL     1      13.273  29.075  -3.820  0.00  0.00    +0.000 F 
ATOM     20  C   UNL     1      11.750  30.647  -2.910  0.00  0.00    +0.000 A 
ATOM     21  C   UNL     1      11.142  31.185  -1.785  0.00  0.00    +0.000 A 
ATOM     22  F   UNL     1      10.254  32.180  -1.924  0.00  0.00    +0.000 F 
ATOM     23  C   UNL     1      11.441  30.703  -0.514  0.00  0.00    +0.000 A 
BRANCH  20  24
ATOM     24  O   UNL     1      11.456  31.120  -4.158  0.00  0.00    +0.000 OA
ATOM     25  H   UNL     1      11.880  31.994  -4.257  0.00  0.00    +0.000 HD
ENDBRANCH  20  24
ENDBRANCH  14  16
BRANCH   2  26
ATOM     26  C   UNL     1      13.716  24.980  -1.517  0.00  0.00    +0.000 C 
ATOM     27  C   UNL     1      13.414  25.285  -2.989  0.00  0.00    +0.000 C 
BRANCH  27  28
ATOM     28  C   UNL     1      13.139  25.570  -4.345  0.00  0.00    +0.000 C 
ATOM     29  C   UNL     1      14.174  25.289  -5.391  0.00  0.00    +0.000 C 
ATOM     30  C   UNL     1      11.835  26.200  -4.726  0.00  0.00    +0.000 C 
ENDBRANCH  27  28
ENDBRANCH   2  26
TORSDOF 4
ENDMDL
