MODEL 1
REMARK VINA RESULT:      -5.6      0.000      0.000
REMARK  Name = 26879_Levamisole.pdbqt.pdb
REMARK  1 active torsions:
REMARK  status: ('A' for Active; 'I' for Inactive)
REMARK    1  A    between atoms: C_5  and  C_9
REMARK                            x       y       z     vdW  Elec       q    Type
REMARK                         _______ _______ _______ _____ _____    ______ ____
ROOT
ATOM      1  S   UNL     1     -15.756  28.582  21.941  0.00  0.00    +0.000 S 
ATOM      2  N   UNL     1     -16.058  29.199  24.671  0.00  0.00    +0.000 NA
ATOM      3  N   UNL     1     -14.512  30.525  23.332  0.00  0.00    +0.000 NA
ATOM      4  C   UNL     1     -15.883  30.553  25.096  0.00  0.00    +0.000 C 
ATOM      5  C   UNL     1     -14.905  31.275  24.393  0.00  0.00    +0.000 C 
ATOM      6  C   UNL     1     -17.313  28.881  24.040  0.00  0.00    +0.000 C 
ATOM      7  C   UNL     1     -15.199  29.349  23.447  0.00  0.00    +0.000 C 
ATOM      8  C   UNL     1     -17.302  28.463  22.602  0.00  0.00    +0.000 C 
ENDROOT
BRANCH   5   9
ATOM      9  C   UNL     1     -14.411  32.616  24.663  0.00  0.00    +0.000 A 
ATOM     10  C   UNL     1     -14.754  33.699  23.848  0.00  0.00    +0.000 A 
ATOM     11  C   UNL     1     -13.570  32.845  25.756  0.00  0.00    +0.000 A 
ATOM     12  C   UNL     1     -14.271  34.979  24.117  0.00  0.00    +0.000 A 
ATOM     13  C   UNL     1     -13.084  34.123  26.029  0.00  0.00    +0.000 A 
ATOM     14  C   UNL     1     -13.436  35.189  25.209  0.00  0.00    +0.000 A 
ENDBRANCH   5   9
TORSDOF 1
ENDMDL
MODEL 2
REMARK VINA RESULT:      -5.2     33.582     34.999
REMARK  Name = 26879_Levamisole.pdbqt.pdb
REMARK  1 active torsions:
REMARK  status: ('A' for Active; 'I' for Inactive)
REMARK    1  A    between atoms: C_5  and  C_9
REMARK                            x       y       z     vdW  Elec       q    Type
REMARK                         _______ _______ _______ _____ _____    ______ ____
ROOT
ATOM      1  S   UNL     1      11.304  48.408  12.246  0.00  0.00    +0.000 S 
ATOM      2  N   UNL     1      13.151  46.587  13.340  0.00  0.00    +0.000 NA
ATOM      3  N   UNL     1      12.308  46.193  11.087  0.00  0.00    +0.000 NA
ATOM      4  C   UNL     1      14.045  45.899  12.462  0.00  0.00    +0.000 C 
ATOM      5  C   UNL     1      13.510  45.574  11.205  0.00  0.00    +0.000 C 
ATOM      6  C   UNL     1      13.481  47.954  13.651  0.00  0.00    +0.000 C 
ATOM      7  C   UNL     1      12.107  46.821  12.284  0.00  0.00    +0.000 C 
ATOM      8  C   UNL     1      12.549  49.033  13.195  0.00  0.00    +0.000 C 
ENDROOT
BRANCH   5   9
ATOM      9  C   UNL     1      14.116  44.777  10.149  0.00  0.00    +0.000 A 
ATOM     10  C   UNL     1      13.367  43.865   9.399  0.00  0.00    +0.000 A 
ATOM     11  C   UNL     1      15.479  44.909   9.868  0.00  0.00    +0.000 A 
ATOM     12  C   UNL     1      13.961  43.106   8.393  0.00  0.00    +0.000 A 
ATOM     13  C   UNL     1      16.079  44.152   8.863  0.00  0.00    +0.000 A 
ATOM     14  C   UNL     1      15.319  43.251   8.125  0.00  0.00    +0.000 A 
ENDBRANCH   5   9
TORSDOF 1
ENDMDL
MODEL 3
REMARK VINA RESULT:      -5.0     38.919     39.702
REMARK  Name = 26879_Levamisole.pdbqt.pdb
REMARK  1 active torsions:
REMARK  status: ('A' for Active; 'I' for Inactive)
REMARK    1  A    between atoms: C_5  and  C_9
REMARK                            x       y       z     vdW  Elec       q    Type
REMARK                         _______ _______ _______ _____ _____    ______ ____
ROOT
ATOM      1  S   UNL     1      16.678  31.740  -4.745  0.00  0.00    +0.000 S 
ATOM      2  N   UNL     1      15.854  32.003  -2.066  0.00  0.00    +0.000 NA
ATOM      3  N   UNL     1      14.191  31.430  -3.754  0.00  0.00    +0.000 NA
ATOM      4  C   UNL     1      14.753  31.216  -1.602  0.00  0.00    +0.000 C 
ATOM      5  C   UNL     1      13.743  30.990  -2.551  0.00  0.00    +0.000 C 
ATOM      6  C   UNL     1      17.121  31.327  -2.185  0.00  0.00    +0.000 C 
ATOM      7  C   UNL     1      15.422  31.970  -3.505  0.00  0.00    +0.000 C 
ATOM      8  C   UNL     1      17.722  31.176  -3.548  0.00  0.00    +0.000 C 
ENDROOT
BRANCH   5   9
ATOM      9  C   UNL     1      12.455  30.342  -2.355  0.00  0.00    +0.000 A 
ATOM     10  C   UNL     1      12.161  29.107  -2.942  0.00  0.00    +0.000 A 
ATOM     11  C   UNL     1      11.476  30.955  -1.568  0.00  0.00    +0.000 A 
ATOM     12  C   UNL     1      10.922  28.499  -2.748  0.00  0.00    +0.000 A 
ATOM     13  C   UNL     1      10.235  30.352  -1.371  0.00  0.00    +0.000 A 
ATOM     14  C   UNL     1       9.959  29.123  -1.961  0.00  0.00    +0.000 A 
ENDBRANCH   5   9
TORSDOF 1
ENDMDL
MODEL 4
REMARK VINA RESULT:      -4.9      1.972      2.640
REMARK  Name = 26879_Levamisole.pdbqt.pdb
REMARK  1 active torsions:
REMARK  status: ('A' for Active; 'I' for Inactive)
REMARK    1  A    between atoms: C_5  and  C_9
REMARK                            x       y       z     vdW  Elec       q    Type
REMARK                         _______ _______ _______ _____ _____    ______ ____
ROOT
ATOM      1  S   UNL     1     -18.267  27.945  21.933  0.00  0.00    +0.000 S 
ATOM      2  N   UNL     1     -15.937  28.918  20.689  0.00  0.00    +0.000 NA
ATOM      3  N   UNL     1     -17.149  30.380  22.219  0.00  0.00    +0.000 NA
ATOM      4  C   UNL     1     -15.138  29.884  21.379  0.00  0.00    +0.000 C 
ATOM      5  C   UNL     1     -15.858  30.796  22.167  0.00  0.00    +0.000 C 
ATOM      6  C   UNL     1     -15.798  27.549  21.115  0.00  0.00    +0.000 C 
ATOM      7  C   UNL     1     -17.203  29.274  21.416  0.00  0.00    +0.000 C 
ATOM      8  C   UNL     1     -16.983  26.872  21.731  0.00  0.00    +0.000 C 
ENDROOT
BRANCH   5   9
ATOM      9  C   UNL     1     -15.354  31.958  22.882  0.00  0.00    +0.000 A 
ATOM     10  C   UNL     1     -15.730  33.257  22.524  0.00  0.00    +0.000 A 
ATOM     11  C   UNL     1     -14.469  31.793  23.952  0.00  0.00    +0.000 A 
ATOM     12  C   UNL     1     -15.237  34.362  23.216  0.00  0.00    +0.000 A 
ATOM     13  C   UNL     1     -13.972  32.894  24.647  0.00  0.00    +0.000 A 
ATOM     14  C   UNL     1     -14.357  34.179  24.278  0.00  0.00    +0.000 A 
ENDBRANCH   5   9
TORSDOF 1
ENDMDL
MODEL 5
REMARK VINA RESULT:      -4.8     20.778     22.754
REMARK  Name = 26879_Levamisole.pdbqt.pdb
REMARK  1 active torsions:
REMARK  status: ('A' for Active; 'I' for Inactive)
REMARK    1  A    between atoms: C_5  and  C_9
REMARK                            x       y       z     vdW  Elec       q    Type
REMARK                         _______ _______ _______ _____ _____    ______ ____
ROOT
ATOM      1  S   UNL     1      -7.486  43.753  11.715  0.00  0.00    +0.000 S 
ATOM      2  N   UNL     1      -4.803  44.394  12.275  0.00  0.00    +0.000 NA
ATOM      3  N   UNL     1      -5.646  44.744  10.015  0.00  0.00    +0.000 NA
ATOM      4  C   UNL     1      -4.179  45.453  11.544  0.00  0.00    +0.000 C 
ATOM      5  C   UNL     1      -4.588  45.572  10.206  0.00  0.00    +0.000 C 
ATOM      6  C   UNL     1      -5.692  44.785  13.339  0.00  0.00    +0.000 C 
ATOM      7  C   UNL     1      -5.816  44.095  11.206  0.00  0.00    +0.000 C 
ATOM      8  C   UNL     1      -7.145  44.445  13.214  0.00  0.00    +0.000 C 
ENDROOT
BRANCH   5   9
ATOM      9  C   UNL     1      -4.057  46.457   9.180  0.00  0.00    +0.000 A 
ATOM     10  C   UNL     1      -4.622  46.515   7.902  0.00  0.00    +0.000 A 
ATOM     11  C   UNL     1      -2.955  47.270   9.459  0.00  0.00    +0.000 A 
ATOM     12  C   UNL     1      -4.102  47.365   6.927  0.00  0.00    +0.000 A 
ATOM     13  C   UNL     1      -2.431  48.122   8.488  0.00  0.00    +0.000 A 
ATOM     14  C   UNL     1      -3.005  48.169   7.222  0.00  0.00    +0.000 A 
ENDBRANCH   5   9
TORSDOF 1
ENDMDL
MODEL 6
REMARK VINA RESULT:      -4.7     43.518     44.533
REMARK  Name = 26879_Levamisole.pdbqt.pdb
REMARK  1 active torsions:
REMARK  status: ('A' for Active; 'I' for Inactive)
REMARK    1  A    between atoms: C_5  and  C_9
REMARK                            x       y       z     vdW  Elec       q    Type
REMARK                         _______ _______ _______ _____ _____    ______ ____
ROOT
ATOM      1  S   UNL     1      -1.357  59.166  -9.581  0.00  0.00    +0.000 S 
ATOM      2  N   UNL     1      -1.044  57.772  -7.155  0.00  0.00    +0.000 NA
ATOM      3  N   UNL     1       0.705  57.596  -8.844  0.00  0.00    +0.000 NA
ATOM      4  C   UNL     1       0.276  57.551  -6.651  0.00  0.00    +0.000 C 
ATOM      5  C   UNL     1       1.258  57.334  -7.632  0.00  0.00    +0.000 C 
ATOM      6  C   UNL     1      -1.592  59.090  -6.962  0.00  0.00    +0.000 C 
ATOM      7  C   UNL     1      -0.603  57.897  -8.586  0.00  0.00    +0.000 C 
ATOM      8  C   UNL     1      -1.881  59.925  -8.170  0.00  0.00    +0.000 C 
ENDROOT
BRANCH   5   9
ATOM      9  C   UNL     1       2.651  56.963  -7.442  0.00  0.00    +0.000 A 
ATOM     10  C   UNL     1       3.554  57.817  -6.801  0.00  0.00    +0.000 A 
ATOM     11  C   UNL     1       3.117  55.730  -7.907  0.00  0.00    +0.000 A 
ATOM     12  C   UNL     1       4.888  57.450  -6.628  0.00  0.00    +0.000 A 
ATOM     13  C   UNL     1       4.449  55.357  -7.736  0.00  0.00    +0.000 A 
ATOM     14  C   UNL     1       5.334  56.218  -7.096  0.00  0.00    +0.000 A 
ENDBRANCH   5   9
TORSDOF 1
ENDMDL
MODEL 7
REMARK VINA RESULT:      -4.5     13.210     14.679
REMARK  Name = 26879_Levamisole.pdbqt.pdb
REMARK  1 active torsions:
REMARK  status: ('A' for Active; 'I' for Inactive)
REMARK    1  A    between atoms: C_5  and  C_9
REMARK                            x       y       z     vdW  Elec       q    Type
REMARK                         _______ _______ _______ _____ _____    ______ ____
ROOT
ATOM      1  S   UNL     1     -12.374  14.555  29.492  0.00  0.00    +0.000 S 
ATOM      2  N   UNL     1     -13.485  16.730  28.091  0.00  0.00    +0.000 NA
ATOM      3  N   UNL     1     -11.648  17.146  29.639  0.00  0.00    +0.000 NA
ATOM      4  C   UNL     1     -12.647  17.842  27.765  0.00  0.00    +0.000 C 
ATOM      5  C   UNL     1     -11.664  18.146  28.721  0.00  0.00    +0.000 C 
ATOM      6  C   UNL     1     -13.349  15.558  27.264  0.00  0.00    +0.000 C 
ATOM      7  C   UNL     1     -12.654  16.298  29.266  0.00  0.00    +0.000 C 
ATOM      8  C   UNL     1     -12.836  14.299  27.891  0.00  0.00    +0.000 C 
ENDROOT
BRANCH   5   9
ATOM      9  C   UNL     1     -10.750  19.278  28.741  0.00  0.00    +0.000 A 
ATOM     10  C   UNL     1      -9.739  19.383  29.700  0.00  0.00    +0.000 A 
ATOM     11  C   UNL     1     -10.874  20.294  27.789  0.00  0.00    +0.000 A 
ATOM     12  C   UNL     1      -8.871  20.474  29.710  0.00  0.00    +0.000 A 
ATOM     13  C   UNL     1     -10.010  21.387  27.794  0.00  0.00    +0.000 A 
ATOM     14  C   UNL     1      -9.008  21.476  28.755  0.00  0.00    +0.000 A 
ENDBRANCH   5   9
TORSDOF 1
ENDMDL
MODEL 8
REMARK VINA RESULT:      -4.4     33.297     35.728
REMARK  Name = 26879_Levamisole.pdbqt.pdb
REMARK  1 active torsions:
REMARK  status: ('A' for Active; 'I' for Inactive)
REMARK    1  A    between atoms: C_5  and  C_9
REMARK                            x       y       z     vdW  Elec       q    Type
REMARK                         _______ _______ _______ _____ _____    ______ ____
ROOT
ATOM      1  S   UNL     1      -0.723  62.016  14.962  0.00  0.00    +0.000 S 
ATOM      2  N   UNL     1      -3.013  61.217  13.532  0.00  0.00    +0.000 NA
ATOM      3  N   UNL     1      -1.344  62.589  12.403  0.00  0.00    +0.000 NA
ATOM      4  C   UNL     1      -2.911  61.021  12.119  0.00  0.00    +0.000 C 
ATOM      5  C   UNL     1      -2.032  61.896  11.460  0.00  0.00    +0.000 C 
ATOM      6  C   UNL     1      -2.492  60.163  14.365  0.00  0.00    +0.000 C 
ATOM      7  C   UNL     1      -1.858  62.176  13.601  0.00  0.00    +0.000 C 
ATOM      8  C   UNL     1      -1.315  60.462  15.240  0.00  0.00    +0.000 C 
ENDROOT
BRANCH   5   9
ATOM      9  C   UNL     1      -1.806  62.033  10.030  0.00  0.00    +0.000 A 
ATOM     10  C   UNL     1      -2.289  61.087   9.120  0.00  0.00    +0.000 A 
ATOM     11  C   UNL     1      -1.087  63.125   9.535  0.00  0.00    +0.000 A 
ATOM     12  C   UNL     1      -2.063  61.228   7.752  0.00  0.00    +0.000 A 
ATOM     13  C   UNL     1      -0.857  63.271   8.169  0.00  0.00    +0.000 A 
ATOM     14  C   UNL     1      -1.346  62.322   7.277  0.00  0.00    +0.000 A 
ENDBRANCH   5   9
TORSDOF 1
ENDMDL
MODEL 9
REMARK VINA RESULT:      -4.4     26.020     26.757
REMARK  Name = 26879_Levamisole.pdbqt.pdb
REMARK  1 active torsions:
REMARK  status: ('A' for Active; 'I' for Inactive)
REMARK    1  A    between atoms: C_5  and  C_9
REMARK                            x       y       z     vdW  Elec       q    Type
REMARK                         _______ _______ _______ _____ _____    ______ ____
ROOT
ATOM      1  S   UNL     1      13.181  27.094  16.970  0.00  0.00    +0.000 S 
ATOM      2  N   UNL     1      11.113  25.710  15.654  0.00  0.00    +0.000 NA
ATOM      3  N   UNL     1      10.586  27.798  16.796  0.00  0.00    +0.000 NA
ATOM      4  C   UNL     1      10.027  26.456  15.099  0.00  0.00    +0.000 C 
ATOM      5  C   UNL     1       9.655  27.597  15.830  0.00  0.00    +0.000 C 
ATOM      6  C   UNL     1      12.340  25.705  14.900  0.00  0.00    +0.000 C 
ATOM      7  C   UNL     1      11.459  26.753  16.679  0.00  0.00    +0.000 C 
ATOM      8  C   UNL     1      13.551  26.344  15.506  0.00  0.00    +0.000 C 
ENDROOT
BRANCH   5   9
ATOM      9  C   UNL     1       8.524  28.482  15.598  0.00  0.00    +0.000 A 
ATOM     10  C   UNL     1       7.377  28.043  14.930  0.00  0.00    +0.000 A 
ATOM     11  C   UNL     1       8.569  29.807  16.043  0.00  0.00    +0.000 A 
ATOM     12  C   UNL     1       6.302  28.903  14.712  0.00  0.00    +0.000 A 
ATOM     13  C   UNL     1       7.497  30.671  15.828  0.00  0.00    +0.000 A 
ATOM     14  C   UNL     1       6.363  30.218  15.162  0.00  0.00    +0.000 A 
ENDBRANCH   5   9
TORSDOF 1
ENDMDL
