MODEL 1
REMARK VINA RESULT:      -4.3      0.000      0.000
REMARK  Name = 27924_Phorbol.pdbqt.pdb
REMARK  26 active torsions:
REMARK  status: ('A' for Active; 'I' for Inactive)
REMARK    1  A    between atoms: O_1  and  C_10
REMARK    2  A    between atoms: O_1  and  C_26
REMARK    3  A    between atoms: O_2  and  C_13
REMARK    4  A    between atoms: O_2  and  C_28
REMARK    5  A    between atoms: O_3  and  C_14
REMARK    6  A    between atoms: O_4  and  C_20
REMARK    7  A    between atoms: O_7  and  C_29
REMARK    8  A    between atoms: C_11  and  C_16
REMARK    9  A    between atoms: C_11  and  C_17
REMARK   10  A    between atoms: C_15  and  C_21
REMARK   11  A    between atoms: C_22  and  C_29
REMARK   12  A    between atoms: C_26  and  C_30
REMARK   13  A    between atoms: C_27  and  C_31
REMARK   14  A    between atoms: C_28  and  C_32
REMARK   15  A    between atoms: C_32  and  C_33
REMARK   16  A    between atoms: C_33  and  C_34
REMARK   17  A    between atoms: C_34  and  C_35
REMARK   18  A    between atoms: C_35  and  C_36
REMARK   19  A    between atoms: C_36  and  C_37
REMARK   20  A    between atoms: C_37  and  C_38
REMARK   21  A    between atoms: C_38  and  C_39
REMARK   22  A    between atoms: C_39  and  C_40
REMARK   23  A    between atoms: C_40  and  C_41
REMARK   24  A    between atoms: C_41  and  C_42
REMARK   25  A    between atoms: C_42  and  C_43
REMARK   26  A    between atoms: C_43  and  C_44
REMARK                            x       y       z     vdW  Elec       q    Type
REMARK                         _______ _______ _______ _____ _____    ______ ____
ROOT
ATOM      1  O   UNL     1     -10.778  62.496  -1.089  0.00  0.00    +0.000 OA
ATOM      2  C   UNL     1      -7.516  66.507   3.772  0.00  0.00    +0.000 C 
ATOM      3  C   UNL     1      -6.023  66.355   3.999  0.00  0.00    +0.000 C 
ATOM      4  C   UNL     1      -7.048  65.833   5.047  0.00  0.00    +0.000 C 
ATOM      5  C   UNL     1      -8.168  65.944   2.546  0.00  0.00    +0.000 C 
ATOM      6  C   UNL     1      -5.254  65.449   3.020  0.00  0.00    +0.000 C 
ATOM      7  C   UNL     1      -7.365  64.856   1.695  0.00  0.00    +0.000 C 
ATOM      8  C   UNL     1      -5.908  65.458   1.593  0.00  0.00    +0.000 C 
ATOM      9  C   UNL     1      -7.310  66.636   6.310  0.00  0.00    +0.000 C 
ATOM     10  C   UNL     1      -7.278  64.359   5.276  0.00  0.00    +0.000 C 
ATOM     11  C   UNL     1      -8.178  64.560   0.335  0.00  0.00    +0.000 C 
ATOM     12  C   UNL     1      -9.629  65.587   2.748  0.00  0.00    +0.000 C 
ATOM     13  C   UNL     1      -9.598  63.867   0.538  0.00  0.00    +0.000 C 
ATOM     14  C   UNL     1      -4.978  64.789   0.580  0.00  0.00    +0.000 C 
ATOM     15  C   UNL     1     -10.469  65.915   1.743  0.00  0.00    +0.000 C 
ATOM     16  C   UNL     1     -10.802  64.812   0.754  0.00  0.00    +0.000 C 
ATOM     17  C   UNL     1      -7.581  63.632  -0.715  0.00  0.00    +0.000 C 
ATOM     18  C   UNL     1      -9.747  63.040  -0.720  0.00  0.00    +0.000 C 
ATOM     19  C   UNL     1      -8.443  62.836  -1.361  0.00  0.00    +0.000 C 
ATOM     20  C   UNL     1      -8.232  61.891  -2.478  0.00  0.00    +0.000 C 
ENDROOT
BRANCH   7  21
ATOM     21  O   UNL     1      -7.234  63.612   2.396  0.00  0.00    +0.000 OA
ATOM     22  H   UNL     1      -6.352  63.236   2.180  0.00  0.00    +0.000 HD
ENDBRANCH   7  21
BRANCH  13  23
ATOM     23  O   UNL     1      -9.558  62.873   1.590  0.00  0.00    +0.000 OA
ATOM     24  H   UNL     1      -9.505  63.371   2.432  0.00  0.00    +0.000 HD
ENDBRANCH  13  23
BRANCH   3  25
ATOM     25  O   UNL     1      -5.424  67.662   4.200  0.00  0.00    +0.000 OA
BRANCH  25  27
ATOM     26  O   UNL     1      -5.523  68.880   2.317  0.00  0.00    +0.000 OA
ATOM     27  C   UNL     1      -5.764  68.785   3.518  0.00  0.00    +0.000 C 
ATOM     28  C   UNL     1      -6.509  69.869   4.238  0.00  0.00    +0.000 C 
ENDBRANCH  25  27
ENDBRANCH   3  25
BRANCH  15  29
ATOM     29  C   UNL     1     -10.620  67.316   1.212  0.00  0.00    +0.000 C 
BRANCH  29  30
ATOM     30  O   UNL     1     -10.414  67.284  -0.190  0.00  0.00    +0.000 OA
ATOM     31  H   UNL     1     -11.294  67.333  -0.603  0.00  0.00    +0.000 HD
ENDBRANCH  29  30
ENDBRANCH  15  29
BRANCH   6  32
ATOM     32  O   UNL     1      -3.886  65.937   2.941  0.00  0.00    +0.000 OA
BRANCH  32  34
ATOM     33  O   UNL     1      -2.305  64.364   2.764  0.00  0.00    +0.000 OA
ATOM     34  C   UNL     1      -2.794  65.290   3.407  0.00  0.00    +0.000 C 
BRANCH  34  35
ATOM     35  C   UNL     1      -2.185  65.718   4.720  0.00  0.00    +0.000 C 
BRANCH  35  36
ATOM     36  C   UNL     1      -3.088  65.375   5.898  0.00  0.00    +0.000 C 
BRANCH  36  37
ATOM     37  C   UNL     1      -3.546  63.913   5.935  0.00  0.00    +0.000 C 
BRANCH  37  38
ATOM     38  C   UNL     1      -2.425  62.906   6.228  0.00  0.00    +0.000 C 
BRANCH  38  39
ATOM     39  C   UNL     1      -2.918  61.699   7.034  0.00  0.00    +0.000 C 
BRANCH  39  40
ATOM     40  C   UNL     1      -1.888  61.172   8.036  0.00  0.00    +0.000 C 
BRANCH  40  41
ATOM     41  C   UNL     1      -2.407  61.150   9.476  0.00  0.00    +0.000 C 
BRANCH  41  42
ATOM     42  C   UNL     1      -1.822  62.265  10.348  0.00  0.00    +0.000 C 
BRANCH  42  43
ATOM     43  C   UNL     1      -2.389  63.667  10.108  0.00  0.00    +0.000 C 
BRANCH  43  44
ATOM     44  C   UNL     1      -1.432  64.663   9.445  0.00  0.00    +0.000 C 
BRANCH  44  45
ATOM     45  C   UNL     1       0.016  64.189   9.295  0.00  0.00    +0.000 C 
BRANCH  45  46
ATOM     46  C   UNL     1       0.494  63.950   7.861  0.00  0.00    +0.000 C 
ATOM     47  C   UNL     1       0.841  65.230   7.118  0.00  0.00    +0.000 C 
ENDBRANCH  45  46
ENDBRANCH  44  45
ENDBRANCH  43  44
ENDBRANCH  42  43
ENDBRANCH  41  42
ENDBRANCH  40  41
ENDBRANCH  39  40
ENDBRANCH  38  39
ENDBRANCH  37  38
ENDBRANCH  36  37
ENDBRANCH  35  36
ENDBRANCH  34  35
ENDBRANCH  32  34
ENDBRANCH   6  32
TORSDOF 20
ENDMDL
MODEL 2
REMARK VINA RESULT:      -4.3     37.005     40.484
REMARK  Name = 27924_Phorbol.pdbqt.pdb
REMARK  26 active torsions:
REMARK  status: ('A' for Active; 'I' for Inactive)
REMARK    1  A    between atoms: O_1  and  C_10
REMARK    2  A    between atoms: O_1  and  C_26
REMARK    3  A    between atoms: O_2  and  C_13
REMARK    4  A    between atoms: O_2  and  C_28
REMARK    5  A    between atoms: O_3  and  C_14
REMARK    6  A    between atoms: O_4  and  C_20
REMARK    7  A    between atoms: O_7  and  C_29
REMARK    8  A    between atoms: C_11  and  C_16
REMARK    9  A    between atoms: C_11  and  C_17
REMARK   10  A    between atoms: C_15  and  C_21
REMARK   11  A    between atoms: C_22  and  C_29
REMARK   12  A    between atoms: C_26  and  C_30
REMARK   13  A    between atoms: C_27  and  C_31
REMARK   14  A    between atoms: C_28  and  C_32
REMARK   15  A    between atoms: C_32  and  C_33
REMARK   16  A    between atoms: C_33  and  C_34
REMARK   17  A    between atoms: C_34  and  C_35
REMARK   18  A    between atoms: C_35  and  C_36
REMARK   19  A    between atoms: C_36  and  C_37
REMARK   20  A    between atoms: C_37  and  C_38
REMARK   21  A    between atoms: C_38  and  C_39
REMARK   22  A    between atoms: C_39  and  C_40
REMARK   23  A    between atoms: C_40  and  C_41
REMARK   24  A    between atoms: C_41  and  C_42
REMARK   25  A    between atoms: C_42  and  C_43
REMARK   26  A    between atoms: C_43  and  C_44
REMARK                            x       y       z     vdW  Elec       q    Type
REMARK                         _______ _______ _______ _____ _____    ______ ____
ROOT
ATOM      1  O   UNL     1     -19.436  40.170  28.663  0.00  0.00    +0.000 OA
ATOM      2  C   UNL     1     -19.696  33.772  25.604  0.00  0.00    +0.000 C 
ATOM      3  C   UNL     1     -18.511  33.272  24.798  0.00  0.00    +0.000 C 
ATOM      4  C   UNL     1     -19.826  33.715  24.094  0.00  0.00    +0.000 C 
ATOM      5  C   UNL     1     -19.554  34.940  26.534  0.00  0.00    +0.000 C 
ATOM      6  C   UNL     1     -17.227  34.120  24.838  0.00  0.00    +0.000 C 
ATOM      7  C   UNL     1     -18.277  35.885  26.370  0.00  0.00    +0.000 C 
ATOM      8  C   UNL     1     -17.076  34.871  26.208  0.00  0.00    +0.000 C 
ATOM      9  C   UNL     1     -20.803  32.666  23.592  0.00  0.00    +0.000 C 
ATOM     10  C   UNL     1     -19.909  34.978  23.273  0.00  0.00    +0.000 C 
ATOM     11  C   UNL     1     -18.248  36.931  27.596  0.00  0.00    +0.000 C 
ATOM     12  C   UNL     1     -20.846  35.709  26.738  0.00  0.00    +0.000 C 
ATOM     13  C   UNL     1     -19.453  37.972  27.621  0.00  0.00    +0.000 C 
ATOM     14  C   UNL     1     -15.675  35.470  26.332  0.00  0.00    +0.000 C 
ATOM     15  C   UNL     1     -21.113  36.101  28.003  0.00  0.00    +0.000 C 
ATOM     16  C   UNL     1     -20.734  37.527  28.361  0.00  0.00    +0.000 C 
ATOM     17  C   UNL     1     -17.071  37.887  27.745  0.00  0.00    +0.000 C 
ATOM     18  C   UNL     1     -18.825  39.192  28.259  0.00  0.00    +0.000 C 
ATOM     19  C   UNL     1     -17.361  39.120  28.181  0.00  0.00    +0.000 C 
ATOM     20  C   UNL     1     -16.479  40.257  28.517  0.00  0.00    +0.000 C 
ENDROOT
BRANCH   7  21
ATOM     21  O   UNL     1     -18.321  36.647  25.157  0.00  0.00    +0.000 OA
ATOM     22  H   UNL     1     -18.018  37.560  25.362  0.00  0.00    +0.000 HD
ENDBRANCH   7  21
BRANCH  13  23
ATOM     23  O   UNL     1     -19.788  38.427  26.287  0.00  0.00    +0.000 OA
ATOM     24  H   UNL     1     -20.668  38.852  26.359  0.00  0.00    +0.000 HD
ENDBRANCH  13  23
BRANCH   3  25
ATOM     25  O   UNL     1     -18.303  31.860  25.061  0.00  0.00    +0.000 OA
BRANCH  25  27
ATOM     26  O   UNL     1     -17.582  31.533  27.162  0.00  0.00    +0.000 OA
ATOM     27  C   UNL     1     -18.401  31.275  26.282  0.00  0.00    +0.000 C 
ATOM     28  C   UNL     1     -19.568  30.377  26.561  0.00  0.00    +0.000 C 
ENDBRANCH  25  27
ENDBRANCH   3  25
BRANCH  15  29
ATOM     29  C   UNL     1     -21.195  35.150  29.167  0.00  0.00    +0.000 C 
BRANCH  29  30
ATOM     30  O   UNL     1     -22.212  34.201  28.894  0.00  0.00    +0.000 OA
ATOM     31  H   UNL     1     -21.775  33.333  28.832  0.00  0.00    +0.000 HD
ENDBRANCH  29  30
ENDBRANCH  15  29
BRANCH   6  32
ATOM     32  O   UNL     1     -16.096  33.229  24.634  0.00  0.00    +0.000 OA
BRANCH  32  34
ATOM     33  O   UNL     1     -15.649  33.725  22.500  0.00  0.00    +0.000 OA
ATOM     34  C   UNL     1     -15.523  32.947  23.442  0.00  0.00    +0.000 C 
BRANCH  34  35
ATOM     35  C   UNL     1     -14.732  31.672  23.284  0.00  0.00    +0.000 C 
BRANCH  35  36
ATOM     36  C   UNL     1     -15.463  30.477  23.884  0.00  0.00    +0.000 C 
BRANCH  36  37
ATOM     37  C   UNL     1     -14.893  29.117  23.467  0.00  0.00    +0.000 C 
BRANCH  37  38
ATOM     38  C   UNL     1     -14.116  29.135  22.144  0.00  0.00    +0.000 C 
BRANCH  38  39
ATOM     39  C   UNL     1     -15.002  28.796  20.940  0.00  0.00    +0.000 C 
BRANCH  39  40
ATOM     40  C   UNL     1     -14.515  29.418  19.628  0.00  0.00    +0.000 C 
BRANCH  40  41
ATOM     41  C   UNL     1     -15.241  28.869  18.398  0.00  0.00    +0.000 C 
BRANCH  41  42
ATOM     42  C   UNL     1     -16.656  28.368  18.702  0.00  0.00    +0.000 C 
BRANCH  42  43
ATOM     43  C   UNL     1     -17.553  28.124  17.486  0.00  0.00    +0.000 C 
BRANCH  43  44
ATOM     44  C   UNL     1     -18.898  27.453  17.780  0.00  0.00    +0.000 C 
BRANCH  44  45
ATOM     45  C   UNL     1     -20.123  28.370  17.715  0.00  0.00    +0.000 C 
BRANCH  45  46
ATOM     46  C   UNL     1     -20.542  28.822  16.314  0.00  0.00    +0.000 C 
ATOM     47  C   UNL     1     -19.993  27.940  15.204  0.00  0.00    +0.000 C 
ENDBRANCH  45  46
ENDBRANCH  44  45
ENDBRANCH  43  44
ENDBRANCH  42  43
ENDBRANCH  41  42
ENDBRANCH  40  41
ENDBRANCH  39  40
ENDBRANCH  38  39
ENDBRANCH  37  38
ENDBRANCH  36  37
ENDBRANCH  35  36
ENDBRANCH  34  35
ENDBRANCH  32  34
ENDBRANCH   6  32
TORSDOF 20
ENDMDL
MODEL 3
REMARK VINA RESULT:      -4.0     34.508     37.965
REMARK  Name = 27924_Phorbol.pdbqt.pdb
REMARK  26 active torsions:
REMARK  status: ('A' for Active; 'I' for Inactive)
REMARK    1  A    between atoms: O_1  and  C_10
REMARK    2  A    between atoms: O_1  and  C_26
REMARK    3  A    between atoms: O_2  and  C_13
REMARK    4  A    between atoms: O_2  and  C_28
REMARK    5  A    between atoms: O_3  and  C_14
REMARK    6  A    between atoms: O_4  and  C_20
REMARK    7  A    between atoms: O_7  and  C_29
REMARK    8  A    between atoms: C_11  and  C_16
REMARK    9  A    between atoms: C_11  and  C_17
REMARK   10  A    between atoms: C_15  and  C_21
REMARK   11  A    between atoms: C_22  and  C_29
REMARK   12  A    between atoms: C_26  and  C_30
REMARK   13  A    between atoms: C_27  and  C_31
REMARK   14  A    between atoms: C_28  and  C_32
REMARK   15  A    between atoms: C_32  and  C_33
REMARK   16  A    between atoms: C_33  and  C_34
REMARK   17  A    between atoms: C_34  and  C_35
REMARK   18  A    between atoms: C_35  and  C_36
REMARK   19  A    between atoms: C_36  and  C_37
REMARK   20  A    between atoms: C_37  and  C_38
REMARK   21  A    between atoms: C_38  and  C_39
REMARK   22  A    between atoms: C_39  and  C_40
REMARK   23  A    between atoms: C_40  and  C_41
REMARK   24  A    between atoms: C_41  and  C_42
REMARK   25  A    between atoms: C_42  and  C_43
REMARK   26  A    between atoms: C_43  and  C_44
REMARK                            x       y       z     vdW  Elec       q    Type
REMARK                         _______ _______ _______ _____ _____    ______ ____
ROOT
ATOM      1  O   UNL     1      21.802  35.501 -10.942  0.00  0.00    +0.000 OA
ATOM      2  C   UNL     1      19.282  39.922  -5.996  0.00  0.00    +0.000 C 
ATOM      3  C   UNL     1      19.965  41.255  -5.756  0.00  0.00    +0.000 C 
ATOM      4  C   UNL     1      20.091  40.096  -4.726  0.00  0.00    +0.000 C 
ATOM      5  C   UNL     1      19.561  39.127  -7.236  0.00  0.00    +0.000 C 
ATOM      6  C   UNL     1      21.079  41.660  -6.739  0.00  0.00    +0.000 C 
ATOM      7  C   UNL     1      20.858  39.496  -8.093  0.00  0.00    +0.000 C 
ATOM      8  C   UNL     1      20.822  41.073  -8.172  0.00  0.00    +0.000 C 
ATOM      9  C   UNL     1      19.258  40.124  -3.455  0.00  0.00    +0.000 C 
ATOM     10  C   UNL     1      21.383  39.346  -4.518  0.00  0.00    +0.000 C 
ATOM     11  C   UNL     1      20.829  38.649  -9.465  0.00  0.00    +0.000 C 
ATOM     12  C   UNL     1      19.369  37.633  -7.053  0.00  0.00    +0.000 C 
ATOM     13  C   UNL     1      20.964  37.072  -9.285  0.00  0.00    +0.000 C 
ATOM     14  C   UNL     1      21.773  41.713  -9.185  0.00  0.00    +0.000 C 
ATOM     15  C   UNL     1      18.750  36.983  -8.062  0.00  0.00    +0.000 C 
ATOM     16  C   UNL     1      19.650  36.288  -9.069  0.00  0.00    +0.000 C 
ATOM     17  C   UNL     1      21.901  38.886 -10.521  0.00  0.00    +0.000 C 
ATOM     18  C   UNL     1      21.671  36.653 -10.556  0.00  0.00    +0.000 C 
ATOM     19  C   UNL     1      22.327  37.805 -11.186  0.00  0.00    +0.000 C 
ATOM     20  C   UNL     1      23.274  37.676 -12.313  0.00  0.00    +0.000 C 
ENDROOT
BRANCH   7  21
ATOM     21  O   UNL     1      22.071  39.159  -7.407  0.00  0.00    +0.000 OA
ATOM     22  H   UNL     1      22.432  39.983  -7.009  0.00  0.00    +0.000 HD
ENDBRANCH   7  21
BRANCH  13  23
ATOM     23  O   UNL     1      21.915  36.736  -8.246  0.00  0.00    +0.000 OA
ATOM     24  H   UNL     1      22.294  37.586  -7.940  0.00  0.00    +0.000 HD
ENDBRANCH  13  23
BRANCH   3  25
ATOM     25  O   UNL     1      18.964  42.282  -5.532  0.00  0.00    +0.000 OA
BRANCH  25  27
ATOM     26  O   UNL     1      16.748  42.012  -5.293  0.00  0.00    +0.000 OA
ATOM     27  C   UNL     1      17.702  42.259  -6.029  0.00  0.00    +0.000 C 
ATOM     28  C   UNL     1      17.486  42.619  -7.468  0.00  0.00    +0.000 C 
ENDBRANCH  25  27
ENDBRANCH   3  25
BRANCH  15  29
ATOM     29  C   UNL     1      17.384  37.355  -8.576  0.00  0.00    +0.000 C 
BRANCH  29  30
ATOM     30  O   UNL     1      17.512  37.744  -9.933  0.00  0.00    +0.000 OA
ATOM     31  H   UNL     1      17.056  38.600 -10.023  0.00  0.00    +0.000 HD
ENDBRANCH  29  30
ENDBRANCH  15  29
BRANCH   6  32
ATOM     32  O   UNL     1      21.117  43.112  -6.798  0.00  0.00    +0.000 OA
BRANCH  32  34
ATOM     33  O   UNL     1      22.604  44.737  -7.186  0.00  0.00    +0.000 OA
ATOM     34  C   UNL     1      22.160  43.886  -6.419  0.00  0.00    +0.000 C 
BRANCH  34  35
ATOM     35  C   UNL     1      22.767  43.693  -5.052  0.00  0.00    +0.000 C 
BRANCH  35  36
ATOM     36  C   UNL     1      21.883  44.276  -3.956  0.00  0.00    +0.000 C 
BRANCH  36  37
ATOM     37  C   UNL     1      21.312  43.233  -2.989  0.00  0.00    +0.000 C 
BRANCH  37  38
ATOM     38  C   UNL     1      22.315  42.716  -1.949  0.00  0.00    +0.000 C 
BRANCH  38  39
ATOM     39  C   UNL     1      21.888  41.378  -1.336  0.00  0.00    +0.000 C 
BRANCH  39  40
ATOM     40  C   UNL     1      22.454  41.139   0.066  0.00  0.00    +0.000 C 
BRANCH  40  41
ATOM     41  C   UNL     1      21.858  39.907   0.752  0.00  0.00    +0.000 C 
BRANCH  41  42
ATOM     42  C   UNL     1      20.909  39.112  -0.149  0.00  0.00    +0.000 C 
BRANCH  42  43
ATOM     43  C   UNL     1      20.439  37.763   0.404  0.00  0.00    +0.000 C 
BRANCH  43  44
ATOM     44  C   UNL     1      20.565  36.575  -0.555  0.00  0.00    +0.000 C 
BRANCH  44  45
ATOM     45  C   UNL     1      19.985  36.791  -1.956  0.00  0.00    +0.000 C 
BRANCH  45  46
ATOM     46  C   UNL     1      20.760  36.142  -3.104  0.00  0.00    +0.000 C 
ATOM     47  C   UNL     1      22.258  36.058  -2.854  0.00  0.00    +0.000 C 
ENDBRANCH  45  46
ENDBRANCH  44  45
ENDBRANCH  43  44
ENDBRANCH  42  43
ENDBRANCH  41  42
ENDBRANCH  40  41
ENDBRANCH  39  40
ENDBRANCH  38  39
ENDBRANCH  37  38
ENDBRANCH  36  37
ENDBRANCH  35  36
ENDBRANCH  34  35
ENDBRANCH  32  34
ENDBRANCH   6  32
TORSDOF 20
ENDMDL
MODEL 4
REMARK VINA RESULT:      -4.0     42.507     46.475
REMARK  Name = 27924_Phorbol.pdbqt.pdb
REMARK  26 active torsions:
REMARK  status: ('A' for Active; 'I' for Inactive)
REMARK    1  A    between atoms: O_1  and  C_10
REMARK    2  A    between atoms: O_1  and  C_26
REMARK    3  A    between atoms: O_2  and  C_13
REMARK    4  A    between atoms: O_2  and  C_28
REMARK    5  A    between atoms: O_3  and  C_14
REMARK    6  A    between atoms: O_4  and  C_20
REMARK    7  A    between atoms: O_7  and  C_29
REMARK    8  A    between atoms: C_11  and  C_16
REMARK    9  A    between atoms: C_11  and  C_17
REMARK   10  A    between atoms: C_15  and  C_21
REMARK   11  A    between atoms: C_22  and  C_29
REMARK   12  A    between atoms: C_26  and  C_30
REMARK   13  A    between atoms: C_27  and  C_31
REMARK   14  A    between atoms: C_28  and  C_32
REMARK   15  A    between atoms: C_32  and  C_33
REMARK   16  A    between atoms: C_33  and  C_34
REMARK   17  A    between atoms: C_34  and  C_35
REMARK   18  A    between atoms: C_35  and  C_36
REMARK   19  A    between atoms: C_36  and  C_37
REMARK   20  A    between atoms: C_37  and  C_38
REMARK   21  A    between atoms: C_38  and  C_39
REMARK   22  A    between atoms: C_39  and  C_40
REMARK   23  A    between atoms: C_40  and  C_41
REMARK   24  A    between atoms: C_41  and  C_42
REMARK   25  A    between atoms: C_42  and  C_43
REMARK   26  A    between atoms: C_43  and  C_44
REMARK                            x       y       z     vdW  Elec       q    Type
REMARK                         _______ _______ _______ _____ _____    ______ ____
ROOT
ATOM      1  O   UNL     1     -24.028  20.613  24.863  0.00  0.00    +0.000 OA
ATOM      2  C   UNL     1     -17.988  21.487  21.242  0.00  0.00    +0.000 C 
ATOM      3  C   UNL     1     -17.496  22.886  20.920  0.00  0.00    +0.000 C 
ATOM      4  C   UNL     1     -18.087  21.972  19.809  0.00  0.00    +0.000 C 
ATOM      5  C   UNL     1     -19.048  21.265  22.279  0.00  0.00    +0.000 C 
ATOM      6  C   UNL     1     -18.255  24.062  21.563  0.00  0.00    +0.000 C 
ATOM      7  C   UNL     1     -19.923  22.518  22.744  0.00  0.00    +0.000 C 
ATOM      8  C   UNL     1     -18.858  23.665  22.956  0.00  0.00    +0.000 C 
ATOM      9  C   UNL     1     -17.154  21.259  18.844  0.00  0.00    +0.000 C 
ATOM     10  C   UNL     1     -19.427  22.248  19.172  0.00  0.00    +0.000 C 
ATOM     11  C   UNL     1     -20.841  22.072  23.992  0.00  0.00    +0.000 C 
ATOM     12  C   UNL     1     -19.872  20.014  22.041  0.00  0.00    +0.000 C 
ATOM     13  C   UNL     1     -21.948  20.977  23.656  0.00  0.00    +0.000 C 
ATOM     14  C   UNL     1     -19.354  24.909  23.693  0.00  0.00    +0.000 C 
ATOM     15  C   UNL     1     -20.155  19.269  23.132  0.00  0.00    +0.000 C 
ATOM     16  C   UNL     1     -21.513  19.499  23.772  0.00  0.00    +0.000 C 
ATOM     17  C   UNL     1     -21.703  23.107  24.703  0.00  0.00    +0.000 C 
ATOM     18  C   UNL     1     -23.058  21.318  24.626  0.00  0.00    +0.000 C 
ATOM     19  C   UNL     1     -22.904  22.689  25.126  0.00  0.00    +0.000 C 
ATOM     20  C   UNL     1     -23.945  23.383  25.912  0.00  0.00    +0.000 C 
ENDROOT
BRANCH   7  21
ATOM     21  O   UNL     1     -20.802  22.977  21.708  0.00  0.00    +0.000 OA
ATOM     22  H   UNL     1     -21.226  22.189  21.301  0.00  0.00    +0.000 HD
ENDBRANCH   7  21
BRANCH  13  23
ATOM     23  O   UNL     1     -22.551  21.212  22.360  0.00  0.00    +0.000 OA
ATOM     24  H   UNL     1     -23.512  21.309  22.522  0.00  0.00    +0.000 HD
ENDBRANCH  13  23
BRANCH   3  25
ATOM     25  O   UNL     1     -16.055  22.946  21.081  0.00  0.00    +0.000 OA
BRANCH  25  27
ATOM     26  O   UNL     1     -15.308  22.798  23.194  0.00  0.00    +0.000 OA
ATOM     27  C   UNL     1     -15.357  22.320  22.062  0.00  0.00    +0.000 C 
ATOM     28  C   UNL     1     -14.717  20.997  21.762  0.00  0.00    +0.000 C 
ENDBRANCH  25  27
ENDBRANCH   3  25
BRANCH  15  29
ATOM     29  C   UNL     1     -19.102  18.710  24.052  0.00  0.00    +0.000 C 
BRANCH  29  30
ATOM     30  O   UNL     1     -19.461  19.032  25.385  0.00  0.00    +0.000 OA
ATOM     31  H   UNL     1     -20.433  18.986  25.431  0.00  0.00    +0.000 HD
ENDBRANCH  29  30
ENDBRANCH  15  29
BRANCH   6  32
ATOM     32  O   UNL     1     -17.319  25.163  21.724  0.00  0.00    +0.000 OA
BRANCH  32  34
ATOM     33  O   UNL     1     -18.202  26.505  20.168  0.00  0.00    +0.000 OA
ATOM     34  C   UNL     1     -17.332  26.315  21.014  0.00  0.00    +0.000 C 
BRANCH  34  35
ATOM     35  C   UNL     1     -16.272  27.356  21.274  0.00  0.00    +0.000 C 
BRANCH  35  36
ATOM     36  C   UNL     1     -16.832  28.769  21.169  0.00  0.00    +0.000 C 
BRANCH  36  37
ATOM     37  C   UNL     1     -15.776  29.845  20.892  0.00  0.00    +0.000 C 
BRANCH  37  38
ATOM     38  C   UNL     1     -15.741  30.980  21.924  0.00  0.00    +0.000 C 
BRANCH  38  39
ATOM     39  C   UNL     1     -16.188  30.520  23.316  0.00  0.00    +0.000 C 
BRANCH  39  40
ATOM     40  C   UNL     1     -15.035  30.046  24.203  0.00  0.00    +0.000 C 
BRANCH  40  41
ATOM     41  C   UNL     1     -15.107  30.600  25.629  0.00  0.00    +0.000 C 
BRANCH  41  42
ATOM     42  C   UNL     1     -15.179  32.129  25.681  0.00  0.00    +0.000 C 
BRANCH  42  43
ATOM     43  C   UNL     1     -13.986  32.873  25.074  0.00  0.00    +0.000 C 
BRANCH  43  44
ATOM     44  C   UNL     1     -14.331  33.925  24.016  0.00  0.00    +0.000 C 
BRANCH  44  45
ATOM     45  C   UNL     1     -13.781  35.331  24.275  0.00  0.00    +0.000 C 
BRANCH  45  46
ATOM     46  C   UNL     1     -14.031  35.896  25.674  0.00  0.00    +0.000 C 
ATOM     47  C   UNL     1     -15.490  36.229  25.941  0.00  0.00    +0.000 C 
ENDBRANCH  45  46
ENDBRANCH  44  45
ENDBRANCH  43  44
ENDBRANCH  42  43
ENDBRANCH  41  42
ENDBRANCH  40  41
ENDBRANCH  39  40
ENDBRANCH  38  39
ENDBRANCH  37  38
ENDBRANCH  36  37
ENDBRANCH  35  36
ENDBRANCH  34  35
ENDBRANCH  32  34
ENDBRANCH   6  32
TORSDOF 20
ENDMDL
MODEL 5
REMARK VINA RESULT:      -3.8     33.982     37.536
REMARK  Name = 27924_Phorbol.pdbqt.pdb
REMARK  26 active torsions:
REMARK  status: ('A' for Active; 'I' for Inactive)
REMARK    1  A    between atoms: O_1  and  C_10
REMARK    2  A    between atoms: O_1  and  C_26
REMARK    3  A    between atoms: O_2  and  C_13
REMARK    4  A    between atoms: O_2  and  C_28
REMARK    5  A    between atoms: O_3  and  C_14
REMARK    6  A    between atoms: O_4  and  C_20
REMARK    7  A    between atoms: O_7  and  C_29
REMARK    8  A    between atoms: C_11  and  C_16
REMARK    9  A    between atoms: C_11  and  C_17
REMARK   10  A    between atoms: C_15  and  C_21
REMARK   11  A    between atoms: C_22  and  C_29
REMARK   12  A    between atoms: C_26  and  C_30
REMARK   13  A    between atoms: C_27  and  C_31
REMARK   14  A    between atoms: C_28  and  C_32
REMARK   15  A    between atoms: C_32  and  C_33
REMARK   16  A    between atoms: C_33  and  C_34
REMARK   17  A    between atoms: C_34  and  C_35
REMARK   18  A    between atoms: C_35  and  C_36
REMARK   19  A    between atoms: C_36  and  C_37
REMARK   20  A    between atoms: C_37  and  C_38
REMARK   21  A    between atoms: C_38  and  C_39
REMARK   22  A    between atoms: C_39  and  C_40
REMARK   23  A    between atoms: C_40  and  C_41
REMARK   24  A    between atoms: C_41  and  C_42
REMARK   25  A    between atoms: C_42  and  C_43
REMARK   26  A    between atoms: C_43  and  C_44
REMARK                            x       y       z     vdW  Elec       q    Type
REMARK                         _______ _______ _______ _____ _____    ______ ____
ROOT
ATOM      1  O   UNL     1     -22.659  41.797  19.139  0.00  0.00    +0.000 OA
ATOM      2  C   UNL     1     -22.355  37.513  24.789  0.00  0.00    +0.000 C 
ATOM      3  C   UNL     1     -22.434  38.100  26.186  0.00  0.00    +0.000 C 
ATOM      4  C   UNL     1     -21.093  37.541  25.629  0.00  0.00    +0.000 C 
ATOM      5  C   UNL     1     -22.755  38.323  23.592  0.00  0.00    +0.000 C 
ATOM      6  C   UNL     1     -22.761  39.600  26.300  0.00  0.00    +0.000 C 
ATOM      7  C   UNL     1     -22.879  39.907  23.759  0.00  0.00    +0.000 C 
ATOM      8  C   UNL     1     -23.671  40.082  25.116  0.00  0.00    +0.000 C 
ATOM      9  C   UNL     1     -20.607  36.170  26.069  0.00  0.00    +0.000 C 
ATOM     10  C   UNL     1     -19.937  38.441  25.268  0.00  0.00    +0.000 C 
ATOM     11  C   UNL     1     -23.510  40.521  22.409  0.00  0.00    +0.000 C 
ATOM     12  C   UNL     1     -22.043  37.909  22.318  0.00  0.00    +0.000 C 
ATOM     13  C   UNL     1     -22.596  40.376  21.113  0.00  0.00    +0.000 C 
ATOM     14  C   UNL     1     -24.210  41.485  25.398  0.00  0.00    +0.000 C 
ATOM     15  C   UNL     1     -22.801  37.856  21.201  0.00  0.00    +0.000 C 
ATOM     16  C   UNL     1     -22.757  39.074  20.297  0.00  0.00    +0.000 C 
ATOM     17  C   UNL     1     -23.836  42.007  22.336  0.00  0.00    +0.000 C 
ATOM     18  C   UNL     1     -22.968  41.601  20.305  0.00  0.00    +0.000 C 
ATOM     19  C   UNL     1     -23.612  42.606  21.159  0.00  0.00    +0.000 C 
ATOM     20  C   UNL     1     -23.888  43.987  20.710  0.00  0.00    +0.000 C 
ENDROOT
BRANCH   7  21
ATOM     21  O   UNL     1     -21.604  40.530  23.959  0.00  0.00    +0.000 OA
ATOM     22  H   UNL     1     -20.911  39.842  23.852  0.00  0.00    +0.000 HD
ENDBRANCH   7  21
BRANCH  13  23
ATOM     23  O   UNL     1     -21.197  40.592  21.423  0.00  0.00    +0.000 OA
ATOM     24  H   UNL     1     -20.714  39.830  21.042  0.00  0.00    +0.000 HD
ENDBRANCH  13  23
BRANCH   3  25
ATOM     25  O   UNL     1     -23.250  37.245  27.028  0.00  0.00    +0.000 OA
BRANCH  25  27
ATOM     26  O   UNL     1     -24.234  35.313  26.443  0.00  0.00    +0.000 OA
ATOM     27  C   UNL     1     -24.321  36.529  26.603  0.00  0.00    +0.000 C 
ATOM     28  C   UNL     1     -25.630  37.235  26.411  0.00  0.00    +0.000 C 
ENDBRANCH  25  27
ENDBRANCH   3  25
BRANCH  15  29
ATOM     29  C   UNL     1     -24.046  37.016  21.082  0.00  0.00    +0.000 C 
BRANCH  29  30
ATOM     30  O   UNL     1     -23.885  36.139  19.981  0.00  0.00    +0.000 OA
ATOM     31  H   UNL     1     -22.966  36.238  19.675  0.00  0.00    +0.000 HD
ENDBRANCH  29  30
ENDBRANCH  15  29
BRANCH   6  32
ATOM     32  O   UNL     1     -23.442  39.814  27.566  0.00  0.00    +0.000 OA
BRANCH  32  34
ATOM     33  O   UNL     1     -23.499  40.160  29.775  0.00  0.00    +0.000 OA
ATOM     34  C   UNL     1     -22.844  40.134  28.736  0.00  0.00    +0.000 C 
BRANCH  34  35
ATOM     35  C   UNL     1     -21.370  40.457  28.750  0.00  0.00    +0.000 C 
BRANCH  35  36
ATOM     36  C   UNL     1     -20.547  39.308  29.320  0.00  0.00    +0.000 C 
BRANCH  36  37
ATOM     37  C   UNL     1     -19.085  39.293  28.860  0.00  0.00    +0.000 C 
BRANCH  37  38
ATOM     38  C   UNL     1     -18.499  37.890  28.654  0.00  0.00    +0.000 C 
BRANCH  38  39
ATOM     39  C   UNL     1     -17.272  37.896  27.737  0.00  0.00    +0.000 C 
BRANCH  39  40
ATOM     40  C   UNL     1     -17.018  36.553  27.047  0.00  0.00    +0.000 C 
BRANCH  40  41
ATOM     41  C   UNL     1     -15.765  36.558  26.167  0.00  0.00    +0.000 C 
BRANCH  41  42
ATOM     42  C   UNL     1     -15.190  35.160  25.923  0.00  0.00    +0.000 C 
BRANCH  42  43
ATOM     43  C   UNL     1     -13.668  35.037  26.033  0.00  0.00    +0.000 C 
BRANCH  43  44
ATOM     44  C   UNL     1     -13.095  33.643  25.758  0.00  0.00    +0.000 C 
BRANCH  44  45
ATOM     45  C   UNL     1     -14.122  32.567  25.391  0.00  0.00    +0.000 C 
BRANCH  45  46
ATOM     46  C   UNL     1     -14.174  32.174  23.913  0.00  0.00    +0.000 C 
ATOM     47  C   UNL     1     -15.410  32.691  23.193  0.00  0.00    +0.000 C 
ENDBRANCH  45  46
ENDBRANCH  44  45
ENDBRANCH  43  44
ENDBRANCH  42  43
ENDBRANCH  41  42
ENDBRANCH  40  41
ENDBRANCH  39  40
ENDBRANCH  38  39
ENDBRANCH  37  38
ENDBRANCH  36  37
ENDBRANCH  35  36
ENDBRANCH  34  35
ENDBRANCH  32  34
ENDBRANCH   6  32
TORSDOF 20
ENDMDL
MODEL 6
REMARK VINA RESULT:      -3.8     37.058     41.450
REMARK  Name = 27924_Phorbol.pdbqt.pdb
REMARK  26 active torsions:
REMARK  status: ('A' for Active; 'I' for Inactive)
REMARK    1  A    between atoms: O_1  and  C_10
REMARK    2  A    between atoms: O_1  and  C_26
REMARK    3  A    between atoms: O_2  and  C_13
REMARK    4  A    between atoms: O_2  and  C_28
REMARK    5  A    between atoms: O_3  and  C_14
REMARK    6  A    between atoms: O_4  and  C_20
REMARK    7  A    between atoms: O_7  and  C_29
REMARK    8  A    between atoms: C_11  and  C_16
REMARK    9  A    between atoms: C_11  and  C_17
REMARK   10  A    between atoms: C_15  and  C_21
REMARK   11  A    between atoms: C_22  and  C_29
REMARK   12  A    between atoms: C_26  and  C_30
REMARK   13  A    between atoms: C_27  and  C_31
REMARK   14  A    between atoms: C_28  and  C_32
REMARK   15  A    between atoms: C_32  and  C_33
REMARK   16  A    between atoms: C_33  and  C_34
REMARK   17  A    between atoms: C_34  and  C_35
REMARK   18  A    between atoms: C_35  and  C_36
REMARK   19  A    between atoms: C_36  and  C_37
REMARK   20  A    between atoms: C_37  and  C_38
REMARK   21  A    between atoms: C_38  and  C_39
REMARK   22  A    between atoms: C_39  and  C_40
REMARK   23  A    between atoms: C_40  and  C_41
REMARK   24  A    between atoms: C_41  and  C_42
REMARK   25  A    between atoms: C_42  and  C_43
REMARK   26  A    between atoms: C_43  and  C_44
REMARK                            x       y       z     vdW  Elec       q    Type
REMARK                         _______ _______ _______ _____ _____    ______ ____
ROOT
ATOM      1  O   UNL     1       0.694  23.279 -14.669  0.00  0.00    +0.000 OA
ATOM      2  C   UNL     1       4.204  29.446 -14.745  0.00  0.00    +0.000 C 
ATOM      3  C   UNL     1       3.479  30.723 -15.129  0.00  0.00    +0.000 C 
ATOM      4  C   UNL     1       4.509  30.069 -16.093  0.00  0.00    +0.000 C 
ATOM      5  C   UNL     1       3.440  28.207 -14.386  0.00  0.00    +0.000 C 
ATOM      6  C   UNL     1       1.952  30.635 -15.310  0.00  0.00    +0.000 C 
ATOM      7  C   UNL     1       1.897  28.127 -14.793  0.00  0.00    +0.000 C 
ATOM      8  C   UNL     1       1.324  29.540 -14.379  0.00  0.00    +0.000 C 
ATOM      9  C   UNL     1       5.908  30.650 -16.209  0.00  0.00    +0.000 C 
ATOM     10  C   UNL     1       4.090  29.392 -17.375  0.00  0.00    +0.000 C 
ATOM     11  C   UNL     1       1.255  26.805 -14.129  0.00  0.00    +0.000 C 
ATOM     12  C   UNL     1       4.201  26.925 -14.669  0.00  0.00    +0.000 C 
ATOM     13  C   UNL     1       1.835  25.427 -14.679  0.00  0.00    +0.000 C 
ATOM     14  C   UNL     1      -0.200  29.665 -14.367  0.00  0.00    +0.000 C 
ATOM     15  C   UNL     1       4.117  25.961 -13.727  0.00  0.00    +0.000 C 
ATOM     16  C   UNL     1       3.087  24.872 -13.965  0.00  0.00    +0.000 C 
ATOM     17  C   UNL     1      -0.238  26.538 -14.271  0.00  0.00    +0.000 C 
ATOM     18  C   UNL     1       0.650  24.495 -14.551  0.00  0.00    +0.000 C 
ATOM     19  C   UNL     1      -0.598  25.258 -14.432  0.00  0.00    +0.000 C 
ATOM     20  C   UNL     1      -1.936  24.635 -14.512  0.00  0.00    +0.000 C 
ENDROOT
BRANCH   7  21
ATOM     21  O   UNL     1       1.717  28.025 -16.212  0.00  0.00    +0.000 OA
ATOM     22  H   UNL     1       0.948  27.434 -16.377  0.00  0.00    +0.000 HD
ENDBRANCH   7  21
BRANCH  13  23
ATOM     23  O   UNL     1       2.066  25.482 -16.108  0.00  0.00    +0.000 OA
ATOM     24  H   UNL     1       2.971  25.132 -16.249  0.00  0.00    +0.000 HD
ENDBRANCH  13  23
BRANCH   3  25
ATOM     25  O   UNL     1       3.917  31.809 -14.272  0.00  0.00    +0.000 OA
BRANCH  25  27
ATOM     26  O   UNL     1       3.011  31.887 -12.219  0.00  0.00    +0.000 OA
ATOM     27  C   UNL     1       4.011  31.743 -12.920  0.00  0.00    +0.000 C 
ATOM     28  C   UNL     1       5.336  31.409 -12.304  0.00  0.00    +0.000 C 
ENDBRANCH  25  27
ENDBRANCH   3  25
BRANCH  15  29
ATOM     29  C   UNL     1       4.501  26.174 -12.286  0.00  0.00    +0.000 C 
BRANCH  29  30
ATOM     30  O   UNL     1       4.200  24.989 -11.568  0.00  0.00    +0.000 OA
ATOM     31  H   UNL     1       5.050  24.625 -11.260  0.00  0.00    +0.000 HD
ENDBRANCH  29  30
ENDBRANCH  15  29
BRANCH   6  32
ATOM     32  O   UNL     1       1.389  31.938 -14.993  0.00  0.00    +0.000 OA
BRANCH  32  34
ATOM     33  O   UNL     1       1.065  32.646 -17.089  0.00  0.00    +0.000 OA
ATOM     34  C   UNL     1       0.865  32.806 -15.888  0.00  0.00    +0.000 C 
BRANCH  34  35
ATOM     35  C   UNL     1       0.036  33.967 -15.395  0.00  0.00    +0.000 C 
BRANCH  35  36
ATOM     36  C   UNL     1      -0.964  33.533 -14.330  0.00  0.00    +0.000 C 
BRANCH  36  37
ATOM     37  C   UNL     1      -2.398  33.372 -14.845  0.00  0.00    +0.000 C 
BRANCH  37  38
ATOM     38  C   UNL     1      -2.825  31.918 -15.088  0.00  0.00    +0.000 C 
BRANCH  38  39
ATOM     39  C   UNL     1      -4.304  31.796 -15.467  0.00  0.00    +0.000 C 
BRANCH  39  40
ATOM     40  C   UNL     1      -5.199  31.354 -14.306  0.00  0.00    +0.000 C 
BRANCH  40  41
ATOM     41  C   UNL     1      -4.407  30.849 -13.097  0.00  0.00    +0.000 C 
BRANCH  41  42
ATOM     42  C   UNL     1      -5.034  29.620 -12.432  0.00  0.00    +0.000 C 
BRANCH  42  43
ATOM     43  C   UNL     1      -4.164  28.360 -12.405  0.00  0.00    +0.000 C 
BRANCH  43  44
ATOM     44  C   UNL     1      -3.496  27.989 -13.732  0.00  0.00    +0.000 C 
BRANCH  44  45
ATOM     45  C   UNL     1      -4.439  27.481 -14.828  0.00  0.00    +0.000 C 
BRANCH  45  46
ATOM     46  C   UNL     1      -4.257  28.116 -16.208  0.00  0.00    +0.000 C 
ATOM     47  C   UNL     1      -2.805  28.197 -16.651  0.00  0.00    +0.000 C 
ENDBRANCH  45  46
ENDBRANCH  44  45
ENDBRANCH  43  44
ENDBRANCH  42  43
ENDBRANCH  41  42
ENDBRANCH  40  41
ENDBRANCH  39  40
ENDBRANCH  38  39
ENDBRANCH  37  38
ENDBRANCH  36  37
ENDBRANCH  35  36
ENDBRANCH  34  35
ENDBRANCH  32  34
ENDBRANCH   6  32
TORSDOF 20
ENDMDL
MODEL 7
REMARK VINA RESULT:      -3.5     10.248     14.396
REMARK  Name = 27924_Phorbol.pdbqt.pdb
REMARK  26 active torsions:
REMARK  status: ('A' for Active; 'I' for Inactive)
REMARK    1  A    between atoms: O_1  and  C_10
REMARK    2  A    between atoms: O_1  and  C_26
REMARK    3  A    between atoms: O_2  and  C_13
REMARK    4  A    between atoms: O_2  and  C_28
REMARK    5  A    between atoms: O_3  and  C_14
REMARK    6  A    between atoms: O_4  and  C_20
REMARK    7  A    between atoms: O_7  and  C_29
REMARK    8  A    between atoms: C_11  and  C_16
REMARK    9  A    between atoms: C_11  and  C_17
REMARK   10  A    between atoms: C_15  and  C_21
REMARK   11  A    between atoms: C_22  and  C_29
REMARK   12  A    between atoms: C_26  and  C_30
REMARK   13  A    between atoms: C_27  and  C_31
REMARK   14  A    between atoms: C_28  and  C_32
REMARK   15  A    between atoms: C_32  and  C_33
REMARK   16  A    between atoms: C_33  and  C_34
REMARK   17  A    between atoms: C_34  and  C_35
REMARK   18  A    between atoms: C_35  and  C_36
REMARK   19  A    between atoms: C_36  and  C_37
REMARK   20  A    between atoms: C_37  and  C_38
REMARK   21  A    between atoms: C_38  and  C_39
REMARK   22  A    between atoms: C_39  and  C_40
REMARK   23  A    between atoms: C_40  and  C_41
REMARK   24  A    between atoms: C_41  and  C_42
REMARK   25  A    between atoms: C_42  and  C_43
REMARK   26  A    between atoms: C_43  and  C_44
REMARK                            x       y       z     vdW  Elec       q    Type
REMARK                         _______ _______ _______ _____ _____    ______ ____
ROOT
ATOM      1  O   UNL     1      -8.589  61.719  -7.824  0.00  0.00    +0.000 OA
ATOM      2  C   UNL     1     -14.639  58.045  -7.319  0.00  0.00    +0.000 C 
ATOM      3  C   UNL     1     -14.653  56.708  -6.601  0.00  0.00    +0.000 C 
ATOM      4  C   UNL     1     -14.772  56.784  -8.150  0.00  0.00    +0.000 C 
ATOM      5  C   UNL     1     -13.491  58.995  -7.152  0.00  0.00    +0.000 C 
ATOM      6  C   UNL     1     -13.370  56.299  -5.854  0.00  0.00    +0.000 C 
ATOM      7  C   UNL     1     -12.126  58.429  -6.545  0.00  0.00    +0.000 C 
ATOM      8  C   UNL     1     -12.593  57.553  -5.317  0.00  0.00    +0.000 C 
ATOM      9  C   UNL     1     -16.129  56.614  -8.811  0.00  0.00    +0.000 C 
ATOM     10  C   UNL     1     -13.658  56.333  -9.063  0.00  0.00    +0.000 C 
ATOM     11  C   UNL     1     -11.127  59.667  -6.279  0.00  0.00    +0.000 C 
ATOM     12  C   UNL     1     -13.283  59.907  -8.347  0.00  0.00    +0.000 C 
ATOM     13  C   UNL     1     -10.639  60.431  -7.588  0.00  0.00    +0.000 C 
ATOM     14  C   UNL     1     -11.492  57.119  -4.348  0.00  0.00    +0.000 C 
ATOM     15  C   UNL     1     -13.002  61.198  -8.070  0.00  0.00    +0.000 C 
ATOM     16  C   UNL     1     -11.534  61.587  -8.086  0.00  0.00    +0.000 C 
ATOM     17  C   UNL     1      -9.785  59.422  -5.602  0.00  0.00    +0.000 C 
ATOM     18  C   UNL     1      -9.258  60.911  -7.197  0.00  0.00    +0.000 C 
ATOM     19  C   UNL     1      -8.755  60.153  -6.046  0.00  0.00    +0.000 C 
ATOM     20  C   UNL     1      -7.357  60.239  -5.573  0.00  0.00    +0.000 C 
ENDROOT
BRANCH   7  21
ATOM     21  O   UNL     1     -11.465  57.531  -7.447  0.00  0.00    +0.000 OA
ATOM     22  H   UNL     1     -12.057  56.760  -7.592  0.00  0.00    +0.000 HD
ENDBRANCH   7  21
BRANCH  13  23
ATOM     23  O   UNL     1     -10.377  59.509  -8.674  0.00  0.00    +0.000 OA
ATOM     24  H   UNL     1     -10.247  60.061  -9.474  0.00  0.00    +0.000 HD
ENDBRANCH  13  23
BRANCH   3  25
ATOM     25  O   UNL     1     -15.866  56.590  -5.813  0.00  0.00    +0.000 OA
BRANCH  25  27
ATOM     26  O   UNL     1     -17.656  57.945  -5.766  0.00  0.00    +0.000 OA
ATOM     27  C   UNL     1     -16.562  57.634  -5.298  0.00  0.00    +0.000 C 
ATOM     28  C   UNL     1     -16.013  58.346  -4.098  0.00  0.00    +0.000 C 
ENDBRANCH  25  27
ENDBRANCH   3  25
BRANCH  15  29
ATOM     29  C   UNL     1     -13.886  62.079  -7.227  0.00  0.00    +0.000 C 
BRANCH  29  30
ATOM     30  O   UNL     1     -13.125  62.552  -6.129  0.00  0.00    +0.000 OA
ATOM     31  H   UNL     1     -13.747  63.005  -5.532  0.00  0.00    +0.000 HD
ENDBRANCH  29  30
ENDBRANCH  15  29
BRANCH   6  32
ATOM     32  O   UNL     1     -13.753  55.441  -4.745  0.00  0.00    +0.000 OA
BRANCH  32  34
ATOM     33  O   UNL     1     -14.115  53.317  -5.342  0.00  0.00    +0.000 OA
ATOM     34  C   UNL     1     -13.492  54.117  -4.649  0.00  0.00    +0.000 C 
BRANCH  34  35
ATOM     35  C   UNL     1     -12.433  53.639  -3.687  0.00  0.00    +0.000 C 
BRANCH  35  36
ATOM     36  C   UNL     1     -13.044  53.075  -2.411  0.00  0.00    +0.000 C 
BRANCH  36  37
ATOM     37  C   UNL     1     -12.932  54.004  -1.197  0.00  0.00    +0.000 C 
BRANCH  37  38
ATOM     38  C   UNL     1     -11.922  55.146  -1.364  0.00  0.00    +0.000 C 
BRANCH  38  39
ATOM     39  C   UNL     1     -12.524  56.515  -1.030  0.00  0.00    +0.000 C 
BRANCH  39  40
ATOM     40  C   UNL     1     -14.002  56.642  -1.411  0.00  0.00    +0.000 C 
BRANCH  40  41
ATOM     41  C   UNL     1     -14.699  57.820  -0.725  0.00  0.00    +0.000 C 
BRANCH  41  42
ATOM     42  C   UNL     1     -13.739  58.945  -0.329  0.00  0.00    +0.000 C 
BRANCH  42  43
ATOM     43  C   UNL     1     -13.777  60.196  -1.211  0.00  0.00    +0.000 C 
BRANCH  43  44
ATOM     44  C   UNL     1     -13.094  60.065  -2.575  0.00  0.00    +0.000 C 
BRANCH  44  45
ATOM     45  C   UNL     1     -11.599  60.396  -2.601  0.00  0.00    +0.000 C 
BRANCH  45  46
ATOM     46  C   UNL     1     -11.239  61.818  -3.037  0.00  0.00    +0.000 C 
ATOM     47  C   UNL     1      -9.746  62.104  -2.999  0.00  0.00    +0.000 C 
ENDBRANCH  45  46
ENDBRANCH  44  45
ENDBRANCH  43  44
ENDBRANCH  42  43
ENDBRANCH  41  42
ENDBRANCH  40  41
ENDBRANCH  39  40
ENDBRANCH  38  39
ENDBRANCH  37  38
ENDBRANCH  36  37
ENDBRANCH  35  36
ENDBRANCH  34  35
ENDBRANCH  32  34
ENDBRANCH   6  32
TORSDOF 20
ENDMDL
MODEL 8
REMARK VINA RESULT:      -3.5     20.869     24.134
REMARK  Name = 27924_Phorbol.pdbqt.pdb
REMARK  26 active torsions:
REMARK  status: ('A' for Active; 'I' for Inactive)
REMARK    1  A    between atoms: O_1  and  C_10
REMARK    2  A    between atoms: O_1  and  C_26
REMARK    3  A    between atoms: O_2  and  C_13
REMARK    4  A    between atoms: O_2  and  C_28
REMARK    5  A    between atoms: O_3  and  C_14
REMARK    6  A    between atoms: O_4  and  C_20
REMARK    7  A    between atoms: O_7  and  C_29
REMARK    8  A    between atoms: C_11  and  C_16
REMARK    9  A    between atoms: C_11  and  C_17
REMARK   10  A    between atoms: C_15  and  C_21
REMARK   11  A    between atoms: C_22  and  C_29
REMARK   12  A    between atoms: C_26  and  C_30
REMARK   13  A    between atoms: C_27  and  C_31
REMARK   14  A    between atoms: C_28  and  C_32
REMARK   15  A    between atoms: C_32  and  C_33
REMARK   16  A    between atoms: C_33  and  C_34
REMARK   17  A    between atoms: C_34  and  C_35
REMARK   18  A    between atoms: C_35  and  C_36
REMARK   19  A    between atoms: C_36  and  C_37
REMARK   20  A    between atoms: C_37  and  C_38
REMARK   21  A    between atoms: C_38  and  C_39
REMARK   22  A    between atoms: C_39  and  C_40
REMARK   23  A    between atoms: C_40  and  C_41
REMARK   24  A    between atoms: C_41  and  C_42
REMARK   25  A    between atoms: C_42  and  C_43
REMARK   26  A    between atoms: C_43  and  C_44
REMARK                            x       y       z     vdW  Elec       q    Type
REMARK                         _______ _______ _______ _____ _____    ______ ____
ROOT
ATOM      1  O   UNL     1       5.115  59.814  -6.268  0.00  0.00    +0.000 OA
ATOM      2  C   UNL     1       7.347  55.807 -11.683  0.00  0.00    +0.000 C 
ATOM      3  C   UNL     1       8.832  55.674 -11.962  0.00  0.00    +0.000 C 
ATOM      4  C   UNL     1       7.915  56.513 -12.897  0.00  0.00    +0.000 C 
ATOM      5  C   UNL     1       6.856  56.347 -10.373  0.00  0.00    +0.000 C 
ATOM      6  C   UNL     1       9.798  56.283 -10.928  0.00  0.00    +0.000 C 
ATOM      7  C   UNL     1       7.890  57.141  -9.449  0.00  0.00    +0.000 C 
ATOM      8  C   UNL     1       9.191  56.245  -9.482  0.00  0.00    +0.000 C 
ATOM      9  C   UNL     1       7.460  55.933 -14.226  0.00  0.00    +0.000 C 
ATOM     10  C   UNL     1       7.993  58.019 -12.956  0.00  0.00    +0.000 C 
ATOM     11  C   UNL     1       7.190  57.439  -8.028  0.00  0.00    +0.000 C 
ATOM     12  C   UNL     1       5.499  57.018 -10.466  0.00  0.00    +0.000 C 
ATOM     13  C   UNL     1       5.942  58.427  -8.087  0.00  0.00    +0.000 C 
ATOM     14  C   UNL     1      10.264  56.587  -8.447  0.00  0.00    +0.000 C 
ATOM     15  C   UNL     1       4.633  56.755  -9.464  0.00  0.00    +0.000 C 
ATOM     16  C   UNL     1       4.562  57.781  -8.347  0.00  0.00    +0.000 C 
ATOM     17  C   UNL     1       7.993  58.097  -6.913  0.00  0.00    +0.000 C 
ATOM     18  C   UNL     1       6.000  59.116  -6.741  0.00  0.00    +0.000 C 
ATOM     19  C   UNL     1       7.333  58.973  -6.145  0.00  0.00    +0.000 C 
ATOM     20  C   UNL     1       7.764  59.718  -4.943  0.00  0.00    +0.000 C 
ENDROOT
BRANCH   7  21
ATOM     21  O   UNL     1       8.262  58.403 -10.017  0.00  0.00    +0.000 OA
ATOM     22  H   UNL     1       7.967  58.411 -10.955  0.00  0.00    +0.000 HD
ENDBRANCH   7  21
BRANCH  13  23
ATOM     23  O   UNL     1       6.164  59.507  -9.027  0.00  0.00    +0.000 OA
ATOM     24  H   UNL     1       5.652  59.277  -9.830  0.00  0.00    +0.000 HD
ENDBRANCH  13  23
BRANCH   3  25
ATOM     25  O   UNL     1       9.139  54.305 -12.331  0.00  0.00    +0.000 OA
BRANCH  25  27
ATOM     26  O   UNL     1       8.837  52.932 -10.580  0.00  0.00    +0.000 OA
ATOM     27  C   UNL     1       8.594  53.204 -11.754  0.00  0.00    +0.000 C 
ATOM     28  C   UNL     1       7.629  52.376 -12.548  0.00  0.00    +0.000 C 
ENDBRANCH  25  27
ENDBRANCH   3  25
BRANCH  15  29
ATOM     29  C   UNL     1       4.204  55.363  -9.080  0.00  0.00    +0.000 C 
BRANCH  29  30
ATOM     30  O   UNL     1       2.874  55.427  -8.595  0.00  0.00    +0.000 OA
ATOM     31  H   UNL     1       2.447  54.586  -8.837  0.00  0.00    +0.000 HD
ENDBRANCH  29  30
ENDBRANCH  15  29
BRANCH   6  32
ATOM     32  O   UNL     1      11.034  55.520 -10.967  0.00  0.00    +0.000 OA
BRANCH  32  34
ATOM     33  O   UNL     1      13.234  55.330 -11.321  0.00  0.00    +0.000 OA
ATOM     34  C   UNL     1      12.180  55.910 -11.570  0.00  0.00    +0.000 C 
BRANCH  34  35
ATOM     35  C   UNL     1      12.148  57.059 -12.547  0.00  0.00    +0.000 C 
BRANCH  35  36
ATOM     36  C   UNL     1      11.753  56.599 -13.946  0.00  0.00    +0.000 C 
BRANCH  36  37
ATOM     37  C   UNL     1      11.225  57.719 -14.849  0.00  0.00    +0.000 C 
BRANCH  37  38
ATOM     38  C   UNL     1      11.784  57.697 -16.278  0.00  0.00    +0.000 C 
BRANCH  38  39
ATOM     39  C   UNL     1      12.921  58.704 -16.479  0.00  0.00    +0.000 C 
BRANCH  39  40
ATOM     40  C   UNL     1      14.216  58.069 -16.993  0.00  0.00    +0.000 C 
BRANCH  40  41
ATOM     41  C   UNL     1      15.431  58.395 -16.121  0.00  0.00    +0.000 C 
BRANCH  41  42
ATOM     42  C   UNL     1      15.141  58.304 -14.620  0.00  0.00    +0.000 C 
BRANCH  42  43
ATOM     43  C   UNL     1      15.475  56.965 -13.957  0.00  0.00    +0.000 C 
BRANCH  43  44
ATOM     44  C   UNL     1      16.532  56.117 -14.672  0.00  0.00    +0.000 C 
BRANCH  44  45
ATOM     45  C   UNL     1      16.030  54.802 -15.274  0.00  0.00    +0.000 C 
BRANCH  45  46
ATOM     46  C   UNL     1      14.550  54.486 -15.043  0.00  0.00    +0.000 C 
ATOM     47  C   UNL     1      13.719  54.514 -16.316  0.00  0.00    +0.000 C 
ENDBRANCH  45  46
ENDBRANCH  44  45
ENDBRANCH  43  44
ENDBRANCH  42  43
ENDBRANCH  41  42
ENDBRANCH  40  41
ENDBRANCH  39  40
ENDBRANCH  38  39
ENDBRANCH  37  38
ENDBRANCH  36  37
ENDBRANCH  35  36
ENDBRANCH  34  35
ENDBRANCH  32  34
ENDBRANCH   6  32
TORSDOF 20
ENDMDL
MODEL 9
REMARK VINA RESULT:      -3.4     35.725     40.542
REMARK  Name = 27924_Phorbol.pdbqt.pdb
REMARK  26 active torsions:
REMARK  status: ('A' for Active; 'I' for Inactive)
REMARK    1  A    between atoms: O_1  and  C_10
REMARK    2  A    between atoms: O_1  and  C_26
REMARK    3  A    between atoms: O_2  and  C_13
REMARK    4  A    between atoms: O_2  and  C_28
REMARK    5  A    between atoms: O_3  and  C_14
REMARK    6  A    between atoms: O_4  and  C_20
REMARK    7  A    between atoms: O_7  and  C_29
REMARK    8  A    between atoms: C_11  and  C_16
REMARK    9  A    between atoms: C_11  and  C_17
REMARK   10  A    between atoms: C_15  and  C_21
REMARK   11  A    between atoms: C_22  and  C_29
REMARK   12  A    between atoms: C_26  and  C_30
REMARK   13  A    between atoms: C_27  and  C_31
REMARK   14  A    between atoms: C_28  and  C_32
REMARK   15  A    between atoms: C_32  and  C_33
REMARK   16  A    between atoms: C_33  and  C_34
REMARK   17  A    between atoms: C_34  and  C_35
REMARK   18  A    between atoms: C_35  and  C_36
REMARK   19  A    between atoms: C_36  and  C_37
REMARK   20  A    between atoms: C_37  and  C_38
REMARK   21  A    between atoms: C_38  and  C_39
REMARK   22  A    between atoms: C_39  and  C_40
REMARK   23  A    between atoms: C_40  and  C_41
REMARK   24  A    between atoms: C_41  and  C_42
REMARK   25  A    between atoms: C_42  and  C_43
REMARK   26  A    between atoms: C_43  and  C_44
REMARK                            x       y       z     vdW  Elec       q    Type
REMARK                         _______ _______ _______ _____ _____    ______ ____
ROOT
ATOM      1  O   UNL     1       0.478  23.371 -14.775  0.00  0.00    +0.000 OA
ATOM      2  C   UNL     1       4.076  29.487 -14.733  0.00  0.00    +0.000 C 
ATOM      3  C   UNL     1       3.368  30.782 -15.086  0.00  0.00    +0.000 C 
ATOM      4  C   UNL     1       4.385  30.135 -16.069  0.00  0.00    +0.000 C 
ATOM      5  C   UNL     1       3.296  28.252 -14.398  0.00  0.00    +0.000 C 
ATOM      6  C   UNL     1       1.839  30.721 -15.261  0.00  0.00    +0.000 C 
ATOM      7  C   UNL     1       1.750  28.203 -14.799  0.00  0.00    +0.000 C 
ATOM      8  C   UNL     1       1.199  29.614 -14.351  0.00  0.00    +0.000 C 
ATOM      9  C   UNL     1       5.791  30.698 -16.178  0.00  0.00    +0.000 C 
ATOM     10  C   UNL     1       3.950  29.493 -17.363  0.00  0.00    +0.000 C 
ATOM     11  C   UNL     1       1.093  26.876 -14.161  0.00  0.00    +0.000 C 
ATOM     12  C   UNL     1       4.037  26.966 -14.713  0.00  0.00    +0.000 C 
ATOM     13  C   UNL     1       1.650  25.502 -14.744  0.00  0.00    +0.000 C 
ATOM     14  C   UNL     1      -0.322  29.761 -14.329  0.00  0.00    +0.000 C 
ATOM     15  C   UNL     1       3.944  25.983 -13.791  0.00  0.00    +0.000 C 
ATOM     16  C   UNL     1       2.897  24.913 -14.049  0.00  0.00    +0.000 C 
ATOM     17  C   UNL     1      -0.405  26.633 -14.301  0.00  0.00    +0.000 C 
ATOM     18  C   UNL     1       0.452  24.584 -14.631  0.00  0.00    +0.000 C 
ATOM     19  C   UNL     1      -0.784  25.363 -14.488  0.00  0.00    +0.000 C 
ATOM     20  C   UNL     1      -2.131  24.761 -14.576  0.00  0.00    +0.000 C 
ENDROOT
BRANCH   7  21
ATOM     21  O   UNL     1       1.562  28.134 -16.219  0.00  0.00    +0.000 OA
ATOM     22  H   UNL     1       1.074  27.305 -16.419  0.00  0.00    +0.000 HD
ENDBRANCH   7  21
BRANCH  13  23
ATOM     23  O   UNL     1       1.875  25.585 -16.172  0.00  0.00    +0.000 OA
ATOM     24  H   UNL     1       1.846  24.663 -16.505  0.00  0.00    +0.000 HD
ENDBRANCH  13  23
BRANCH   3  25
ATOM     25  O   UNL     1       3.826  31.843 -14.207  0.00  0.00    +0.000 OA
BRANCH  25  27
ATOM     26  O   UNL     1       2.976  31.887 -12.129  0.00  0.00    +0.000 OA
ATOM     27  C   UNL     1       3.953  31.736 -12.860  0.00  0.00    +0.000 C 
ATOM     28  C   UNL     1       5.284  31.349 -12.289  0.00  0.00    +0.000 C 
ENDBRANCH  25  27
ENDBRANCH   3  25
BRANCH  15  29
ATOM     29  C   UNL     1       4.337  26.158 -12.348  0.00  0.00    +0.000 C 
BRANCH  29  30
ATOM     30  O   UNL     1       5.659  26.667 -12.307  0.00  0.00    +0.000 OA
ATOM     31  H   UNL     1       5.584  27.633 -12.210  0.00  0.00    +0.000 HD
ENDBRANCH  29  30
ENDBRANCH  15  29
BRANCH   6  32
ATOM     32  O   UNL     1       1.297  32.024 -14.913  0.00  0.00    +0.000 OA
BRANCH  32  34
ATOM     33  O   UNL     1       1.490  33.470 -16.608  0.00  0.00    +0.000 OA
ATOM     34  C   UNL     1       0.768  32.913 -15.784  0.00  0.00    +0.000 C 
BRANCH  34  35
ATOM     35  C   UNL     1      -0.709  33.213 -15.732  0.00  0.00    +0.000 C 
BRANCH  35  36
ATOM     36  C   UNL     1      -1.111  33.838 -14.402  0.00  0.00    +0.000 C 
BRANCH  36  37
ATOM     37  C   UNL     1      -2.484  33.391 -13.887  0.00  0.00    +0.000 C 
BRANCH  37  38
ATOM     38  C   UNL     1      -3.249  34.467 -13.105  0.00  0.00    +0.000 C 
BRANCH  38  39
ATOM     39  C   UNL     1      -4.672  34.676 -13.635  0.00  0.00    +0.000 C 
BRANCH  39  40
ATOM     40  C   UNL     1      -4.932  33.986 -14.977  0.00  0.00    +0.000 C 
BRANCH  40  41
ATOM     41  C   UNL     1      -6.140  33.047 -14.944  0.00  0.00    +0.000 C 
BRANCH  41  42
ATOM     42  C   UNL     1      -6.388  32.426 -13.566  0.00  0.00    +0.000 C 
BRANCH  42  43
ATOM     43  C   UNL     1      -7.831  32.491 -13.056  0.00  0.00    +0.000 C 
BRANCH  43  44
ATOM     44  C   UNL     1      -8.657  33.679 -13.557  0.00  0.00    +0.000 C 
BRANCH  44  45
ATOM     45  C   UNL     1      -8.528  34.967 -12.738  0.00  0.00    +0.000 C 
BRANCH  45  46
ATOM     46  C   UNL     1      -9.825  35.494 -12.119  0.00  0.00    +0.000 C 
ATOM     47  C   UNL     1     -10.755  34.394 -11.633  0.00  0.00    +0.000 C 
ENDBRANCH  45  46
ENDBRANCH  44  45
ENDBRANCH  43  44
ENDBRANCH  42  43
ENDBRANCH  41  42
ENDBRANCH  40  41
ENDBRANCH  39  40
ENDBRANCH  38  39
ENDBRANCH  37  38
ENDBRANCH  36  37
ENDBRANCH  35  36
ENDBRANCH  34  35
ENDBRANCH  32  34
ENDBRANCH   6  32
TORSDOF 20
ENDMDL
