MODEL 1
REMARK VINA RESULT:      -4.1      0.000      0.000
REMARK  Name = 2Methylcholine.pdbqt.pdb
REMARK  3 active torsions:
REMARK  status: ('A' for Active; 'I' for Inactive)
REMARK    1  A    between atoms: C_1  and  N_2
REMARK    2  A    between atoms: C_1  and  C_6
REMARK    3  A    between atoms: C_6  and  O_8
REMARK                            x       y       z     vdW  Elec       q    Type
REMARK                         _______ _______ _______ _____ _____    ______ ____
ROOT
ATOM      1  C   UNL     1      -3.011  46.204   7.964  0.00  0.00    +0.000 C 
ENDROOT
BRANCH   1   2
ATOM      2  N   UNL     1      -4.031  46.276   8.992  0.00  0.00    +0.000 N 
ATOM      3  C   UNL     1      -3.410  46.188  10.317  0.00  0.00    +0.000 C 
ATOM      4  C   UNL     1      -4.760  47.542   8.886  0.00  0.00    +0.000 C 
ATOM      5  C   UNL     1      -4.974  45.166   8.832  0.00  0.00    +0.000 C 
ENDBRANCH   1   2
BRANCH   1   6
ATOM      6  C   UNL     1      -2.028  46.163   6.966  0.00  0.00    +0.000 C 
ATOM      7  C   UNL     1      -0.975  45.120   6.959  0.00  0.00    +0.000 C 
BRANCH   6   8
ATOM      8  O   UNL     1      -1.985  47.072   5.954  0.00  0.00    +0.000 OA
ATOM      9  H   UNL     1      -1.558  47.885   6.288  0.00  0.00    +0.000 HD
ENDBRANCH   6   8
ENDBRANCH   1   6
TORSDOF 3
ENDMDL
MODEL 2
REMARK VINA RESULT:      -3.9     15.217     15.941
REMARK  Name = 2Methylcholine.pdbqt.pdb
REMARK  3 active torsions:
REMARK  status: ('A' for Active; 'I' for Inactive)
REMARK    1  A    between atoms: C_1  and  N_2
REMARK    2  A    between atoms: C_1  and  C_6
REMARK    3  A    between atoms: C_6  and  O_8
REMARK                            x       y       z     vdW  Elec       q    Type
REMARK                         _______ _______ _______ _____ _____    ______ ____
ROOT
ATOM      1  C   UNL     1      -1.457  32.406  15.043  0.00  0.00    +0.000 C 
ENDROOT
BRANCH   1   2
ATOM      2  N   UNL     1      -0.171  32.103  15.639  0.00  0.00    +0.000 N 
ATOM      3  C   UNL     1       0.719  31.514  14.633  0.00  0.00    +0.000 C 
ATOM      4  C   UNL     1       0.439  33.328  16.162  0.00  0.00    +0.000 C 
ATOM      5  C   UNL     1      -0.347  31.149  16.737  0.00  0.00    +0.000 C 
ENDBRANCH   1   2
BRANCH   1   6
ATOM      6  C   UNL     1      -2.688  32.712  14.446  0.00  0.00    +0.000 C 
ATOM      7  C   UNL     1      -3.835  31.775  14.509  0.00  0.00    +0.000 C 
BRANCH   6   8
ATOM      8  O   UNL     1      -2.898  33.880  13.779  0.00  0.00    +0.000 OA
ATOM      9  H   UNL     1      -3.344  34.504  14.383  0.00  0.00    +0.000 HD
ENDBRANCH   6   8
ENDBRANCH   1   6
TORSDOF 3
ENDMDL
MODEL 3
REMARK VINA RESULT:      -3.7      2.235      3.680
REMARK  Name = 2Methylcholine.pdbqt.pdb
REMARK  3 active torsions:
REMARK  status: ('A' for Active; 'I' for Inactive)
REMARK    1  A    between atoms: C_1  and  N_2
REMARK    2  A    between atoms: C_1  and  C_6
REMARK    3  A    between atoms: C_6  and  O_8
REMARK                            x       y       z     vdW  Elec       q    Type
REMARK                         _______ _______ _______ _____ _____    ______ ____
ROOT
ATOM      1  C   UNL     1      -3.447  45.807   8.496  0.00  0.00    +0.000 C 
ENDROOT
BRANCH   1   2
ATOM      2  N   UNL     1      -2.392  46.475   7.760  0.00  0.00    +0.000 N 
ATOM      3  C   UNL     1      -1.746  47.477   8.612  0.00  0.00    +0.000 C 
ATOM      4  C   UNL     1      -1.391  45.498   7.323  0.00  0.00    +0.000 C 
ATOM      5  C   UNL     1      -2.955  47.141   6.582  0.00  0.00    +0.000 C 
ENDBRANCH   1   2
BRANCH   1   6
ATOM      6  C   UNL     1      -4.454  45.166   9.231  0.00  0.00    +0.000 C 
ATOM      7  C   UNL     1      -4.579  45.350  10.697  0.00  0.00    +0.000 C 
BRANCH   6   8
ATOM      8  O   UNL     1      -5.368  44.346   8.645  0.00  0.00    +0.000 OA
ATOM      9  H   UNL     1      -5.960  43.998   9.338  0.00  0.00    +0.000 HD
ENDBRANCH   6   8
ENDBRANCH   1   6
TORSDOF 3
ENDMDL
MODEL 4
REMARK VINA RESULT:      -3.4     11.620     12.391
REMARK  Name = 2Methylcholine.pdbqt.pdb
REMARK  3 active torsions:
REMARK  status: ('A' for Active; 'I' for Inactive)
REMARK    1  A    between atoms: C_1  and  N_2
REMARK    2  A    between atoms: C_1  and  C_6
REMARK    3  A    between atoms: C_6  and  O_8
REMARK                            x       y       z     vdW  Elec       q    Type
REMARK                         _______ _______ _______ _____ _____    ______ ____
ROOT
ATOM      1  C   UNL     1      -1.265  37.060  16.004  0.00  0.00    +0.000 C 
ENDROOT
BRANCH   1   2
ATOM      2  N   UNL     1      -1.494  38.428  15.583  0.00  0.00    +0.000 N 
ATOM      3  C   UNL     1      -2.739  38.930  16.171  0.00  0.00    +0.000 C 
ATOM      4  C   UNL     1      -0.381  39.277  16.016  0.00  0.00    +0.000 C 
ATOM      5  C   UNL     1      -1.598  38.485  14.122  0.00  0.00    +0.000 C 
ENDBRANCH   1   2
BRANCH   1   6
ATOM      6  C   UNL     1      -1.070  35.730  16.405  0.00  0.00    +0.000 C 
ATOM      7  C   UNL     1      -0.517  34.715  15.478  0.00  0.00    +0.000 C 
BRANCH   6   8
ATOM      8  O   UNL     1      -1.376  35.301  17.659  0.00  0.00    +0.000 OA
ATOM      9  H   UNL     1      -0.549  35.237  18.174  0.00  0.00    +0.000 HD
ENDBRANCH   6   8
ENDBRANCH   1   6
TORSDOF 3
ENDMDL
MODEL 5
REMARK VINA RESULT:      -3.4     23.179     24.223
REMARK  Name = 2Methylcholine.pdbqt.pdb
REMARK  3 active torsions:
REMARK  status: ('A' for Active; 'I' for Inactive)
REMARK    1  A    between atoms: C_1  and  N_2
REMARK    2  A    between atoms: C_1  and  C_6
REMARK    3  A    between atoms: C_6  and  O_8
REMARK                            x       y       z     vdW  Elec       q    Type
REMARK                         _______ _______ _______ _____ _____    ______ ____
ROOT
ATOM      1  C   UNL     1      11.833  30.302  -2.288  0.00  0.00    +0.000 C 
ENDROOT
BRANCH   1   2
ATOM      2  N   UNL     1      11.180  29.759  -1.114  0.00  0.00    +0.000 N 
ATOM      3  C   UNL     1       9.731  29.966  -1.209  0.00  0.00    +0.000 C 
ATOM      4  C   UNL     1      11.455  28.324  -1.007  0.00  0.00    +0.000 C 
ATOM      5  C   UNL     1      11.681  30.433   0.087  0.00  0.00    +0.000 C 
ENDBRANCH   1   2
BRANCH   1   6
ATOM      6  C   UNL     1      12.476  30.801  -3.430  0.00  0.00    +0.000 C 
ATOM      7  C   UNL     1      13.883  31.265  -3.386  0.00  0.00    +0.000 C 
BRANCH   6   8
ATOM      8  O   UNL     1      11.848  30.888  -4.634  0.00  0.00    +0.000 OA
ATOM      9  H   UNL     1      11.233  31.645  -4.607  0.00  0.00    +0.000 HD
ENDBRANCH   6   8
ENDBRANCH   1   6
TORSDOF 3
ENDMDL
MODEL 6
REMARK VINA RESULT:      -3.4     14.212     15.011
REMARK  Name = 2Methylcholine.pdbqt.pdb
REMARK  3 active torsions:
REMARK  status: ('A' for Active; 'I' for Inactive)
REMARK    1  A    between atoms: C_1  and  N_2
REMARK    2  A    between atoms: C_1  and  C_6
REMARK    3  A    between atoms: C_6  and  O_8
REMARK                            x       y       z     vdW  Elec       q    Type
REMARK                         _______ _______ _______ _____ _____    ______ ____
ROOT
ATOM      1  C   UNL     1       0.104  34.153  15.395  0.00  0.00    +0.000 C 
ENDROOT
BRANCH   1   2
ATOM      2  N   UNL     1       1.251  33.271  15.297  0.00  0.00    +0.000 N 
ATOM      3  C   UNL     1       1.755  32.957  16.637  0.00  0.00    +0.000 C 
ATOM      4  C   UNL     1       0.869  32.027  14.623  0.00  0.00    +0.000 C 
ATOM      5  C   UNL     1       2.313  33.925  14.528  0.00  0.00    +0.000 C 
ENDBRANCH   1   2
BRANCH   1   6
ATOM      6  C   UNL     1      -1.000  35.009  15.518  0.00  0.00    +0.000 C 
ATOM      7  C   UNL     1      -1.193  35.858  16.717  0.00  0.00    +0.000 C 
BRANCH   6   8
ATOM      8  O   UNL     1      -1.950  35.107  14.548  0.00  0.00    +0.000 OA
ATOM      9  H   UNL     1      -2.826  35.137  14.977  0.00  0.00    +0.000 HD
ENDBRANCH   6   8
ENDBRANCH   1   6
TORSDOF 3
ENDMDL
MODEL 7
REMARK VINA RESULT:      -3.2     22.475     23.363
REMARK  Name = 2Methylcholine.pdbqt.pdb
REMARK  3 active torsions:
REMARK  status: ('A' for Active; 'I' for Inactive)
REMARK    1  A    between atoms: C_1  and  N_2
REMARK    2  A    between atoms: C_1  and  C_6
REMARK    3  A    between atoms: C_6  and  O_8
REMARK                            x       y       z     vdW  Elec       q    Type
REMARK                         _______ _______ _______ _____ _____    ______ ____
ROOT
ATOM      1  C   UNL     1       0.484  26.704  -3.824  0.00  0.00    +0.000 C 
ENDROOT
BRANCH   1   2
ATOM      2  N   UNL     1      -0.570  26.848  -4.809  0.00  0.00    +0.000 N 
ATOM      3  C   UNL     1       0.004  27.245  -6.099  0.00  0.00    +0.000 C 
ATOM      4  C   UNL     1      -1.281  25.577  -4.970  0.00  0.00    +0.000 C 
ATOM      5  C   UNL     1      -1.519  27.875  -4.372  0.00  0.00    +0.000 C 
ENDBRANCH   1   2
BRANCH   1   6
ATOM      6  C   UNL     1       1.507  26.593  -2.872  0.00  0.00    +0.000 C 
ATOM      7  C   UNL     1       1.771  25.317  -2.165  0.00  0.00    +0.000 C 
BRANCH   6   8
ATOM      8  O   UNL     1       2.309  27.643  -2.545  0.00  0.00    +0.000 OA
ATOM      9  H   UNL     1       2.812  27.905  -3.340  0.00  0.00    +0.000 HD
ENDBRANCH   6   8
ENDBRANCH   1   6
TORSDOF 3
ENDMDL
MODEL 8
REMARK VINA RESULT:      -3.2      2.637      3.941
REMARK  Name = 2Methylcholine.pdbqt.pdb
REMARK  3 active torsions:
REMARK  status: ('A' for Active; 'I' for Inactive)
REMARK    1  A    between atoms: C_1  and  N_2
REMARK    2  A    between atoms: C_1  and  C_6
REMARK    3  A    between atoms: C_6  and  O_8
REMARK                            x       y       z     vdW  Elec       q    Type
REMARK                         _______ _______ _______ _____ _____    ______ ____
ROOT
ATOM      1  C   UNL     1      -4.413  46.713   9.035  0.00  0.00    +0.000 C 
ENDROOT
BRANCH   1   2
ATOM      2  N   UNL     1      -3.722  46.790   7.763  0.00  0.00    +0.000 N 
ATOM      3  C   UNL     1      -2.521  45.950   7.795  0.00  0.00    +0.000 C 
ATOM      4  C   UNL     1      -4.603  46.328   6.687  0.00  0.00    +0.000 C 
ATOM      5  C   UNL     1      -3.329  48.176   7.497  0.00  0.00    +0.000 C 
ENDBRANCH   1   2
BRANCH   1   6
ATOM      6  C   UNL     1      -5.057  46.645  10.279  0.00  0.00    +0.000 C 
ATOM      7  C   UNL     1      -4.507  45.837  11.393  0.00  0.00    +0.000 C 
BRANCH   6   8
ATOM      8  O   UNL     1      -6.216  47.313  10.530  0.00  0.00    +0.000 OA
ATOM      9  H   UNL     1      -5.993  48.222  10.809  0.00  0.00    +0.000 HD
ENDBRANCH   6   8
ENDBRANCH   1   6
TORSDOF 3
ENDMDL
MODEL 9
REMARK VINA RESULT:      -3.2      9.722     10.667
REMARK  Name = 2Methylcholine.pdbqt.pdb
REMARK  3 active torsions:
REMARK  status: ('A' for Active; 'I' for Inactive)
REMARK    1  A    between atoms: C_1  and  N_2
REMARK    2  A    between atoms: C_1  and  C_6
REMARK    3  A    between atoms: C_6  and  O_8
REMARK                            x       y       z     vdW  Elec       q    Type
REMARK                         _______ _______ _______ _____ _____    ______ ____
ROOT
ATOM      1  C   UNL     1      -0.362  39.577  15.536  0.00  0.00    +0.000 C 
ENDROOT
BRANCH   1   2
ATOM      2  N   UNL     1      -1.396  38.665  15.089  0.00  0.00    +0.000 N 
ATOM      3  C   UNL     1      -0.810  37.356  14.784  0.00  0.00    +0.000 C 
ATOM      4  C   UNL     1      -2.408  38.505  16.136  0.00  0.00    +0.000 C 
ATOM      5  C   UNL     1      -2.036  39.195  13.883  0.00  0.00    +0.000 C 
ENDBRANCH   1   2
BRANCH   1   6
ATOM      6  C   UNL     1       0.656  40.448  15.950  0.00  0.00    +0.000 C 
ATOM      7  C   UNL     1       0.432  41.450  17.018  0.00  0.00    +0.000 C 
BRANCH   6   8
ATOM      8  O   UNL     1       1.900  40.421  15.397  0.00  0.00    +0.000 OA
ATOM      9  H   UNL     1       2.348  41.264  15.606  0.00  0.00    +0.000 HD
ENDBRANCH   6   8
ENDBRANCH   1   6
TORSDOF 3
ENDMDL
