MODEL 1
REMARK VINA RESULT:      -9.3      0.000      0.000
REMARK  Name = 3035817_K252a.pdbqt.pdb
REMARK  3 active torsions:
REMARK  status: ('A' for Active; 'I' for Inactive)
REMARK    1  A    between atoms: C_3  and  O_7
REMARK    2  A    between atoms: C_3  and  C_9
REMARK    3  A    between atoms: C_9  and  O_11
REMARK                            x       y       z     vdW  Elec       q    Type
REMARK                         _______ _______ _______ _____ _____    ______ ____
ROOT
ATOM      1  O   UNL     1       8.013  34.440  15.850  0.00  0.00    +0.000 OA
ATOM      2  C   UNL     1       9.187  33.981  16.610  0.00  0.00    +0.000 C 
ATOM      3  C   UNL     1       8.766  34.181  18.130  0.00  0.00    +0.000 C 
ATOM      4  C   UNL     1       6.915  34.004  16.613  0.00  0.00    +0.000 C 
ATOM      5  C   UNL     1       7.316  34.098  17.968  0.00  0.00    +0.000 C 
ATOM      6  C   UNL     1      10.365  34.894  16.137  0.00  0.00    +0.000 C 
ATOM      7  N   UNL     1       9.398  32.565  16.245  0.00  0.00    +0.000 N 
ATOM      8  C   UNL     1       8.511  31.598  15.848  0.00  0.00    +0.000 A 
ATOM      9  C   UNL     1       7.120  31.696  15.807  0.00  0.00    +0.000 A 
ATOM     10  C   UNL     1       8.991  30.327  15.515  0.00  0.00    +0.000 A 
ATOM     11  N   UNL     1       6.406  32.786  16.198  0.00  0.00    +0.000 N 
ATOM     12  C   UNL     1       6.444  30.523  15.451  0.00  0.00    +0.000 A 
ATOM     13  C   UNL     1       5.100  32.266  16.142  0.00  0.00    +0.000 A 
ATOM     14  C   UNL     1       5.100  30.900  15.664  0.00  0.00    +0.000 A 
ATOM     15  C   UNL     1       3.898  32.915  16.468  0.00  0.00    +0.000 A 
ATOM     16  C   UNL     1       3.859  30.244  15.549  0.00  0.00    +0.000 A 
ATOM     17  C   UNL     1       2.676  30.905  15.876  0.00  0.00    +0.000 A 
ATOM     18  C   UNL     1       2.699  32.217  16.329  0.00  0.00    +0.000 A 
ATOM     19  C   UNL     1       6.915  29.243  15.095  0.00  0.00    +0.000 A 
ATOM     20  C   UNL     1       8.337  29.148  15.134  0.00  0.00    +0.000 A 
ATOM     21  C   UNL     1       6.332  27.971  14.740  0.00  0.00    +0.000 C 
ATOM     22  C   UNL     1       8.678  27.740  14.789  0.00  0.00    +0.000 C 
ATOM     23  N   UNL     1       7.471  27.170  14.584  0.00  0.00    +0.000 N 
ATOM     24  H   UNL     1       7.372  26.197  14.329  0.00  0.00    +0.000 HD
ATOM     25  O   UNL     1       5.186  27.577  14.586  0.00  0.00    +0.000 OA
ATOM     26  C   UNL     1      10.367  30.458  15.775  0.00  0.00    +0.000 A 
ATOM     27  C   UNL     1      10.595  31.806  16.245  0.00  0.00    +0.000 A 
ATOM     28  C   UNL     1      11.465  29.575  15.707  0.00  0.00    +0.000 A 
ATOM     29  C   UNL     1      11.886  32.201  16.637  0.00  0.00    +0.000 A 
ATOM     30  C   UNL     1      12.940  31.291  16.549  0.00  0.00    +0.000 A 
ATOM     31  C   UNL     1      12.737  30.001  16.086  0.00  0.00    +0.000 A 
ENDROOT
BRANCH   3  32
ATOM     32  O   UNL     1       9.196  33.138  19.017  0.00  0.00    +0.000 OA
ATOM     33  H   UNL     1       8.990  33.430  19.933  0.00  0.00    +0.000 HD
ENDBRANCH   3  32
BRANCH   3  34
ATOM     34  C   UNL     1       9.196  35.546  18.662  0.00  0.00    +0.000 C 
ATOM     35  O   UNL     1       8.600  36.569  18.317  0.00  0.00    +0.000 OA
BRANCH  34  36
ATOM     36  O   UNL     1      10.295  35.450  19.470  0.00  0.00    +0.000 OA
ATOM     37  C   UNL     1      11.212  36.510  19.452  0.00  0.00    +0.000 C 
ENDBRANCH  34  36
ENDBRANCH   3  34
TORSDOF 3
ENDMDL
MODEL 2
REMARK VINA RESULT:      -8.0     16.122     19.238
REMARK  Name = 3035817_K252a.pdbqt.pdb
REMARK  3 active torsions:
REMARK  status: ('A' for Active; 'I' for Inactive)
REMARK    1  A    between atoms: C_3  and  O_7
REMARK    2  A    between atoms: C_3  and  C_9
REMARK    3  A    between atoms: C_9  and  O_11
REMARK                            x       y       z     vdW  Elec       q    Type
REMARK                         _______ _______ _______ _____ _____    ______ ____
ROOT
ATOM      1  O   UNL     1      -5.433  41.136  16.674  0.00  0.00    +0.000 OA
ATOM      2  C   UNL     1      -6.167  42.083  17.529  0.00  0.00    +0.000 C 
ATOM      3  C   UNL     1      -5.728  43.512  16.989  0.00  0.00    +0.000 C 
ATOM      4  C   UNL     1      -5.450  41.735  15.402  0.00  0.00    +0.000 C 
ATOM      5  C   UNL     1      -5.376  43.131  15.623  0.00  0.00    +0.000 C 
ATOM      6  C   UNL     1      -5.699  41.767  18.988  0.00  0.00    +0.000 C 
ATOM      7  N   UNL     1      -7.604  41.802  17.332  0.00  0.00    +0.000 N 
ATOM      8  C   UNL     1      -8.282  41.304  16.249  0.00  0.00    +0.000 A 
ATOM      9  C   UNL     1      -7.767  41.046  14.978  0.00  0.00    +0.000 A 
ATOM     10  C   UNL     1      -9.661  41.092  16.346  0.00  0.00    +0.000 A 
ATOM     11  N   UNL     1      -6.483  41.286  14.597  0.00  0.00    +0.000 N 
ATOM     12  C   UNL     1      -8.700  40.629  14.023  0.00  0.00    +0.000 A 
ATOM     13  C   UNL     1      -6.581  41.047  13.215  0.00  0.00    +0.000 A 
ATOM     14  C   UNL     1      -7.914  40.619  12.850  0.00  0.00    +0.000 A 
ATOM     15  C   UNL     1      -5.572  41.162  12.245  0.00  0.00    +0.000 A 
ATOM     16  C   UNL     1      -8.167  40.336  11.493  0.00  0.00    +0.000 A 
ATOM     17  C   UNL     1      -7.151  40.455  10.545  0.00  0.00    +0.000 A 
ATOM     18  C   UNL     1      -5.878  40.863  10.918  0.00  0.00    +0.000 A 
ATOM     19  C   UNL     1     -10.088  40.393  14.111  0.00  0.00    +0.000 A 
ATOM     20  C   UNL     1     -10.610  40.653  15.412  0.00  0.00    +0.000 A 
ATOM     21  C   UNL     1     -11.144  39.994  13.212  0.00  0.00    +0.000 C 
ATOM     22  C   UNL     1     -12.077  40.411  15.337  0.00  0.00    +0.000 C 
ATOM     23  N   UNL     1     -12.265  40.042  14.052  0.00  0.00    +0.000 N 
ATOM     24  H   UNL     1     -13.178  39.806  13.687  0.00  0.00    +0.000 HD
ATOM     25  O   UNL     1     -11.180  39.678  12.033  0.00  0.00    +0.000 OA
ATOM     26  C   UNL     1      -9.937  41.557  17.644  0.00  0.00    +0.000 A 
ATOM     27  C   UNL     1      -8.690  42.011  18.218  0.00  0.00    +0.000 A 
ATOM     28  C   UNL     1     -11.115  41.687  18.407  0.00  0.00    +0.000 A 
ATOM     29  C   UNL     1      -8.680  42.585  19.501  0.00  0.00    +0.000 A 
ATOM     30  C   UNL     1      -9.872  42.690  20.217  0.00  0.00    +0.000 A 
ATOM     31  C   UNL     1     -11.071  42.244  19.684  0.00  0.00    +0.000 A 
ENDROOT
BRANCH   3  32
ATOM     32  O   UNL     1      -6.778  44.489  16.945  0.00  0.00    +0.000 OA
ATOM     33  H   UNL     1      -6.877  44.854  17.852  0.00  0.00    +0.000 HD
ENDBRANCH   3  32
BRANCH   3  34
ATOM     34  C   UNL     1      -4.523  44.059  17.750  0.00  0.00    +0.000 C 
ATOM     35  O   UNL     1      -4.680  44.798  18.725  0.00  0.00    +0.000 OA
BRANCH  34  36
ATOM     36  O   UNL     1      -3.343  43.670  17.177  0.00  0.00    +0.000 OA
ATOM     37  C   UNL     1      -2.392  43.051  18.000  0.00  0.00    +0.000 C 
ENDBRANCH  34  36
ENDBRANCH   3  34
TORSDOF 3
ENDMDL
MODEL 3
REMARK VINA RESULT:      -7.9     33.825     35.746
REMARK  Name = 3035817_K252a.pdbqt.pdb
REMARK  3 active torsions:
REMARK  status: ('A' for Active; 'I' for Inactive)
REMARK    1  A    between atoms: C_3  and  O_7
REMARK    2  A    between atoms: C_3  and  C_9
REMARK    3  A    between atoms: C_9  and  O_11
REMARK                            x       y       z     vdW  Elec       q    Type
REMARK                         _______ _______ _______ _____ _____    ______ ____
ROOT
ATOM      1  O   UNL     1       6.744  61.536  -7.198  0.00  0.00    +0.000 OA
ATOM      2  C   UNL     1       7.714  60.569  -6.660  0.00  0.00    +0.000 C 
ATOM      3  C   UNL     1       7.819  60.943  -5.119  0.00  0.00    +0.000 C 
ATOM      4  C   UNL     1       5.792  61.678  -6.172  0.00  0.00    +0.000 C 
ATOM      5  C   UNL     1       6.507  61.564  -4.955  0.00  0.00    +0.000 C 
ATOM      6  C   UNL     1       9.026  60.808  -7.478  0.00  0.00    +0.000 C 
ATOM      7  N   UNL     1       7.146  59.227  -6.898  0.00  0.00    +0.000 N 
ATOM      8  C   UNL     1       5.845  58.803  -6.982  0.00  0.00    +0.000 A 
ATOM      9  C   UNL     1       4.696  59.555  -6.733  0.00  0.00    +0.000 A 
ATOM     10  C   UNL     1       5.581  57.458  -7.262  0.00  0.00    +0.000 A 
ATOM     11  N   UNL     1       4.691  60.853  -6.325  0.00  0.00    +0.000 N 
ATOM     12  C   UNL     1       3.489  58.851  -6.799  0.00  0.00    +0.000 A 
ATOM     13  C   UNL     1       3.324  61.022  -6.040  0.00  0.00    +0.000 A 
ATOM     14  C   UNL     1       2.572  59.825  -6.347  0.00  0.00    +0.000 A 
ATOM     15  C   UNL     1       2.683  62.167  -5.539  0.00  0.00    +0.000 A 
ATOM     16  C   UNL     1       1.183  59.843  -6.116  0.00  0.00    +0.000 A 
ATOM     17  C   UNL     1       0.563  60.990  -5.620  0.00  0.00    +0.000 A 
ATOM     18  C   UNL     1       1.303  62.129  -5.336  0.00  0.00    +0.000 A 
ATOM     19  C   UNL     1       3.208  57.502  -7.099  0.00  0.00    +0.000 A 
ATOM     20  C   UNL     1       4.383  56.738  -7.356  0.00  0.00    +0.000 A 
ATOM     21  C   UNL     1       2.034  56.665  -7.172  0.00  0.00    +0.000 C 
ATOM     22  C   UNL     1       3.935  55.339  -7.603  0.00  0.00    +0.000 C 
ATOM     23  N   UNL     1       2.592  55.417  -7.477  0.00  0.00    +0.000 N 
ATOM     24  H   UNL     1       1.993  54.611  -7.592  0.00  0.00    +0.000 HD
ATOM     25  O   UNL     1       0.837  56.869  -7.030  0.00  0.00    +0.000 OA
ATOM     26  C   UNL     1       6.877  56.913  -7.321  0.00  0.00    +0.000 A 
ATOM     27  C   UNL     1       7.812  57.986  -7.069  0.00  0.00    +0.000 A 
ATOM     28  C   UNL     1       7.384  55.613  -7.523  0.00  0.00    +0.000 A 
ATOM     29  C   UNL     1       9.190  57.714  -7.011  0.00  0.00    +0.000 A 
ATOM     30  C   UNL     1       9.642  56.410  -7.219  0.00  0.00    +0.000 A 
ATOM     31  C   UNL     1       8.756  55.377  -7.477  0.00  0.00    +0.000 A 
ENDROOT
BRANCH   3  32
ATOM     32  O   UNL     1       7.916  59.819  -4.232  0.00  0.00    +0.000 OA
ATOM     33  H   UNL     1       8.717  59.312  -4.489  0.00  0.00    +0.000 HD
ENDBRANCH   3  32
BRANCH   3  34
ATOM     34  C   UNL     1       8.949  61.933  -4.852  0.00  0.00    +0.000 C 
ATOM     35  O   UNL     1       8.803  63.133  -5.099  0.00  0.00    +0.000 OA
BRANCH  34  36
ATOM     36  O   UNL     1      10.072  61.306  -4.387  0.00  0.00    +0.000 OA
ATOM     37  C   UNL     1      10.992  62.071  -3.658  0.00  0.00    +0.000 C 
ENDBRANCH  34  36
ENDBRANCH   3  34
TORSDOF 3
ENDMDL
MODEL 4
REMARK VINA RESULT:      -7.7     15.555     19.366
REMARK  Name = 3035817_K252a.pdbqt.pdb
REMARK  3 active torsions:
REMARK  status: ('A' for Active; 'I' for Inactive)
REMARK    1  A    between atoms: C_3  and  O_7
REMARK    2  A    between atoms: C_3  and  C_9
REMARK    3  A    between atoms: C_9  and  O_11
REMARK                            x       y       z     vdW  Elec       q    Type
REMARK                         _______ _______ _______ _____ _____    ______ ____
ROOT
ATOM      1  O   UNL     1      -5.087  41.117  18.493  0.00  0.00    +0.000 OA
ATOM      2  C   UNL     1      -4.546  42.379  19.021  0.00  0.00    +0.000 C 
ATOM      3  C   UNL     1      -4.372  43.294  17.733  0.00  0.00    +0.000 C 
ATOM      4  C   UNL     1      -5.962  41.518  17.468  0.00  0.00    +0.000 C 
ATOM      5  C   UNL     1      -5.380  42.668  16.882  0.00  0.00    +0.000 C 
ATOM      6  C   UNL     1      -3.206  41.988  19.727  0.00  0.00    +0.000 C 
ATOM      7  N   UNL     1      -5.546  42.900  19.975  0.00  0.00    +0.000 N 
ATOM      8  C   UNL     1      -6.909  42.755  20.017  0.00  0.00    +0.000 A 
ATOM      9  C   UNL     1      -7.722  42.152  19.056  0.00  0.00    +0.000 A 
ATOM     10  C   UNL     1      -7.625  43.327  21.074  0.00  0.00    +0.000 A 
ATOM     11  N   UNL     1      -7.279  41.629  17.881  0.00  0.00    +0.000 N 
ATOM     12  C   UNL     1      -9.098  42.223  19.301  0.00  0.00    +0.000 A 
ATOM     13  C   UNL     1      -8.505  41.362  17.245  0.00  0.00    +0.000 A 
ATOM     14  C   UNL     1      -9.622  41.690  18.103  0.00  0.00    +0.000 A 
ATOM     15  C   UNL     1      -8.714  40.833  15.961  0.00  0.00    +0.000 A 
ATOM     16  C   UNL     1     -10.922  41.473  17.603  0.00  0.00    +0.000 A 
ATOM     17  C   UNL     1     -11.109  40.944  16.327  0.00  0.00    +0.000 A 
ATOM     18  C   UNL     1     -10.022  40.632  15.522  0.00  0.00    +0.000 A 
ATOM     19  C   UNL     1      -9.831  42.779  20.370  0.00  0.00    +0.000 A 
ATOM     20  C   UNL     1      -8.997  43.390  21.351  0.00  0.00    +0.000 A 
ATOM     21  C   UNL     1     -11.223  42.936  20.719  0.00  0.00    +0.000 C 
ATOM     22  C   UNL     1      -9.905  43.971  22.378  0.00  0.00    +0.000 C 
ATOM     23  N   UNL     1     -11.136  43.652  21.920  0.00  0.00    +0.000 N 
ATOM     24  H   UNL     1     -11.978  43.914  22.413  0.00  0.00    +0.000 HD
ATOM     25  O   UNL     1     -12.272  42.589  20.198  0.00  0.00    +0.000 OA
ATOM     26  C   UNL     1      -6.608  43.977  21.796  0.00  0.00    +0.000 A 
ATOM     27  C   UNL     1      -5.361  43.736  21.105  0.00  0.00    +0.000 A 
ATOM     28  C   UNL     1      -6.591  44.787  22.950  0.00  0.00    +0.000 A 
ATOM     29  C   UNL     1      -4.174  44.322  21.579  0.00  0.00    +0.000 A 
ATOM     30  C   UNL     1      -4.210  45.114  22.727  0.00  0.00    +0.000 A 
ATOM     31  C   UNL     1      -5.396  45.339  23.407  0.00  0.00    +0.000 A 
ENDROOT
BRANCH   3  32
ATOM     32  O   UNL     1      -4.714  44.675  17.924  0.00  0.00    +0.000 OA
ATOM     33  H   UNL     1      -3.994  45.085  18.452  0.00  0.00    +0.000 HD
ENDBRANCH   3  32
BRANCH   3  34
ATOM     34  C   UNL     1      -2.973  43.170  17.135  0.00  0.00    +0.000 C 
ATOM     35  O   UNL     1      -2.101  44.000  17.403  0.00  0.00    +0.000 OA
BRANCH  34  36
ATOM     36  O   UNL     1      -2.880  42.105  16.281  0.00  0.00    +0.000 OA
ATOM     37  C   UNL     1      -2.053  42.240  15.158  0.00  0.00    +0.000 C 
ENDBRANCH  34  36
ENDBRANCH   3  34
TORSDOF 3
ENDMDL
MODEL 5
REMARK VINA RESULT:      -7.4     15.668     19.219
REMARK  Name = 3035817_K252a.pdbqt.pdb
REMARK  3 active torsions:
REMARK  status: ('A' for Active; 'I' for Inactive)
REMARK    1  A    between atoms: C_3  and  O_7
REMARK    2  A    between atoms: C_3  and  C_9
REMARK    3  A    between atoms: C_9  and  O_11
REMARK                            x       y       z     vdW  Elec       q    Type
REMARK                         _______ _______ _______ _____ _____    ______ ____
ROOT
ATOM      1  O   UNL     1      -5.227  41.165  18.395  0.00  0.00    +0.000 OA
ATOM      2  C   UNL     1      -4.311  42.307  18.543  0.00  0.00    +0.000 C 
ATOM      3  C   UNL     1      -4.541  43.160  17.221  0.00  0.00    +0.000 C 
ATOM      4  C   UNL     1      -6.370  41.714  17.787  0.00  0.00    +0.000 C 
ATOM      5  C   UNL     1      -5.902  42.727  16.916  0.00  0.00    +0.000 C 
ATOM      6  C   UNL     1      -2.886  41.677  18.670  0.00  0.00    +0.000 C 
ATOM      7  N   UNL     1      -4.718  43.017  19.773  0.00  0.00    +0.000 N 
ATOM      8  C   UNL     1      -5.942  43.132  20.381  0.00  0.00    +0.000 A 
ATOM      9  C   UNL     1      -7.170  42.684  19.894  0.00  0.00    +0.000 A 
ATOM     10  C   UNL     1      -6.042  43.841  21.583  0.00  0.00    +0.000 A 
ATOM     11  N   UNL     1      -7.354  42.076  18.691  0.00  0.00    +0.000 N 
ATOM     12  C   UNL     1      -8.284  43.016  20.673  0.00  0.00    +0.000 A 
ATOM     13  C   UNL     1      -8.759  42.039  18.639  0.00  0.00    +0.000 A 
ATOM     14  C   UNL     1      -9.343  42.581  19.846  0.00  0.00    +0.000 A 
ATOM     15  C   UNL     1      -9.571  41.546  17.605  0.00  0.00    +0.000 A 
ATOM     16  C   UNL     1     -10.748  42.608  19.943  0.00  0.00    +0.000 A 
ATOM     17  C   UNL     1     -11.538  42.111  18.907  0.00  0.00    +0.000 A 
ATOM     18  C   UNL     1     -10.956  41.592  17.759  0.00  0.00    +0.000 A 
ATOM     19  C   UNL     1      -8.398  43.712  21.894  0.00  0.00    +0.000 A 
ATOM     20  C   UNL     1      -7.141  44.164  22.391  0.00  0.00    +0.000 A 
ATOM     21  C   UNL     1      -9.468  44.133  22.767  0.00  0.00    +0.000 C 
ATOM     22  C   UNL     1      -7.425  44.916  23.644  0.00  0.00    +0.000 C 
ATOM     23  N   UNL     1      -8.768  44.831  23.760  0.00  0.00    +0.000 N 
ATOM     24  H   UNL     1      -9.271  45.253  24.528  0.00  0.00    +0.000 HD
ATOM     25  O   UNL     1     -10.681  43.985  22.754  0.00  0.00    +0.000 OA
ATOM     26  C   UNL     1      -4.724  44.294  21.766  0.00  0.00    +0.000 A 
ATOM     27  C   UNL     1      -3.940  43.815  20.650  0.00  0.00    +0.000 A 
ATOM     28  C   UNL     1      -4.090  45.097  22.736  0.00  0.00    +0.000 A 
ATOM     29  C   UNL     1      -2.584  44.170  20.543  0.00  0.00    +0.000 A 
ATOM     30  C   UNL     1      -2.003  44.966  21.531  0.00  0.00    +0.000 A 
ATOM     31  C   UNL     1      -2.740  45.418  22.614  0.00  0.00    +0.000 A 
ENDROOT
BRANCH   3  32
ATOM     32  O   UNL     1      -4.536  44.582  17.413  0.00  0.00    +0.000 OA
ATOM     33  H   UNL     1      -3.603  44.854  17.563  0.00  0.00    +0.000 HD
ENDBRANCH   3  32
BRANCH   3  34
ATOM     34  C   UNL     1      -3.563  42.767  16.117  0.00  0.00    +0.000 C 
ATOM     35  O   UNL     1      -2.519  43.402  15.950  0.00  0.00    +0.000 OA
BRANCH  34  36
ATOM     36  O   UNL     1      -4.033  41.719  15.374  0.00  0.00    +0.000 OA
ATOM     37  C   UNL     1      -3.651  41.651  14.027  0.00  0.00    +0.000 C 
ENDBRANCH  34  36
ENDBRANCH   3  34
TORSDOF 3
ENDMDL
MODEL 6
REMARK VINA RESULT:      -7.2     13.026     16.858
REMARK  Name = 3035817_K252a.pdbqt.pdb
REMARK  3 active torsions:
REMARK  status: ('A' for Active; 'I' for Inactive)
REMARK    1  A    between atoms: C_3  and  O_7
REMARK    2  A    between atoms: C_3  and  C_9
REMARK    3  A    between atoms: C_9  and  O_11
REMARK                            x       y       z     vdW  Elec       q    Type
REMARK                         _______ _______ _______ _____ _____    ______ ____
ROOT
ATOM      1  O   UNL     1      -4.258  42.279  12.927  0.00  0.00    +0.000 OA
ATOM      2  C   UNL     1      -4.921  43.328  13.718  0.00  0.00    +0.000 C 
ATOM      3  C   UNL     1      -6.088  42.561  14.476  0.00  0.00    +0.000 C 
ATOM      4  C   UNL     1      -4.287  41.148  13.761  0.00  0.00    +0.000 C 
ATOM      5  C   UNL     1      -5.502  41.223  14.485  0.00  0.00    +0.000 C 
ATOM      6  C   UNL     1      -5.409  44.384  12.672  0.00  0.00    +0.000 C 
ATOM      7  N   UNL     1      -3.897  43.880  14.629  0.00  0.00    +0.000 N 
ATOM      8  C   UNL     1      -2.788  43.300  15.190  0.00  0.00    +0.000 A 
ATOM      9  C   UNL     1      -2.414  41.957  15.125  0.00  0.00    +0.000 A 
ATOM     10  C   UNL     1      -1.948  44.074  15.998  0.00  0.00    +0.000 A 
ATOM     11  N   UNL     1      -3.130  40.981  14.503  0.00  0.00    +0.000 N 
ATOM     12  C   UNL     1      -1.282  41.610  15.869  0.00  0.00    +0.000 A 
ATOM     13  C   UNL     1      -2.419  39.842  14.921  0.00  0.00    +0.000 A 
ATOM     14  C   UNL     1      -1.276  40.205  15.729  0.00  0.00    +0.000 A 
ATOM     15  C   UNL     1      -2.695  38.497  14.627  0.00  0.00    +0.000 A 
ATOM     16  C   UNL     1      -0.460  39.166  16.220  0.00  0.00    +0.000 A 
ATOM     17  C   UNL     1      -0.749  37.836  15.917  0.00  0.00    +0.000 A 
ATOM     18  C   UNL     1      -1.849  37.511  15.135  0.00  0.00    +0.000 A 
ATOM     19  C   UNL     1      -0.416  42.382  16.671  0.00  0.00    +0.000 A 
ATOM     20  C   UNL     1      -0.798  43.754  16.733  0.00  0.00    +0.000 A 
ATOM     21  C   UNL     1       0.746  42.143  17.494  0.00  0.00    +0.000 C 
ATOM     22  C   UNL     1       0.168  44.424  17.646  0.00  0.00    +0.000 C 
ATOM     23  N   UNL     1       0.995  43.421  18.012  0.00  0.00    +0.000 N 
ATOM     24  H   UNL     1       1.772  43.566  18.643  0.00  0.00    +0.000 HD
ATOM     25  O   UNL     1       1.415  41.154  17.748  0.00  0.00    +0.000 OA
ATOM     26  C   UNL     1      -2.617  45.312  16.012  0.00  0.00    +0.000 A 
ATOM     27  C   UNL     1      -3.809  45.172  15.206  0.00  0.00    +0.000 A 
ATOM     28  C   UNL     1      -2.378  46.546  16.649  0.00  0.00    +0.000 A 
ATOM     29  C   UNL     1      -4.705  46.249  15.090  0.00  0.00    +0.000 A 
ATOM     30  C   UNL     1      -4.422  47.451  15.739  0.00  0.00    +0.000 A 
ATOM     31  C   UNL     1      -3.275  47.602  16.501  0.00  0.00    +0.000 A 
ENDROOT
BRANCH   3  32
ATOM     32  O   UNL     1      -6.306  42.983  15.831  0.00  0.00    +0.000 OA
ATOM     33  H   UNL     1      -6.380  42.172  16.381  0.00  0.00    +0.000 HD
ENDBRANCH   3  32
BRANCH   3  34
ATOM     34  C   UNL     1      -7.395  42.599  13.689  0.00  0.00    +0.000 C 
ATOM     35  O   UNL     1      -8.237  43.472  13.914  0.00  0.00    +0.000 OA
BRANCH  34  36
ATOM     36  O   UNL     1      -7.488  41.554  12.811  0.00  0.00    +0.000 OA
ATOM     37  C   UNL     1      -7.798  41.850  11.477  0.00  0.00    +0.000 C 
ENDBRANCH  34  36
ENDBRANCH   3  34
TORSDOF 3
ENDMDL
MODEL 7
REMARK VINA RESULT:      -7.1      2.522      4.299
REMARK  Name = 3035817_K252a.pdbqt.pdb
REMARK  3 active torsions:
REMARK  status: ('A' for Active; 'I' for Inactive)
REMARK    1  A    between atoms: C_3  and  O_7
REMARK    2  A    between atoms: C_3  and  C_9
REMARK    3  A    between atoms: C_9  and  O_11
REMARK                            x       y       z     vdW  Elec       q    Type
REMARK                         _______ _______ _______ _____ _____    ______ ____
ROOT
ATOM      1  O   UNL     1       9.969  35.094  14.780  0.00  0.00    +0.000 OA
ATOM      2  C   UNL     1      10.796  35.737  15.814  0.00  0.00    +0.000 C 
ATOM      3  C   UNL     1       9.744  36.228  16.900  0.00  0.00    +0.000 C 
ATOM      4  C   UNL     1       8.954  34.444  15.504  0.00  0.00    +0.000 C 
ATOM      5  C   UNL     1       8.678  35.269  16.622  0.00  0.00    +0.000 C 
ATOM      6  C   UNL     1      11.554  36.889  15.076  0.00  0.00    +0.000 C 
ATOM      7  N   UNL     1      11.717  34.700  16.322  0.00  0.00    +0.000 N 
ATOM      8  C   UNL     1      11.577  33.339  16.411  0.00  0.00    +0.000 A 
ATOM      9  C   UNL     1      10.431  32.590  16.141  0.00  0.00    +0.000 A 
ATOM     10  C   UNL     1      12.641  32.574  16.902  0.00  0.00    +0.000 A 
ATOM     11  N   UNL     1       9.232  33.113  15.767  0.00  0.00    +0.000 N 
ATOM     12  C   UNL     1      10.531  31.220  16.405  0.00  0.00    +0.000 A 
ATOM     13  C   UNL     1       8.424  31.964  15.836  0.00  0.00    +0.000 A 
ATOM     14  C   UNL     1       9.200  30.798  16.195  0.00  0.00    +0.000 A 
ATOM     15  C   UNL     1       7.045  31.864  15.588  0.00  0.00    +0.000 A 
ATOM     16  C   UNL     1       8.526  29.565  16.299  0.00  0.00    +0.000 A 
ATOM     17  C   UNL     1       7.157  29.484  16.048  0.00  0.00    +0.000 A 
ATOM     18  C   UNL     1       6.432  30.616  15.701  0.00  0.00    +0.000 A 
ATOM     19  C   UNL     1      11.601  30.434  16.880  0.00  0.00    +0.000 A 
ATOM     20  C   UNL     1      12.771  31.201  17.152  0.00  0.00    +0.000 A 
ATOM     21  C   UNL     1      11.818  29.046  17.212  0.00  0.00    +0.000 C 
ATOM     22  C   UNL     1      13.786  30.253  17.688  0.00  0.00    +0.000 C 
ATOM     23  N   UNL     1      13.140  29.067  17.675  0.00  0.00    +0.000 N 
ATOM     24  H   UNL     1      13.578  28.212  17.989  0.00  0.00    +0.000 HD
ATOM     25  O   UNL     1      11.124  28.041  17.152  0.00  0.00    +0.000 OA
ATOM     26  C   UNL     1      13.587  33.563  17.225  0.00  0.00    +0.000 A 
ATOM     27  C   UNL     1      13.005  34.846  16.898  0.00  0.00    +0.000 A 
ATOM     28  C   UNL     1      14.874  33.537  17.800  0.00  0.00    +0.000 A 
ATOM     29  C   UNL     1      13.715  36.027  17.174  0.00  0.00    +0.000 A 
ATOM     30  C   UNL     1      14.987  35.947  17.742  0.00  0.00    +0.000 A 
ATOM     31  C   UNL     1      15.562  34.724  18.045  0.00  0.00    +0.000 A 
ENDROOT
BRANCH   3  32
ATOM     32  O   UNL     1      10.167  36.072  18.263  0.00  0.00    +0.000 OA
ATOM     33  H   UNL     1      10.230  36.972  18.654  0.00  0.00    +0.000 HD
ENDBRANCH   3  32
BRANCH   3  34
ATOM     34  C   UNL     1       9.292  37.663  16.643  0.00  0.00    +0.000 C 
ATOM     35  O   UNL     1       8.490  37.915  15.740  0.00  0.00    +0.000 OA
BRANCH  34  36
ATOM     36  O   UNL     1       9.920  38.548  17.475  0.00  0.00    +0.000 OA
ATOM     37  C   UNL     1      10.143  39.847  16.997  0.00  0.00    +0.000 C 
ENDBRANCH  34  36
ENDBRANCH   3  34
TORSDOF 3
ENDMDL
MODEL 8
REMARK VINA RESULT:      -7.1      3.395      5.891
REMARK  Name = 3035817_K252a.pdbqt.pdb
REMARK  3 active torsions:
REMARK  status: ('A' for Active; 'I' for Inactive)
REMARK    1  A    between atoms: C_3  and  O_7
REMARK    2  A    between atoms: C_3  and  C_9
REMARK    3  A    between atoms: C_9  and  O_11
REMARK                            x       y       z     vdW  Elec       q    Type
REMARK                         _______ _______ _______ _____ _____    ______ ____
ROOT
ATOM      1  O   UNL     1      10.739  35.179  15.467  0.00  0.00    +0.000 OA
ATOM      2  C   UNL     1      10.346  36.237  16.411  0.00  0.00    +0.000 C 
ATOM      3  C   UNL     1       8.785  36.413  16.167  0.00  0.00    +0.000 C 
ATOM      4  C   UNL     1       9.653  34.285  15.479  0.00  0.00    +0.000 C 
ATOM      5  C   UNL     1       8.493  35.078  15.650  0.00  0.00    +0.000 C 
ATOM      6  C   UNL     1      11.209  37.480  16.016  0.00  0.00    +0.000 C 
ATOM      7  N   UNL     1      10.673  35.739  17.762  0.00  0.00    +0.000 N 
ATOM      8  C   UNL     1      10.723  34.463  18.262  0.00  0.00    +0.000 A 
ATOM      9  C   UNL     1      10.344  33.288  17.612  0.00  0.00    +0.000 A 
ATOM     10  C   UNL     1      11.109  34.266  19.592  0.00  0.00    +0.000 A 
ATOM     11  N   UNL     1       9.820  33.228  16.358  0.00  0.00    +0.000 N 
ATOM     12  C   UNL     1      10.407  32.124  18.387  0.00  0.00    +0.000 A 
ATOM     13  C   UNL     1       9.445  31.874  16.306  0.00  0.00    +0.000 A 
ATOM     14  C   UNL     1       9.818  31.179  17.518  0.00  0.00    +0.000 A 
ATOM     15  C   UNL     1       8.807  31.195  15.254  0.00  0.00    +0.000 A 
ATOM     16  C   UNL     1       9.509  29.808  17.612  0.00  0.00    +0.000 A 
ATOM     17  C   UNL     1       8.878  29.151  16.557  0.00  0.00    +0.000 A 
ATOM     18  C   UNL     1       8.533  29.836  15.401  0.00  0.00    +0.000 A 
ATOM     19  C   UNL     1      10.811  31.908  19.720  0.00  0.00    +0.000 A 
ATOM     20  C   UNL     1      11.202  33.110  20.380  0.00  0.00    +0.000 A 
ATOM     21  C   UNL     1      10.895  30.785  20.623  0.00  0.00    +0.000 C 
ATOM     22  C   UNL     1      11.549  32.734  21.778  0.00  0.00    +0.000 C 
ATOM     23  N   UNL     1      11.343  31.399  21.800  0.00  0.00    +0.000 N 
ATOM     24  H   UNL     1      11.497  30.844  22.631  0.00  0.00    +0.000 HD
ATOM     25  O   UNL     1      10.669  29.589  20.512  0.00  0.00    +0.000 OA
ATOM     26  C   UNL     1      11.288  35.586  20.043  0.00  0.00    +0.000 A 
ATOM     27  C   UNL     1      10.992  36.468  18.936  0.00  0.00    +0.000 A 
ATOM     28  C   UNL     1      11.635  36.158  21.284  0.00  0.00    +0.000 A 
ATOM     29  C   UNL     1      11.035  37.861  19.121  0.00  0.00    +0.000 A 
ATOM     30  C   UNL     1      11.385  38.378  20.368  0.00  0.00    +0.000 A 
ATOM     31  C   UNL     1      11.687  37.543  21.432  0.00  0.00    +0.000 A 
ENDROOT
BRANCH   3  32
ATOM     32  O   UNL     1       8.010  36.633  17.355  0.00  0.00    +0.000 OA
ATOM     33  H   UNL     1       7.199  36.083  17.281  0.00  0.00    +0.000 HD
ENDBRANCH   3  32
BRANCH   3  34
ATOM     34  C   UNL     1       8.492  37.495  15.131  0.00  0.00    +0.000 C 
ATOM     35  O   UNL     1       8.879  37.369  13.967  0.00  0.00    +0.000 OA
BRANCH  34  36
ATOM     36  O   UNL     1       7.834  38.559  15.684  0.00  0.00    +0.000 OA
ATOM     37  C   UNL     1       8.534  39.768  15.803  0.00  0.00    +0.000 C 
ENDBRANCH  34  36
ENDBRANCH   3  34
TORSDOF 3
ENDMDL
MODEL 9
REMARK VINA RESULT:      -7.1      3.858      5.980
REMARK  Name = 3035817_K252a.pdbqt.pdb
REMARK  3 active torsions:
REMARK  status: ('A' for Active; 'I' for Inactive)
REMARK    1  A    between atoms: C_3  and  O_7
REMARK    2  A    between atoms: C_3  and  C_9
REMARK    3  A    between atoms: C_9  and  O_11
REMARK                            x       y       z     vdW  Elec       q    Type
REMARK                         _______ _______ _______ _____ _____    ______ ____
ROOT
ATOM      1  O   UNL     1      11.402  34.305  16.915  0.00  0.00    +0.000 OA
ATOM      2  C   UNL     1      10.233  34.606  17.757  0.00  0.00    +0.000 C 
ATOM      3  C   UNL     1       8.999  34.477  16.764  0.00  0.00    +0.000 C 
ATOM      4  C   UNL     1      10.957  33.285  16.057  0.00  0.00    +0.000 C 
ATOM      5  C   UNL     1       9.592  33.559  15.795  0.00  0.00    +0.000 C 
ATOM      6  C   UNL     1      10.481  36.051  18.301  0.00  0.00    +0.000 C 
ATOM      7  N   UNL     1      10.222  33.599  18.837  0.00  0.00    +0.000 N 
ATOM      8  C   UNL     1      10.678  32.306  18.865  0.00  0.00    +0.000 A 
ATOM      9  C   UNL     1      11.177  31.565  17.793  0.00  0.00    +0.000 A 
ATOM     10  C   UNL     1      10.579  31.573  20.053  0.00  0.00    +0.000 A 
ATOM     11  N   UNL     1      11.259  32.012  16.511  0.00  0.00    +0.000 N 
ATOM     12  C   UNL     1      11.487  30.230  18.077  0.00  0.00    +0.000 A 
ATOM     13  C   UNL     1      11.622  30.824  15.852  0.00  0.00    +0.000 A 
ATOM     14  C   UNL     1      11.792  29.736  16.790  0.00  0.00    +0.000 A 
ATOM     15  C   UNL     1      11.831  30.629  14.477  0.00  0.00    +0.000 A 
ATOM     16  C   UNL     1      12.161  28.476  16.276  0.00  0.00    +0.000 A 
ATOM     17  C   UNL     1      12.366  28.303  14.908  0.00  0.00    +0.000 A 
ATOM     18  C   UNL     1      12.201  29.362  14.027  0.00  0.00    +0.000 A 
ATOM     19  C   UNL     1      11.411  29.485  19.271  0.00  0.00    +0.000 A 
ATOM     20  C   UNL     1      10.905  30.246  20.365  0.00  0.00    +0.000 A 
ATOM     21  C   UNL     1      11.670  28.124  19.678  0.00  0.00    +0.000 C 
ATOM     22  C   UNL     1      10.835  29.321  21.530  0.00  0.00    +0.000 C 
ATOM     23  N   UNL     1      11.294  28.154  21.027  0.00  0.00    +0.000 N 
ATOM     24  H   UNL     1      11.367  27.318  21.590  0.00  0.00    +0.000 HD
ATOM     25  O   UNL     1      12.098  27.134  19.104  0.00  0.00    +0.000 OA
ATOM     26  C   UNL     1       9.928  32.483  20.904  0.00  0.00    +0.000 A 
ATOM     27  C   UNL     1       9.690  33.693  20.148  0.00  0.00    +0.000 A 
ATOM     28  C   UNL     1       9.466  32.421  22.235  0.00  0.00    +0.000 A 
ATOM     29  C   UNL     1       8.995  34.762  20.740  0.00  0.00    +0.000 A 
ATOM     30  C   UNL     1       8.560  34.652  22.061  0.00  0.00    +0.000 A 
ATOM     31  C   UNL     1       8.796  33.504  22.800  0.00  0.00    +0.000 A 
ENDROOT
BRANCH   3  32
ATOM     32  O   UNL     1       7.831  33.865  17.331  0.00  0.00    +0.000 OA
ATOM     33  H   UNL     1       7.599  33.096  16.764  0.00  0.00    +0.000 HD
ENDBRANCH   3  32
BRANCH   3  34
ATOM     34  C   UNL     1       8.642  35.817  16.126  0.00  0.00    +0.000 C 
ATOM     35  O   UNL     1       7.768  36.533  16.622  0.00  0.00    +0.000 OA
BRANCH  34  36
ATOM     36  O   UNL     1       9.355  36.037  14.980  0.00  0.00    +0.000 OA
ATOM     37  C   UNL     1      10.030  37.259  14.858  0.00  0.00    +0.000 C 
ENDBRANCH  34  36
ENDBRANCH   3  34
TORSDOF 3
ENDMDL
