MODEL 1
REMARK VINA RESULT:      -5.2      0.000      0.000
REMARK  Name = 3136_Dimethoxy.pdbqt.pdb
REMARK  2 active torsions:
REMARK  status: ('A' for Active; 'I' for Inactive)
REMARK    1  A    between atoms: C_7  and  O_13
REMARK    2  A    between atoms: C_8  and  O_15
REMARK                            x       y       z     vdW  Elec       q    Type
REMARK                         _______ _______ _______ _____ _____    ______ ____
ROOT
ATOM      1  O   UNL     1      -0.230  64.789  10.873  0.00  0.00    +0.000 OA
ATOM      2  O   UNL     1      -1.500  61.819   6.635  0.00  0.00    +0.000 OA
ATOM      3  C   UNL     1      -1.291  62.872  10.057  0.00  0.00    +0.000 A 
ATOM      4  C   UNL     1      -1.643  62.112   8.951  0.00  0.00    +0.000 A 
ATOM      5  C   UNL     1      -0.495  64.094   9.901  0.00  0.00    +0.000 C 
ATOM      6  C   UNL     1      -1.233  62.518   7.602  0.00  0.00    +0.000 C 
ATOM      7  C   UNL     1      -0.045  64.466   8.537  0.00  0.00    +0.000 C 
ATOM      8  C   UNL     1      -0.472  63.783   7.456  0.00  0.00    +0.000 C 
ATOM      9  C   UNL     1      -1.693  62.478  11.332  0.00  0.00    +0.000 A 
ATOM     10  C   UNL     1      -2.396  60.948   9.112  0.00  0.00    +0.000 A 
ATOM     11  C   UNL     1      -2.446  61.317  11.496  0.00  0.00    +0.000 A 
ATOM     12  C   UNL     1      -2.797  60.551  10.386  0.00  0.00    +0.000 A 
ENDROOT
BRANCH   7  13
ATOM     13  O   UNL     1       0.741  65.601   8.464  0.00  0.00    +0.000 OA
ATOM     14  C   UNL     1       2.093  65.252   8.636  0.00  0.00    +0.000 C 
ENDBRANCH   7  13
BRANCH   8  15
ATOM     15  O   UNL     1      -0.158  64.136   6.155  0.00  0.00    +0.000 OA
ATOM     16  C   UNL     1      -1.093  65.075   5.681  0.00  0.00    +0.000 C 
ENDBRANCH   8  15
TORSDOF 2
ENDMDL
MODEL 2
REMARK VINA RESULT:      -5.1     35.410     38.278
REMARK  Name = 3136_Dimethoxy.pdbqt.pdb
REMARK  2 active torsions:
REMARK  status: ('A' for Active; 'I' for Inactive)
REMARK    1  A    between atoms: C_7  and  O_13
REMARK    2  A    between atoms: C_8  and  O_15
REMARK                            x       y       z     vdW  Elec       q    Type
REMARK                         _______ _______ _______ _____ _____    ______ ____
ROOT
ATOM      1  O   UNL     1     -15.583  31.705  27.867  0.00  0.00    +0.000 OA
ATOM      2  O   UNL     1     -15.456  32.437  22.590  0.00  0.00    +0.000 OA
ATOM      3  C   UNL     1     -14.814  32.995  26.075  0.00  0.00    +0.000 A 
ATOM      4  C   UNL     1     -14.761  33.171  24.699  0.00  0.00    +0.000 A 
ATOM      5  C   UNL     1     -15.580  31.887  26.657  0.00  0.00    +0.000 C 
ATOM      6  C   UNL     1     -15.462  32.249  23.799  0.00  0.00    +0.000 C 
ATOM      7  C   UNL     1     -16.325  30.992  25.737  0.00  0.00    +0.000 C 
ATOM      8  C   UNL     1     -16.190  31.105  24.400  0.00  0.00    +0.000 C 
ATOM      9  C   UNL     1     -14.138  33.875  26.919  0.00  0.00    +0.000 A 
ATOM     10  C   UNL     1     -14.034  34.232  24.157  0.00  0.00    +0.000 A 
ATOM     11  C   UNL     1     -13.411  34.933  26.380  0.00  0.00    +0.000 A 
ATOM     12  C   UNL     1     -13.359  35.113  24.999  0.00  0.00    +0.000 A 
ENDROOT
BRANCH   7  13
ATOM     13  O   UNL     1     -17.064  29.998  26.351  0.00  0.00    +0.000 OA
ATOM     14  C   UNL     1     -18.407  30.406  26.460  0.00  0.00    +0.000 C 
ENDBRANCH   7  13
BRANCH   8  15
ATOM     15  O   UNL     1     -16.788  30.245  23.496  0.00  0.00    +0.000 OA
ATOM     16  C   UNL     1     -15.983  29.103  23.325  0.00  0.00    +0.000 C 
ENDBRANCH   8  15
TORSDOF 2
ENDMDL
MODEL 3
REMARK VINA RESULT:      -5.0     18.638     20.601
REMARK  Name = 3136_Dimethoxy.pdbqt.pdb
REMARK  2 active torsions:
REMARK  status: ('A' for Active; 'I' for Inactive)
REMARK    1  A    between atoms: C_7  and  O_13
REMARK    2  A    between atoms: C_8  and  O_15
REMARK                            x       y       z     vdW  Elec       q    Type
REMARK                         _______ _______ _______ _____ _____    ______ ____
ROOT
ATOM      1  O   UNL     1       0.876  42.342  17.655  0.00  0.00    +0.000 OA
ATOM      2  O   UNL     1       0.576  46.725  14.640  0.00  0.00    +0.000 OA
ATOM      3  C   UNL     1       2.003  43.896  16.320  0.00  0.00    +0.000 A 
ATOM      4  C   UNL     1       1.920  45.023  15.515  0.00  0.00    +0.000 A 
ATOM      5  C   UNL     1       0.809  43.365  16.987  0.00  0.00    +0.000 C 
ATOM      6  C   UNL     1       0.636  45.703  15.308  0.00  0.00    +0.000 C 
ATOM      7  C   UNL     1      -0.472  44.091  16.809  0.00  0.00    +0.000 C 
ATOM      8  C   UNL     1      -0.570  45.124  15.948  0.00  0.00    +0.000 C 
ATOM      9  C   UNL     1       3.228  43.257  16.504  0.00  0.00    +0.000 A 
ATOM     10  C   UNL     1       3.064  45.523  14.891  0.00  0.00    +0.000 A 
ATOM     11  C   UNL     1       4.371  43.753  15.880  0.00  0.00    +0.000 A 
ATOM     12  C   UNL     1       4.289  44.886  15.074  0.00  0.00    +0.000 A 
ENDROOT
BRANCH   7  13
ATOM     13  O   UNL     1      -1.549  43.567  17.501  0.00  0.00    +0.000 OA
ATOM     14  C   UNL     1      -1.717  44.264  18.712  0.00  0.00    +0.000 C 
ENDBRANCH   7  13
BRANCH   8  15
ATOM     15  O   UNL     1      -1.757  45.781  15.674  0.00  0.00    +0.000 OA
ATOM     16  C   UNL     1      -2.457  45.093  14.664  0.00  0.00    +0.000 C 
ENDBRANCH   8  15
TORSDOF 2
ENDMDL
MODEL 4
REMARK VINA RESULT:      -4.9     15.733     17.696
REMARK  Name = 3136_Dimethoxy.pdbqt.pdb
REMARK  2 active torsions:
REMARK  status: ('A' for Active; 'I' for Inactive)
REMARK    1  A    between atoms: C_7  and  O_13
REMARK    2  A    between atoms: C_8  and  O_15
REMARK                            x       y       z     vdW  Elec       q    Type
REMARK                         _______ _______ _______ _____ _____    ______ ____
ROOT
ATOM      1  O   UNL     1       4.887  59.867  -6.333  0.00  0.00    +0.000 OA
ATOM      2  O   UNL     1       2.603  55.348  -7.996  0.00  0.00    +0.000 OA
ATOM      3  C   UNL     1       2.924  58.613  -6.546  0.00  0.00    +0.000 A 
ATOM      4  C   UNL     1       2.326  57.447  -7.002  0.00  0.00    +0.000 A 
ATOM      5  C   UNL     1       4.370  58.816  -6.690  0.00  0.00    +0.000 C 
ATOM      6  C   UNL     1       3.125  56.397  -7.643  0.00  0.00    +0.000 C 
ATOM      7  C   UNL     1       5.173  57.725  -7.294  0.00  0.00    +0.000 C 
ATOM      8  C   UNL     1       4.577  56.638  -7.826  0.00  0.00    +0.000 C 
ATOM      9  C   UNL     1       2.152  59.606  -5.945  0.00  0.00    +0.000 A 
ATOM     10  C   UNL     1       0.951  57.263  -6.855  0.00  0.00    +0.000 A 
ATOM     11  C   UNL     1       0.779  59.425  -5.798  0.00  0.00    +0.000 A 
ATOM     12  C   UNL     1       0.178  58.253  -6.252  0.00  0.00    +0.000 A 
ENDROOT
BRANCH   7  13
ATOM     13  O   UNL     1       6.535  57.958  -7.357  0.00  0.00    +0.000 OA
ATOM     14  C   UNL     1       7.166  57.375  -6.244  0.00  0.00    +0.000 C 
ENDBRANCH   7  13
BRANCH   8  15
ATOM     15  O   UNL     1       5.265  55.632  -8.481  0.00  0.00    +0.000 OA
ATOM     16  C   UNL     1       5.428  55.975  -9.836  0.00  0.00    +0.000 C 
ENDBRANCH   8  15
TORSDOF 2
ENDMDL
MODEL 5
REMARK VINA RESULT:      -4.8      1.444      3.322
REMARK  Name = 3136_Dimethoxy.pdbqt.pdb
REMARK  2 active torsions:
REMARK  status: ('A' for Active; 'I' for Inactive)
REMARK    1  A    between atoms: C_7  and  O_13
REMARK    2  A    between atoms: C_8  and  O_15
REMARK                            x       y       z     vdW  Elec       q    Type
REMARK                         _______ _______ _______ _____ _____    ______ ____
ROOT
ATOM      1  O   UNL     1      -2.842  61.883   8.754  0.00  0.00    +0.000 OA
ATOM      2  O   UNL     1       1.611  64.755   8.192  0.00  0.00    +0.000 OA
ATOM      3  C   UNL     1      -1.028  62.930   9.794  0.00  0.00    +0.000 A 
ATOM      4  C   UNL     1       0.145  63.656   9.645  0.00  0.00    +0.000 A 
ATOM      5  C   UNL     1      -1.835  62.567   8.625  0.00  0.00    +0.000 C 
ATOM      6  C   UNL     1       0.605  64.070   8.315  0.00  0.00    +0.000 C 
ATOM      7  C   UNL     1      -1.384  63.035   7.291  0.00  0.00    +0.000 C 
ATOM      8  C   UNL     1      -0.195  63.653   7.139  0.00  0.00    +0.000 C 
ATOM      9  C   UNL     1      -1.450  62.537  11.064  0.00  0.00    +0.000 A 
ATOM     10  C   UNL     1       0.902  64.001  10.766  0.00  0.00    +0.000 A 
ATOM     11  C   UNL     1      -0.696  62.879  12.184  0.00  0.00    +0.000 A 
ATOM     12  C   UNL     1       0.480  63.611  12.035  0.00  0.00    +0.000 A 
ENDROOT
BRANCH   7  13
ATOM     13  O   UNL     1      -2.214  62.701   6.236  0.00  0.00    +0.000 OA
ATOM     14  C   UNL     1      -3.169  63.717   6.046  0.00  0.00    +0.000 C 
ENDBRANCH   7  13
BRANCH   8  15
ATOM     15  O   UNL     1       0.318  64.032   5.911  0.00  0.00    +0.000 OA
ATOM     16  C   UNL     1      -0.025  65.371   5.648  0.00  0.00    +0.000 C 
ENDBRANCH   8  15
TORSDOF 2
ENDMDL
MODEL 6
REMARK VINA RESULT:      -4.8     33.975     35.065
REMARK  Name = 3136_Dimethoxy.pdbqt.pdb
REMARK  2 active torsions:
REMARK  status: ('A' for Active; 'I' for Inactive)
REMARK    1  A    between atoms: C_7  and  O_13
REMARK    2  A    between atoms: C_8  and  O_15
REMARK                            x       y       z     vdW  Elec       q    Type
REMARK                         _______ _______ _______ _____ _____    ______ ____
ROOT
ATOM      1  O   UNL     1      12.775  39.895 -14.231  0.00  0.00    +0.000 OA
ATOM      2  O   UNL     1      12.056  44.618 -16.592  0.00  0.00    +0.000 OA
ATOM      3  C   UNL     1      11.616  41.140 -15.837  0.00  0.00    +0.000 A 
ATOM      4  C   UNL     1      11.412  42.375 -16.434  0.00  0.00    +0.000 A 
ATOM      5  C   UNL     1      12.632  40.974 -14.791  0.00  0.00    +0.000 C 
ATOM      6  C   UNL     1      12.202  43.543 -16.028  0.00  0.00    +0.000 C 
ATOM      7  C   UNL     1      13.458  42.151 -14.426  0.00  0.00    +0.000 C 
ATOM      8  C   UNL     1      13.190  43.371 -14.935  0.00  0.00    +0.000 C 
ATOM      9  C   UNL     1      10.854  40.039 -16.228  0.00  0.00    +0.000 A 
ATOM     10  C   UNL     1      10.447  42.519 -17.431  0.00  0.00    +0.000 A 
ATOM     11  C   UNL     1       9.889  40.181 -17.222  0.00  0.00    +0.000 A 
ATOM     12  C   UNL     1       9.685  41.421 -17.825  0.00  0.00    +0.000 A 
ENDROOT
BRANCH   7  13
ATOM     13  O   UNL     1      14.429  41.917 -13.469  0.00  0.00    +0.000 OA
ATOM     14  C   UNL     1      15.614  41.488 -14.094  0.00  0.00    +0.000 C 
ENDBRANCH   7  13
BRANCH   8  15
ATOM     15  O   UNL     1      13.867  44.520 -14.564  0.00  0.00    +0.000 OA
ATOM     16  C   UNL     1      14.980  44.705 -15.406  0.00  0.00    +0.000 C 
ENDBRANCH   8  15
TORSDOF 2
ENDMDL
MODEL 7
REMARK VINA RESULT:      -4.8     33.974     35.046
REMARK  Name = 3136_Dimethoxy.pdbqt.pdb
REMARK  2 active torsions:
REMARK  status: ('A' for Active; 'I' for Inactive)
REMARK    1  A    between atoms: C_7  and  O_13
REMARK    2  A    between atoms: C_8  and  O_15
REMARK                            x       y       z     vdW  Elec       q    Type
REMARK                         _______ _______ _______ _____ _____    ______ ____
ROOT
ATOM      1  O   UNL     1      12.097  44.632 -16.530  0.00  0.00    +0.000 OA
ATOM      2  O   UNL     1      12.790  39.883 -14.214  0.00  0.00    +0.000 OA
ATOM      3  C   UNL     1      11.434  42.394 -16.386  0.00  0.00    +0.000 A 
ATOM      4  C   UNL     1      11.631  41.152 -15.801  0.00  0.00    +0.000 A 
ATOM      5  C   UNL     1      12.239  43.550 -15.976  0.00  0.00    +0.000 C 
ATOM      6  C   UNL     1      12.653  40.967 -14.765  0.00  0.00    +0.000 C 
ATOM      7  C   UNL     1      13.234  43.360 -14.893  0.00  0.00    +0.000 C 
ATOM      8  C   UNL     1      13.493  42.133 -14.397  0.00  0.00    +0.000 C 
ATOM      9  C   UNL     1      10.463  42.555 -17.374  0.00  0.00    +0.000 A 
ATOM     10  C   UNL     1      10.855  40.062 -16.195  0.00  0.00    +0.000 A 
ATOM     11  C   UNL     1       9.688  41.468 -17.770  0.00  0.00    +0.000 A 
ATOM     12  C   UNL     1       9.883  40.221 -17.181  0.00  0.00    +0.000 A 
ENDROOT
BRANCH   7  13
ATOM     13  O   UNL     1      13.926  44.497 -14.520  0.00  0.00    +0.000 OA
ATOM     14  C   UNL     1      15.017  44.693 -15.387  0.00  0.00    +0.000 C 
ENDBRANCH   7  13
BRANCH   8  15
ATOM     15  O   UNL     1      14.471  41.881 -13.451  0.00  0.00    +0.000 OA
ATOM     16  C   UNL     1      15.649  41.449 -14.091  0.00  0.00    +0.000 C 
ENDBRANCH   8  15
TORSDOF 2
ENDMDL
MODEL 8
REMARK VINA RESULT:      -4.8     19.986     21.835
REMARK  Name = 3136_Dimethoxy.pdbqt.pdb
REMARK  2 active torsions:
REMARK  status: ('A' for Active; 'I' for Inactive)
REMARK    1  A    between atoms: C_7  and  O_13
REMARK    2  A    between atoms: C_8  and  O_15
REMARK                            x       y       z     vdW  Elec       q    Type
REMARK                         _______ _______ _______ _____ _____    ______ ____
ROOT
ATOM      1  O   UNL     1      -0.384  44.717  17.949  0.00  0.00    +0.000 OA
ATOM      2  O   UNL     1       3.831  42.048  16.076  0.00  0.00    +0.000 OA
ATOM      3  C   UNL     1       0.453  42.713  17.081  0.00  0.00    +0.000 A 
ATOM      4  C   UNL     1       1.545  42.026  16.570  0.00  0.00    +0.000 A 
ATOM      5  C   UNL     1       0.591  44.097  17.546  0.00  0.00    +0.000 C 
ATOM      6  C   UNL     1       2.859  42.672  16.478  0.00  0.00    +0.000 C 
ATOM      7  C   UNL     1       1.936  44.721  17.493  0.00  0.00    +0.000 C 
ATOM      8  C   UNL     1       2.972  44.088  16.905  0.00  0.00    +0.000 C 
ATOM      9  C   UNL     1      -0.792  42.089  17.158  0.00  0.00    +0.000 A 
ATOM     10  C   UNL     1       1.402  40.708  16.137  0.00  0.00    +0.000 A 
ATOM     11  C   UNL     1      -0.937  40.773  16.724  0.00  0.00    +0.000 A 
ATOM     12  C   UNL     1       0.160  40.082  16.214  0.00  0.00    +0.000 A 
ENDROOT
BRANCH   7  13
ATOM     13  O   UNL     1       2.009  46.010  17.990  0.00  0.00    +0.000 OA
ATOM     14  C   UNL     1       2.488  45.980  19.313  0.00  0.00    +0.000 C 
ENDBRANCH   7  13
BRANCH   8  15
ATOM     15  O   UNL     1       4.224  44.655  16.746  0.00  0.00    +0.000 OA
ATOM     16  C   UNL     1       4.276  45.354  15.526  0.00  0.00    +0.000 C 
ENDBRANCH   8  15
TORSDOF 2
ENDMDL
MODEL 9
REMARK VINA RESULT:      -4.6      2.011      3.811
REMARK  Name = 3136_Dimethoxy.pdbqt.pdb
REMARK  2 active torsions:
REMARK  status: ('A' for Active; 'I' for Inactive)
REMARK    1  A    between atoms: C_7  and  O_13
REMARK    2  A    between atoms: C_8  and  O_15
REMARK                            x       y       z     vdW  Elec       q    Type
REMARK                         _______ _______ _______ _____ _____    ______ ____
ROOT
ATOM      1  O   UNL     1      -3.183  62.297   9.630  0.00  0.00    +0.000 OA
ATOM      2  O   UNL     1      -0.014  64.342   5.865  0.00  0.00    +0.000 OA
ATOM      3  C   UNL     1      -1.114  63.250   9.099  0.00  0.00    +0.000 A 
ATOM      4  C   UNL     1      -0.280  63.759   8.114  0.00  0.00    +0.000 A 
ATOM      5  C   UNL     1      -2.468  62.792   8.768  0.00  0.00    +0.000 C 
ATOM      6  C   UNL     1      -0.732  63.845   6.721  0.00  0.00    +0.000 C 
ATOM      7  C   UNL     1      -2.930  62.930   7.365  0.00  0.00    +0.000 C 
ATOM      8  C   UNL     1      -2.085  63.331   6.394  0.00  0.00    +0.000 C 
ATOM      9  C   UNL     1      -0.670  63.169  10.418  0.00  0.00    +0.000 A 
ATOM     10  C   UNL     1       1.004  64.197   8.442  0.00  0.00    +0.000 A 
ATOM     11  C   UNL     1       0.612  63.604  10.748  0.00  0.00    +0.000 A 
ATOM     12  C   UNL     1       1.449  64.118   9.760  0.00  0.00    +0.000 A 
ENDROOT
BRANCH   7  13
ATOM     13  O   UNL     1      -4.231  62.526   7.129  0.00  0.00    +0.000 OA
ATOM     14  C   UNL     1      -5.109  63.600   7.361  0.00  0.00    +0.000 C 
ENDBRANCH   7  13
BRANCH   8  15
ATOM     15  O   UNL     1      -2.432  63.394   5.056  0.00  0.00    +0.000 OA
ATOM     16  C   UNL     1      -2.946  64.671   4.760  0.00  0.00    +0.000 C 
ENDBRANCH   8  15
TORSDOF 2
ENDMDL
