MODEL 1
REMARK VINA RESULT:      -6.4      0.000      0.000
REMARK  Name = 326_Cuminaldehyde.pdb
REMARK  1 active torsions:
REMARK  status: ('A' for Active; 'I' for Inactive)
REMARK    1  A    between atoms: C_1  and  C_7
REMARK                            x       y       z     vdW  Elec       q    Type
REMARK                         _______ _______ _______ _____ _____    ______ ____
ROOT
ATOM      1  C   UNL     1       3.375  29.272  15.447  0.00  0.00    +0.000 C 
ATOM      2  C   UNL     1       3.654  28.159  14.649  0.00  0.00    +0.000 C 
ATOM      3  C   UNL     1       4.427  29.981  16.030  0.00  0.00    +0.000 C 
ATOM      4  C   UNL     1       4.973  27.762  14.434  0.00  0.00    +0.000 C 
ATOM      5  C   UNL     1       5.746  29.583  15.817  0.00  0.00    +0.000 C 
ATOM      6  C   UNL     1       6.017  28.474  15.019  0.00  0.00    +0.000 C 
ATOM      7  O   UNL     1       8.479  27.731  14.621  0.00  0.00    +0.000 OA
ATOM      8  C   UNL     1       7.366  28.067  14.801  0.00  0.00    +0.000 C 
ENDROOT
BRANCH   1   9
ATOM      9  C   UNL     1       1.993  29.688  15.670  0.00  0.00    +0.000 C 
ATOM     10  C   UNL     1       1.664  31.004  16.331  0.00  0.00    +0.000 C 
ATOM     11  C   UNL     1       0.832  28.822  15.251  0.00  0.00    +0.000 C 
ENDBRANCH   1   9
TORSDOF 1
ENDMDL
MODEL 2
REMARK VINA RESULT:      -6.3      3.541      5.735
REMARK  Name = 326_Cuminaldehyde.pdb
REMARK  1 active torsions:
REMARK  status: ('A' for Active; 'I' for Inactive)
REMARK    1  A    between atoms: C_1  and  C_7
REMARK                            x       y       z     vdW  Elec       q    Type
REMARK                         _______ _______ _______ _____ _____    ______ ____
ROOT
ATOM      1  C   UNL     1       2.901  29.550  15.412  0.00  0.00    +0.000 C 
ATOM      2  C   UNL     1       3.093  30.806  15.992  0.00  0.00    +0.000 C 
ATOM      3  C   UNL     1       1.605  29.121  15.115  0.00  0.00    +0.000 C 
ATOM      4  C   UNL     1       2.001  31.626  16.270  0.00  0.00    +0.000 C 
ATOM      5  C   UNL     1       0.512  29.940  15.393  0.00  0.00    +0.000 C 
ATOM      6  C   UNL     1       0.712  31.192  15.971  0.00  0.00    +0.000 C 
ATOM      7  O   UNL     1      -1.328  32.722  16.491  0.00  0.00    +0.000 OA
ATOM      8  C   UNL     1      -0.406  32.030  16.256  0.00  0.00    +0.000 C 
ENDROOT
BRANCH   1   9
ATOM      9  C   UNL     1       4.046  28.692  15.121  0.00  0.00    +0.000 C 
ATOM     10  C   UNL     1       3.876  27.357  14.438  0.00  0.00    +0.000 C 
ATOM     11  C   UNL     1       5.450  29.100  15.489  0.00  0.00    +0.000 C 
ENDBRANCH   1   9
TORSDOF 1
ENDMDL
MODEL 3
REMARK VINA RESULT:      -6.1      1.357      2.385
REMARK  Name = 326_Cuminaldehyde.pdb
REMARK  1 active torsions:
REMARK  status: ('A' for Active; 'I' for Inactive)
REMARK    1  A    between atoms: C_1  and  C_7
REMARK                            x       y       z     vdW  Elec       q    Type
REMARK                         _______ _______ _______ _____ _____    ______ ____
ROOT
ATOM      1  C   UNL     1       1.970  30.255  15.531  0.00  0.00    +0.000 C 
ATOM      2  C   UNL     1       3.147  30.994  15.679  0.00  0.00    +0.000 C 
ATOM      3  C   UNL     1       2.047  28.891  15.244  0.00  0.00    +0.000 C 
ATOM      4  C   UNL     1       4.388  30.374  15.542  0.00  0.00    +0.000 C 
ATOM      5  C   UNL     1       3.287  28.270  15.107  0.00  0.00    +0.000 C 
ATOM      6  C   UNL     1       4.456  29.013  15.256  0.00  0.00    +0.000 C 
ATOM      7  O   UNL     1       6.772  27.854  14.999  0.00  0.00    +0.000 OA
ATOM      8  C   UNL     1       5.725  28.378  15.115  0.00  0.00    +0.000 C 
ENDROOT
BRANCH   1   9
ATOM      9  C   UNL     1       0.671  30.905  15.675  0.00  0.00    +0.000 C 
ATOM     10  C   UNL     1       0.045  31.676  14.539  0.00  0.00    +0.000 C 
ATOM     11  C   UNL     1      -0.106  30.836  16.966  0.00  0.00    +0.000 C 
ENDBRANCH   1   9
TORSDOF 1
ENDMDL
MODEL 4
REMARK VINA RESULT:      -5.7      4.527      6.705
REMARK  Name = 326_Cuminaldehyde.pdb
REMARK  1 active torsions:
REMARK  status: ('A' for Active; 'I' for Inactive)
REMARK    1  A    between atoms: C_1  and  C_7
REMARK                            x       y       z     vdW  Elec       q    Type
REMARK                         _______ _______ _______ _____ _____    ______ ____
ROOT
ATOM      1  C   UNL     1       2.058  31.758  15.749  0.00  0.00    +0.000 C 
ATOM      2  C   UNL     1       1.199  31.055  16.598  0.00  0.00    +0.000 C 
ATOM      3  C   UNL     1       1.522  32.605  14.776  0.00  0.00    +0.000 C 
ATOM      4  C   UNL     1      -0.182  31.200  16.476  0.00  0.00    +0.000 C 
ATOM      5  C   UNL     1       0.141  32.750  14.653  0.00  0.00    +0.000 C 
ATOM      6  C   UNL     1      -0.709  32.046  15.504  0.00  0.00    +0.000 C 
ATOM      7  O   UNL     1      -3.287  32.314  15.274  0.00  0.00    +0.000 OA
ATOM      8  C   UNL     1      -2.122  32.193  15.378  0.00  0.00    +0.000 C 
ENDROOT
BRANCH   1   9
ATOM      9  C   UNL     1       3.505  31.608  15.878  0.00  0.00    +0.000 C 
ATOM     10  C   UNL     1       4.118  30.366  16.476  0.00  0.00    +0.000 C 
ATOM     11  C   UNL     1       4.453  32.687  15.419  0.00  0.00    +0.000 C 
ENDBRANCH   1   9
TORSDOF 1
ENDMDL
MODEL 5
REMARK VINA RESULT:      -5.5      2.226      3.421
REMARK  Name = 326_Cuminaldehyde.pdb
REMARK  1 active torsions:
REMARK  status: ('A' for Active; 'I' for Inactive)
REMARK    1  A    between atoms: C_1  and  C_7
REMARK                            x       y       z     vdW  Elec       q    Type
REMARK                         _______ _______ _______ _____ _____    ______ ____
ROOT
ATOM      1  C   UNL     1       0.665  31.294  15.334  0.00  0.00    +0.000 C 
ATOM      2  C   UNL     1       0.711  29.898  15.354  0.00  0.00    +0.000 C 
ATOM      3  C   UNL     1       1.858  32.021  15.352  0.00  0.00    +0.000 C 
ATOM      4  C   UNL     1       1.937  29.235  15.391  0.00  0.00    +0.000 C 
ATOM      5  C   UNL     1       3.084  31.359  15.390  0.00  0.00    +0.000 C 
ATOM      6  C   UNL     1       3.121  29.966  15.409  0.00  0.00    +0.000 C 
ATOM      7  O   UNL     1       5.410  28.731  15.479  0.00  0.00    +0.000 OA
ATOM      8  C   UNL     1       4.376  29.289  15.447  0.00  0.00    +0.000 C 
ENDROOT
BRANCH   1   9
ATOM      9  C   UNL     1      -0.619  31.987  15.295  0.00  0.00    +0.000 C 
ATOM     10  C   UNL     1      -0.918  33.145  16.214  0.00  0.00    +0.000 C 
ATOM     11  C   UNL     1      -1.706  31.577  14.333  0.00  0.00    +0.000 C 
ENDBRANCH   1   9
TORSDOF 1
ENDMDL
MODEL 6
REMARK VINA RESULT:      -5.5     21.241     21.741
REMARK  Name = 326_Cuminaldehyde.pdb
REMARK  1 active torsions:
REMARK  status: ('A' for Active; 'I' for Inactive)
REMARK    1  A    between atoms: C_1  and  C_7
REMARK                            x       y       z     vdW  Elec       q    Type
REMARK                         _______ _______ _______ _____ _____    ______ ____
ROOT
ATOM      1  C   UNL     1     -14.351  33.906  24.543  0.00  0.00    +0.000 C 
ATOM      2  C   UNL     1     -14.055  32.558  24.764  0.00  0.00    +0.000 C 
ATOM      3  C   UNL     1     -15.166  34.263  23.466  0.00  0.00    +0.000 C 
ATOM      4  C   UNL     1     -14.571  31.578  23.918  0.00  0.00    +0.000 C 
ATOM      5  C   UNL     1     -15.681  33.283  22.619  0.00  0.00    +0.000 C 
ATOM      6  C   UNL     1     -15.382  31.941  22.847  0.00  0.00    +0.000 C 
ATOM      7  O   UNL     1     -16.344  30.112  21.266  0.00  0.00    +0.000 OA
ATOM      8  C   UNL     1     -15.910  30.939  21.980  0.00  0.00    +0.000 C 
ENDROOT
BRANCH   1   9
ATOM      9  C   UNL     1     -13.811  34.932  25.430  0.00  0.00    +0.000 C 
ATOM     10  C   UNL     1     -12.971  34.574  26.631  0.00  0.00    +0.000 C 
ATOM     11  C   UNL     1     -14.068  36.398  25.186  0.00  0.00    +0.000 C 
ENDBRANCH   1   9
TORSDOF 1
ENDMDL
MODEL 7
REMARK VINA RESULT:      -5.4     19.771     21.096
REMARK  Name = 326_Cuminaldehyde.pdb
REMARK  1 active torsions:
REMARK  status: ('A' for Active; 'I' for Inactive)
REMARK    1  A    between atoms: C_1  and  C_7
REMARK                            x       y       z     vdW  Elec       q    Type
REMARK                         _______ _______ _______ _____ _____    ______ ____
ROOT
ATOM      1  C   UNL     1     -15.205  28.331  20.349  0.00  0.00    +0.000 C 
ATOM      2  C   UNL     1     -16.523  27.870  20.399  0.00  0.00    +0.000 C 
ATOM      3  C   UNL     1     -14.695  28.825  19.147  0.00  0.00    +0.000 C 
ATOM      4  C   UNL     1     -17.323  27.905  19.258  0.00  0.00    +0.000 C 
ATOM      5  C   UNL     1     -15.494  28.860  18.005  0.00  0.00    +0.000 C 
ATOM      6  C   UNL     1     -16.808  28.399  18.063  0.00  0.00    +0.000 C 
ATOM      7  O   UNL     1     -18.300  28.463  15.932  0.00  0.00    +0.000 OA
ATOM      8  C   UNL     1     -17.626  28.434  16.895  0.00  0.00    +0.000 C 
ENDROOT
BRANCH   1   9
ATOM      9  C   UNL     1     -14.368  28.296  21.545  0.00  0.00    +0.000 C 
ATOM     10  C   UNL     1     -14.333  29.449  22.517  0.00  0.00    +0.000 C 
ATOM     11  C   UNL     1     -13.500  27.104  21.863  0.00  0.00    +0.000 C 
ENDBRANCH   1   9
TORSDOF 1
ENDMDL
MODEL 8
REMARK VINA RESULT:      -5.4     19.243     21.645
REMARK  Name = 326_Cuminaldehyde.pdb
REMARK  1 active torsions:
REMARK  status: ('A' for Active; 'I' for Inactive)
REMARK    1  A    between atoms: C_1  and  C_7
REMARK                            x       y       z     vdW  Elec       q    Type
REMARK                         _______ _______ _______ _____ _____    ______ ____
ROOT
ATOM      1  C   UNL     1     -15.828  28.427  19.140  0.00  0.00    +0.000 C 
ATOM      2  C   UNL     1     -15.460  28.824  17.852  0.00  0.00    +0.000 C 
ATOM      3  C   UNL     1     -17.135  27.996  19.380  0.00  0.00    +0.000 C 
ATOM      4  C   UNL     1     -16.390  28.788  16.814  0.00  0.00    +0.000 C 
ATOM      5  C   UNL     1     -18.065  27.961  18.342  0.00  0.00    +0.000 C 
ATOM      6  C   UNL     1     -17.691  28.357  17.060  0.00  0.00    +0.000 C 
ATOM      7  O   UNL     1     -19.427  28.292  15.123  0.00  0.00    +0.000 OA
ATOM      8  C   UNL     1     -18.642  28.321  15.999  0.00  0.00    +0.000 C 
ENDROOT
BRANCH   1   9
ATOM      9  C   UNL     1     -14.854  28.463  20.227  0.00  0.00    +0.000 C 
ATOM     10  C   UNL     1     -13.392  28.730  19.967  0.00  0.00    +0.000 C 
ATOM     11  C   UNL     1     -15.265  28.236  21.660  0.00  0.00    +0.000 C 
ENDBRANCH   1   9
TORSDOF 1
ENDMDL
MODEL 9
REMARK VINA RESULT:      -5.2     32.390     34.216
REMARK  Name = 326_Cuminaldehyde.pdb
REMARK  1 active torsions:
REMARK  status: ('A' for Active; 'I' for Inactive)
REMARK    1  A    between atoms: C_1  and  C_7
REMARK                            x       y       z     vdW  Elec       q    Type
REMARK                         _______ _______ _______ _____ _____    ______ ____
ROOT
ATOM      1  C   UNL     1      -2.202  61.446  10.273  0.00  0.00    +0.000 C 
ATOM      2  C   UNL     1      -1.450  62.612  10.429  0.00  0.00    +0.000 C 
ATOM      3  C   UNL     1      -2.407  60.925   8.993  0.00  0.00    +0.000 C 
ATOM      4  C   UNL     1      -0.906  63.251   9.315  0.00  0.00    +0.000 C 
ATOM      5  C   UNL     1      -1.865  61.564   7.879  0.00  0.00    +0.000 C 
ATOM      6  C   UNL     1      -1.115  62.727   8.042  0.00  0.00    +0.000 C 
ATOM      7  O   UNL     1      -0.102  63.920   5.964  0.00  0.00    +0.000 OA
ATOM      8  C   UNL     1      -0.560  63.381   6.903  0.00  0.00    +0.000 C 
ENDROOT
BRANCH   1   9
ATOM      9  C   UNL     1      -2.771  60.776  11.440  0.00  0.00    +0.000 C 
ATOM     10  C   UNL     1      -2.520  61.282  12.838  0.00  0.00    +0.000 C 
ATOM     11  C   UNL     1      -3.635  59.549  11.299  0.00  0.00    +0.000 C 
ENDBRANCH   1   9
TORSDOF 1
ENDMDL
