MODEL 1
REMARK VINA RESULT:      -5.9      0.000      0.000
REMARK  Name = 3363_5FluorouracilDeoxyriboside.pdbqt.pdb
REMARK  4 active torsions:
REMARK  status: ('A' for Active; 'I' for Inactive)
REMARK    1  A    between atoms: N_4  and  C1*_13
REMARK    2  A    between atoms: C3*_12  and  O3*_16
REMARK    3  A    between atoms: C4*_15  and  C5*_18
REMARK    4  A    between atoms: C5*_18  and  O5*_19
REMARK                            x       y       z     vdW  Elec       q    Type
REMARK                         _______ _______ _______ _____ _____    ______ ____
ROOT
ATOM      1  F   UNL     1      -0.663  46.488   8.857  0.00  0.00    +0.000 F 
ATOM      2  O   UNL     1      -5.609  45.793   6.721  0.00  0.00    +0.000 OA
ATOM      3  O   UNL     1      -1.100  46.338   6.066  0.00  0.00    +0.000 OA
ATOM      4  N   UNL     1      -4.202  45.780   8.629  0.00  0.00    +0.000 N 
ATOM      5  N   UNL     1      -3.342  45.979   6.450  0.00  0.00    +0.000 N 
ATOM      6  C   UNL     1      -4.504  45.840   7.247  0.00  0.00    +0.000 C 
ATOM      7  C   UNL     1      -2.902  45.858   8.978  0.00  0.00    +0.000 C 
ATOM      8  C   UNL     1      -1.792  45.982   8.333  0.00  0.00    +0.000 C 
ATOM      9  C   UNL     1      -2.008  46.114   6.856  0.00  0.00    +0.000 C 
ATOM     10  H   UNL     1      -3.511  46.067   5.458  0.00  0.00    +0.000 HD
ENDROOT
BRANCH   4  13
ATOM     11  O4* UNL     1      -5.641  46.770  10.303  0.00  0.00    +0.000 OA
ATOM     12  C3* UNL     1      -6.672  44.854  11.100  0.00  0.00    +0.000 A 
ATOM     13  C1* UNL     1      -5.143  45.658   9.612  0.00  0.00    +0.000 A 
ATOM     14  C2* UNL     1      -5.771  44.489  10.084  0.00  0.00    +0.000 A 
ATOM     15  C4* UNL     1      -6.583  46.289  11.220  0.00  0.00    +0.000 A 
BRANCH  12  16
ATOM     16  O3* UNL     1      -7.831  44.176  11.359  0.00  0.00    +0.000 OA
ATOM     17  H3* UNL     1      -8.036  43.522  10.667  0.00  0.00    +0.000 HD
ENDBRANCH  12  16
BRANCH  15  18
ATOM     18  C5* UNL     1      -7.430  47.143  11.953  0.00  0.00    +0.000 C 
BRANCH  18  19
ATOM     19  O5* UNL     1      -8.233  47.933  12.657  0.00  0.00    +0.000 OA
ATOM     20  H5* UNL     1      -8.771  48.490  12.067  0.00  0.00    +0.000 HD
ENDBRANCH  18  19
ENDBRANCH  15  18
ENDBRANCH   4  13
TORSDOF 4
ENDMDL
MODEL 2
REMARK VINA RESULT:      -5.6      2.499      2.766
REMARK  Name = 3363_5FluorouracilDeoxyriboside.pdbqt.pdb
REMARK  4 active torsions:
REMARK  status: ('A' for Active; 'I' for Inactive)
REMARK    1  A    between atoms: N_4  and  C1*_13
REMARK    2  A    between atoms: C3*_12  and  O3*_16
REMARK    3  A    between atoms: C4*_15  and  C5*_18
REMARK    4  A    between atoms: C5*_18  and  O5*_19
REMARK                            x       y       z     vdW  Elec       q    Type
REMARK                         _______ _______ _______ _____ _____    ______ ____
ROOT
ATOM      1  F   UNL     1      -1.637  48.582   8.517  0.00  0.00    +0.000 F 
ATOM      2  O   UNL     1      -5.110  44.423   8.912  0.00  0.00    +0.000 OA
ATOM      3  O   UNL     1      -2.033  46.735   6.411  0.00  0.00    +0.000 OA
ATOM      4  N   UNL     1      -3.914  46.176   9.968  0.00  0.00    +0.000 N 
ATOM      5  N   UNL     1      -3.503  45.559   7.737  0.00  0.00    +0.000 N 
ATOM      6  C   UNL     1      -4.261  45.307   8.906  0.00  0.00    +0.000 C 
ATOM      7  C   UNL     1      -2.946  47.084   9.728  0.00  0.00    +0.000 C 
ATOM      8  C   UNL     1      -2.209  47.382   8.712  0.00  0.00    +0.000 C 
ATOM      9  C   UNL     1      -2.542  46.553   7.510  0.00  0.00    +0.000 C 
ATOM     10  H   UNL     1      -3.745  44.989   6.939  0.00  0.00    +0.000 HD
ENDROOT
BRANCH   4  13
ATOM     11  O4* UNL     1      -3.820  45.703  12.339  0.00  0.00    +0.000 OA
ATOM     12  C3* UNL     1      -5.962  46.348  12.941  0.00  0.00    +0.000 A 
ATOM     13  C1* UNL     1      -4.502  46.150  11.201  0.00  0.00    +0.000 A 
ATOM     14  C2* UNL     1      -5.803  46.552  11.559  0.00  0.00    +0.000 A 
ATOM     15  C4* UNL     1      -4.707  45.819  13.416  0.00  0.00    +0.000 A 
BRANCH  12  16
ATOM     16  O3* UNL     1      -6.768  47.120  13.731  0.00  0.00    +0.000 OA
ATOM     17  H3* UNL     1      -7.382  47.665  13.206  0.00  0.00    +0.000 HD
ENDBRANCH  12  16
BRANCH  15  18
ATOM     18  C5* UNL     1      -4.300  45.644  14.753  0.00  0.00    +0.000 C 
BRANCH  18  19
ATOM     19  O5* UNL     1      -3.899  45.469  16.008  0.00  0.00    +0.000 OA
ATOM     20  H5* UNL     1      -3.960  44.531  16.260  0.00  0.00    +0.000 HD
ENDBRANCH  18  19
ENDBRANCH  15  18
ENDBRANCH   4  13
TORSDOF 4
ENDMDL
MODEL 3
REMARK VINA RESULT:      -5.5      1.975      2.055
REMARK  Name = 3363_5FluorouracilDeoxyriboside.pdbqt.pdb
REMARK  4 active torsions:
REMARK  status: ('A' for Active; 'I' for Inactive)
REMARK    1  A    between atoms: N_4  and  C1*_13
REMARK    2  A    between atoms: C3*_12  and  O3*_16
REMARK    3  A    between atoms: C4*_15  and  C5*_18
REMARK    4  A    between atoms: C5*_18  and  O5*_19
REMARK                            x       y       z     vdW  Elec       q    Type
REMARK                         _______ _______ _______ _____ _____    ______ ____
ROOT
ATOM      1  F   UNL     1      -1.660  48.598   8.501  0.00  0.00    +0.000 F 
ATOM      2  O   UNL     1      -5.110  44.421   8.909  0.00  0.00    +0.000 OA
ATOM      3  O   UNL     1      -2.004  46.709   6.423  0.00  0.00    +0.000 OA
ATOM      4  N   UNL     1      -3.947  46.202   9.955  0.00  0.00    +0.000 N 
ATOM      5  N   UNL     1      -3.490  45.547   7.744  0.00  0.00    +0.000 N 
ATOM      6  C   UNL     1      -4.268  45.311   8.903  0.00  0.00    +0.000 C 
ATOM      7  C   UNL     1      -2.981  47.113   9.716  0.00  0.00    +0.000 C 
ATOM      8  C   UNL     1      -2.228  47.398   8.709  0.00  0.00    +0.000 C 
ATOM      9  C   UNL     1      -2.532  46.544   7.516  0.00  0.00    +0.000 C 
ATOM     10  H   UNL     1      -3.712  44.960   6.952  0.00  0.00    +0.000 HD
ENDROOT
BRANCH   4  13
ATOM     11  O4* UNL     1      -5.833  46.744  11.370  0.00  0.00    +0.000 OA
ATOM     12  C3* UNL     1      -5.061  45.884  13.379  0.00  0.00    +0.000 A 
ATOM     13  C1* UNL     1      -4.559  46.195  11.176  0.00  0.00    +0.000 A 
ATOM     14  C2* UNL     1      -4.086  45.662  12.391  0.00  0.00    +0.000 A 
ATOM     15  C4* UNL     1      -6.153  46.559  12.721  0.00  0.00    +0.000 A 
BRANCH  12  16
ATOM     16  O3* UNL     1      -5.262  45.049  14.442  0.00  0.00    +0.000 OA
ATOM     17  H3* UNL     1      -4.523  44.426  14.564  0.00  0.00    +0.000 HD
ENDBRANCH  12  16
BRANCH  15  18
ATOM     18  C5* UNL     1      -7.440  46.813  13.234  0.00  0.00    +0.000 C 
BRANCH  18  19
ATOM     19  O5* UNL     1      -8.653  47.033  13.729  0.00  0.00    +0.000 OA
ATOM     20  H5* UNL     1      -9.328  46.959  13.032  0.00  0.00    +0.000 HD
ENDBRANCH  18  19
ENDBRANCH  15  18
ENDBRANCH   4  13
TORSDOF 4
ENDMDL
MODEL 4
REMARK VINA RESULT:      -5.4     22.443     23.514
REMARK  Name = 3363_5FluorouracilDeoxyriboside.pdbqt.pdb
REMARK  4 active torsions:
REMARK  status: ('A' for Active; 'I' for Inactive)
REMARK    1  A    between atoms: N_4  and  C1*_13
REMARK    2  A    between atoms: C3*_12  and  O3*_16
REMARK    3  A    between atoms: C4*_15  and  C5*_18
REMARK    4  A    between atoms: C5*_18  and  O5*_19
REMARK                            x       y       z     vdW  Elec       q    Type
REMARK                         _______ _______ _______ _____ _____    ______ ____
ROOT
ATOM      1  F   UNL     1     -15.099  30.085  21.038  0.00  0.00    +0.000 F 
ATOM      2  O   UNL     1     -15.728  30.355  26.427  0.00  0.00    +0.000 OA
ATOM      3  O   UNL     1     -15.942  27.866  22.578  0.00  0.00    +0.000 OA
ATOM      4  N   UNL     1     -14.917  31.335  24.426  0.00  0.00    +0.000 N 
ATOM      5  N   UNL     1     -15.734  29.131  24.490  0.00  0.00    +0.000 N 
ATOM      6  C   UNL     1     -15.470  30.310  25.230  0.00  0.00    +0.000 C 
ATOM      7  C   UNL     1     -14.725  31.057  23.121  0.00  0.00    +0.000 C 
ATOM      8  C   UNL     1     -14.930  30.029  22.370  0.00  0.00    +0.000 C 
ATOM      9  C   UNL     1     -15.571  28.900  23.118  0.00  0.00    +0.000 C 
ATOM     10  H   UNL     1     -16.166  28.384  25.014  0.00  0.00    +0.000 HD
ENDROOT
BRANCH   4  13
ATOM     11  O4* UNL     1     -15.468  33.658  24.822  0.00  0.00    +0.000 OA
ATOM     12  C3* UNL     1     -13.497  34.351  25.824  0.00  0.00    +0.000 A 
ATOM     13  C1* UNL     1     -14.582  32.575  24.893  0.00  0.00    +0.000 A 
ATOM     14  C2* UNL     1     -13.385  32.985  25.509  0.00  0.00    +0.000 A 
ATOM     15  C4* UNL     1     -14.812  34.756  25.391  0.00  0.00    +0.000 A 
BRANCH  12  16
ATOM     16  O3* UNL     1     -12.876  34.932  26.894  0.00  0.00    +0.000 OA
ATOM     17  H3* UNL     1     -12.194  35.571  26.620  0.00  0.00    +0.000 HD
ENDBRANCH  12  16
BRANCH  15  18
ATOM     18  C5* UNL     1     -15.472  35.970  25.669  0.00  0.00    +0.000 C 
BRANCH  18  19
ATOM     19  O5* UNL     1     -16.111  37.106  25.922  0.00  0.00    +0.000 OA
ATOM     20  H5* UNL     1     -16.000  37.734  25.187  0.00  0.00    +0.000 HD
ENDBRANCH  18  19
ENDBRANCH  15  18
ENDBRANCH   4  13
TORSDOF 4
ENDMDL
MODEL 5
REMARK VINA RESULT:      -5.3     23.195     24.888
REMARK  Name = 3363_5FluorouracilDeoxyriboside.pdbqt.pdb
REMARK  4 active torsions:
REMARK  status: ('A' for Active; 'I' for Inactive)
REMARK    1  A    between atoms: N_4  and  C1*_13
REMARK    2  A    between atoms: C3*_12  and  O3*_16
REMARK    3  A    between atoms: C4*_15  and  C5*_18
REMARK    4  A    between atoms: C5*_18  and  O5*_19
REMARK                            x       y       z     vdW  Elec       q    Type
REMARK                         _______ _______ _______ _____ _____    ______ ____
ROOT
ATOM      1  F   UNL     1       2.229  23.834   0.530  0.00  0.00    +0.000 F 
ATOM      2  O   UNL     1       3.889  24.755  -4.560  0.00  0.00    +0.000 OA
ATOM      3  O   UNL     1       4.211  22.254  -0.725  0.00  0.00    +0.000 OA
ATOM      4  N   UNL     1       2.327  25.176  -2.826  0.00  0.00    +0.000 N 
ATOM      5  N   UNL     1       3.949  23.482  -2.655  0.00  0.00    +0.000 N 
ATOM      6  C   UNL     1       3.409  24.517  -3.458  0.00  0.00    +0.000 C 
ATOM      7  C   UNL     1       1.975  24.743  -1.599  0.00  0.00    +0.000 C 
ATOM      8  C   UNL     1       2.399  23.822  -0.802  0.00  0.00    +0.000 C 
ATOM      9  C   UNL     1       3.589  23.099  -1.356  0.00  0.00    +0.000 C 
ATOM     10  H   UNL     1       4.750  23.009  -3.048  0.00  0.00    +0.000 HD
ENDROOT
BRANCH   4  13
ATOM     11  O4* UNL     1       0.290  26.104  -3.744  0.00  0.00    +0.000 OA
ATOM     12  C3* UNL     1       1.030  28.246  -4.226  0.00  0.00    +0.000 A 
ATOM     13  C1* UNL     1       1.638  26.217  -3.381  0.00  0.00    +0.000 A 
ATOM     14  C2* UNL     1       2.094  27.519  -3.663  0.00  0.00    +0.000 A 
ATOM     15  C4* UNL     1      -0.096  27.345  -4.265  0.00  0.00    +0.000 A 
BRANCH  12  16
ATOM     16  O3* UNL     1       0.873  29.595  -4.072  0.00  0.00    +0.000 OA
ATOM     17  H3* UNL     1       1.459  30.103  -4.663  0.00  0.00    +0.000 HD
ENDBRANCH  12  16
BRANCH  15  18
ATOM     18  C5* UNL     1      -1.438  27.661  -4.552  0.00  0.00    +0.000 C 
BRANCH  18  19
ATOM     19  O5* UNL     1      -2.709  27.956  -4.802  0.00  0.00    +0.000 OA
ATOM     20  H5* UNL     1      -3.281  27.656  -4.074  0.00  0.00    +0.000 HD
ENDBRANCH  18  19
ENDBRANCH  15  18
ENDBRANCH   4  13
TORSDOF 4
ENDMDL
MODEL 6
REMARK VINA RESULT:      -5.1      6.415      7.499
REMARK  Name = 3363_5FluorouracilDeoxyriboside.pdbqt.pdb
REMARK  4 active torsions:
REMARK  status: ('A' for Active; 'I' for Inactive)
REMARK    1  A    between atoms: N_4  and  C1*_13
REMARK    2  A    between atoms: C3*_12  and  O3*_16
REMARK    3  A    between atoms: C4*_15  and  C5*_18
REMARK    4  A    between atoms: C5*_18  and  O5*_19
REMARK                            x       y       z     vdW  Elec       q    Type
REMARK                         _______ _______ _______ _____ _____    ______ ____
ROOT
ATOM      1  F   UNL     1      -0.998  44.162  15.824  0.00  0.00    +0.000 F 
ATOM      2  O   UNL     1      -1.804  39.347  13.440  0.00  0.00    +0.000 OA
ATOM      3  O   UNL     1       1.023  42.188  15.676  0.00  0.00    +0.000 OA
ATOM      4  N   UNL     1      -2.707  41.366  14.292  0.00  0.00    +0.000 N 
ATOM      5  N   UNL     1      -0.460  40.766  14.635  0.00  0.00    +0.000 N 
ATOM      6  C   UNL     1      -1.701  40.399  14.060  0.00  0.00    +0.000 C 
ATOM      7  C   UNL     1      -2.358  42.459  15.002  0.00  0.00    +0.000 C 
ATOM      8  C   UNL     1      -1.271  42.873  15.560  0.00  0.00    +0.000 C 
ATOM      9  C   UNL     1      -0.122  41.941  15.320  0.00  0.00    +0.000 C 
ATOM     10  H   UNL     1       0.300  40.124  14.461  0.00  0.00    +0.000 HD
ENDROOT
BRANCH   4  13
ATOM     11  O4* UNL     1      -4.428  41.936  12.690  0.00  0.00    +0.000 OA
ATOM     12  C3* UNL     1      -6.182  40.695  13.557  0.00  0.00    +0.000 A 
ATOM     13  C1* UNL     1      -3.990  41.259  13.836  0.00  0.00    +0.000 A 
ATOM     14  C2* UNL     1      -5.048  40.495  14.364  0.00  0.00    +0.000 A 
ATOM     15  C4* UNL     1      -5.774  41.597  12.508  0.00  0.00    +0.000 A 
BRANCH  12  16
ATOM     16  O3* UNL     1      -7.145  39.745  13.362  0.00  0.00    +0.000 OA
ATOM     17  H3* UNL     1      -6.862  38.866  13.670  0.00  0.00    +0.000 HD
ENDBRANCH  12  16
BRANCH  15  18
ATOM     18  C5* UNL     1      -6.489  41.938  11.343  0.00  0.00    +0.000 C 
BRANCH  18  19
ATOM     19  O5* UNL     1      -7.162  42.240  10.237  0.00  0.00    +0.000 OA
ATOM     20  H5* UNL     1      -7.491  43.155  10.275  0.00  0.00    +0.000 HD
ENDBRANCH  18  19
ENDBRANCH  15  18
ENDBRANCH   4  13
TORSDOF 4
ENDMDL
MODEL 7
REMARK VINA RESULT:      -4.7     21.849     23.321
REMARK  Name = 3363_5FluorouracilDeoxyriboside.pdbqt.pdb
REMARK  4 active torsions:
REMARK  status: ('A' for Active; 'I' for Inactive)
REMARK    1  A    between atoms: N_4  and  C1*_13
REMARK    2  A    between atoms: C3*_12  and  O3*_16
REMARK    3  A    between atoms: C4*_15  and  C5*_18
REMARK    4  A    between atoms: C5*_18  and  O5*_19
REMARK                            x       y       z     vdW  Elec       q    Type
REMARK                         _______ _______ _______ _____ _____    ______ ____
ROOT
ATOM      1  F   UNL     1      17.492  54.428   6.240  0.00  0.00    +0.000 F 
ATOM      2  O   UNL     1      13.842  58.415   5.695  0.00  0.00    +0.000 OA
ATOM      3  O   UNL     1      16.834  56.179   8.362  0.00  0.00    +0.000 OA
ATOM      4  N   UNL     1      15.209  56.763   4.685  0.00  0.00    +0.000 N 
ATOM      5  N   UNL     1      15.411  57.323   6.959  0.00  0.00    +0.000 N 
ATOM      6  C   UNL     1      14.734  57.576   5.741  0.00  0.00    +0.000 C 
ATOM      7  C   UNL     1      16.202  55.897   4.974  0.00  0.00    +0.000 C 
ATOM      8  C   UNL     1      16.873  55.603   6.036  0.00  0.00    +0.000 C 
ATOM      9  C   UNL     1      16.403  56.372   7.232  0.00  0.00    +0.000 C 
ATOM     10  H   UNL     1      15.078  57.852   7.752  0.00  0.00    +0.000 HD
ENDROOT
BRANCH   4  13
ATOM     11  O4* UNL     1      13.989  55.736   2.866  0.00  0.00    +0.000 OA
ATOM     12  C3* UNL     1      14.153  57.429   1.293  0.00  0.00    +0.000 A 
ATOM     13  C1* UNL     1      14.718  56.800   3.411  0.00  0.00    +0.000 A 
ATOM     14  C2* UNL     1      14.815  57.838   2.464  0.00  0.00    +0.000 A 
ATOM     15  C4* UNL     1      13.636  56.110   1.564  0.00  0.00    +0.000 A 
BRANCH  12  16
ATOM     16  O3* UNL     1      13.524  58.293   0.441  0.00  0.00    +0.000 OA
ATOM     17  H3* UNL     1      14.004  59.135   0.351  0.00  0.00    +0.000 HD
ENDBRANCH  12  16
BRANCH  15  18
ATOM     18  C5* UNL     1      12.731  55.365   0.782  0.00  0.00    +0.000 C 
BRANCH  18  19
ATOM     19  O5* UNL     1      11.888  54.668   0.027  0.00  0.00    +0.000 OA
ATOM     20  H5* UNL     1      11.220  54.225   0.578  0.00  0.00    +0.000 HD
ENDBRANCH  18  19
ENDBRANCH  15  18
ENDBRANCH   4  13
TORSDOF 4
ENDMDL
MODEL 8
REMARK VINA RESULT:      -4.6      4.349      5.717
REMARK  Name = 3363_5FluorouracilDeoxyriboside.pdbqt.pdb
REMARK  4 active torsions:
REMARK  status: ('A' for Active; 'I' for Inactive)
REMARK    1  A    between atoms: N_4  and  C1*_13
REMARK    2  A    between atoms: C3*_12  and  O3*_16
REMARK    3  A    between atoms: C4*_15  and  C5*_18
REMARK    4  A    between atoms: C5*_18  and  O5*_19
REMARK                            x       y       z     vdW  Elec       q    Type
REMARK                         _______ _______ _______ _____ _____    ______ ____
ROOT
ATOM      1  F   UNL     1      -4.425  46.650  10.872  0.00  0.00    +0.000 F 
ATOM      2  O   UNL     1      -6.614  41.679  10.966  0.00  0.00    +0.000 OA
ATOM      3  O   UNL     1      -5.373  45.369   8.535  0.00  0.00    +0.000 OA
ATOM      4  N   UNL     1      -5.397  43.382  12.079  0.00  0.00    +0.000 N 
ATOM      5  N   UNL     1      -5.896  43.506   9.785  0.00  0.00    +0.000 N 
ATOM      6  C   UNL     1      -6.017  42.749  10.975  0.00  0.00    +0.000 C 
ATOM      7  C   UNL     1      -4.801  44.570  11.851  0.00  0.00    +0.000 C 
ATOM      8  C   UNL     1      -4.641  45.325  10.818  0.00  0.00    +0.000 C 
ATOM      9  C   UNL     1      -5.315  44.768   9.601  0.00  0.00    +0.000 C 
ATOM     10  H   UNL     1      -6.359  43.112   8.978  0.00  0.00    +0.000 HD
ENDROOT
BRANCH   4  13
ATOM     11  O4* UNL     1      -4.589  41.761  13.683  0.00  0.00    +0.000 OA
ATOM     12  C3* UNL     1      -5.741  42.477  15.562  0.00  0.00    +0.000 A 
ATOM     13  C1* UNL     1      -5.379  42.867  13.344  0.00  0.00    +0.000 A 
ATOM     14  C2* UNL     1      -6.076  43.315  14.483  0.00  0.00    +0.000 A 
ATOM     15  C4* UNL     1      -4.803  41.511  15.044  0.00  0.00    +0.000 A 
BRANCH  12  16
ATOM     16  O3* UNL     1      -5.702  42.900  16.861  0.00  0.00    +0.000 OA
ATOM     17  H3* UNL     1      -5.653  43.870  16.930  0.00  0.00    +0.000 HD
ENDBRANCH  12  16
BRANCH  15  18
ATOM     18  C5* UNL     1      -4.025  40.592  15.775  0.00  0.00    +0.000 C 
BRANCH  18  19
ATOM     19  O5* UNL     1      -3.306  39.725  16.480  0.00  0.00    +0.000 OA
ATOM     20  H5* UNL     1      -3.668  38.826  16.391  0.00  0.00    +0.000 HD
ENDBRANCH  18  19
ENDBRANCH  15  18
ENDBRANCH   4  13
TORSDOF 4
ENDMDL
MODEL 9
REMARK VINA RESULT:      -4.4      7.950     10.365
REMARK  Name = 3363_5FluorouracilDeoxyriboside.pdbqt.pdb
REMARK  4 active torsions:
REMARK  status: ('A' for Active; 'I' for Inactive)
REMARK    1  A    between atoms: N_4  and  C1*_13
REMARK    2  A    between atoms: C3*_12  and  O3*_16
REMARK    3  A    between atoms: C4*_15  and  C5*_18
REMARK    4  A    between atoms: C5*_18  and  O5*_19
REMARK                            x       y       z     vdW  Elec       q    Type
REMARK                         _______ _______ _______ _____ _____    ______ ____
ROOT
ATOM      1  F   UNL     1      -8.876  40.469  17.559  0.00  0.00    +0.000 F 
ATOM      2  O   UNL     1      -4.574  43.761  17.967  0.00  0.00    +0.000 OA
ATOM      3  O   UNL     1      -8.484  42.181  19.777  0.00  0.00    +0.000 OA
ATOM      4  N   UNL     1      -5.648  41.950  16.878  0.00  0.00    +0.000 N 
ATOM      5  N   UNL     1      -6.485  42.877  18.869  0.00  0.00    +0.000 N 
ATOM      6  C   UNL     1      -5.469  42.928  17.885  0.00  0.00    +0.000 C 
ATOM      7  C   UNL     1      -6.718  41.138  16.993  0.00  0.00    +0.000 C 
ATOM      8  C   UNL     1      -7.682  41.017  17.841  0.00  0.00    +0.000 C 
ATOM      9  C   UNL     1      -7.616  42.051  18.923  0.00  0.00    +0.000 C 
ATOM     10  H   UNL     1      -6.421  43.583  19.588  0.00  0.00    +0.000 HD
ENDROOT
BRANCH   4  13
ATOM     11  O4* UNL     1      -3.421  41.876  15.935  0.00  0.00    +0.000 OA
ATOM     12  C3* UNL     1      -3.958  41.440  13.723  0.00  0.00    +0.000 A 
ATOM     13  C1* UNL     1      -4.814  41.794  15.807  0.00  0.00    +0.000 A 
ATOM     14  C2* UNL     1      -5.148  41.520  14.467  0.00  0.00    +0.000 A 
ATOM     15  C4* UNL     1      -2.883  41.660  14.660  0.00  0.00    +0.000 A 
BRANCH  12  16
ATOM     16  O3* UNL     1      -3.808  40.643  12.623  0.00  0.00    +0.000 OA
ATOM     17  H3* UNL     1      -4.562  40.038  12.503  0.00  0.00    +0.000 HD
ENDBRANCH  12  16
BRANCH  15  18
ATOM     18  C5* UNL     1      -1.503  41.477  14.443  0.00  0.00    +0.000 C 
BRANCH  18  19
ATOM     19  O5* UNL     1      -0.206  41.302  14.217  0.00  0.00    +0.000 OA
ATOM     20  H5* UNL     1       0.006  41.469  13.282  0.00  0.00    +0.000 HD
ENDBRANCH  18  19
ENDBRANCH  15  18
ENDBRANCH   4  13
TORSDOF 4
ENDMDL
