MODEL 1
REMARK VINA RESULT:      -4.6      0.000      0.000
REMARK  Name = 3385_5Fluorouracil.pdbqt.pdb
REMARK  0 active torsions:
REMARK  status: ('A' for Active; 'I' for Inactive)
REMARK                            x       y       z     vdW  Elec       q    Type
REMARK                         _______ _______ _______ _____ _____    ______ ____
ROOT
ATOM      1  F   UNL     1       2.519  29.078  15.572  0.00  0.00    +0.000 F 
ATOM      2  O   UNL     1       3.347  27.176  13.643  0.00  0.00    +0.000 OA
ATOM      3  O   UNL     1       7.764  27.982  14.701  0.00  0.00    +0.000 OA
ATOM      4  N   UNL     1       5.550  27.634  14.128  0.00  0.00    +0.000 N 
ATOM      5  N   UNL     1       6.120  29.273  15.669  0.00  0.00    +0.000 N 
ATOM      6  C   UNL     1       4.171  27.864  14.234  0.00  0.00    +0.000 C 
ATOM      7  C   UNL     1       6.584  28.277  14.823  0.00  0.00    +0.000 C 
ATOM      8  C   UNL     1       3.788  29.003  15.136  0.00  0.00    +0.000 C 
ATOM      9  C   UNL     1       4.805  29.521  15.738  0.00  0.00    +0.000 C 
ATOM     10  H   UNL     1       5.829  26.875  13.525  0.00  0.00    +0.000 HD
ATOM     11  H   UNL     1       6.789  29.795  16.222  0.00  0.00    +0.000 HD
ENDROOT
TORSDOF 0
ENDMDL
MODEL 2
REMARK VINA RESULT:      -4.3      2.788      4.151
REMARK  Name = 3385_5Fluorouracil.pdbqt.pdb
REMARK  0 active torsions:
REMARK  status: ('A' for Active; 'I' for Inactive)
REMARK                            x       y       z     vdW  Elec       q    Type
REMARK                         _______ _______ _______ _____ _____    ______ ____
ROOT
ATOM      1  F   UNL     1       5.398  27.254  14.262  0.00  0.00    +0.000 F 
ATOM      2  O   UNL     1       5.213  29.622  15.807  0.00  0.00    +0.000 OA
ATOM      3  O   UNL     1       0.616  29.536  15.440  0.00  0.00    +0.000 OA
ATOM      4  N   UNL     1       2.925  29.610  15.561  0.00  0.00    +0.000 N 
ATOM      5  N   UNL     1       1.867  27.994  14.273  0.00  0.00    +0.000 N 
ATOM      6  C   UNL     1       4.216  29.138  15.285  0.00  0.00    +0.000 C 
ATOM      7  C   UNL     1       1.704  29.085  15.114  0.00  0.00    +0.000 C 
ATOM      8  C   UNL     1       4.275  27.989  14.319  0.00  0.00    +0.000 C 
ATOM      9  C   UNL     1       3.104  27.570  13.976  0.00  0.00    +0.000 C 
ATOM     10  H   UNL     1       2.862  30.383  16.207  0.00  0.00    +0.000 HD
ATOM     11  H   UNL     1       1.045  27.538  13.899  0.00  0.00    +0.000 HD
ENDROOT
TORSDOF 0
ENDMDL
MODEL 3
REMARK VINA RESULT:      -4.2     22.204     22.639
REMARK  Name = 3385_5Fluorouracil.pdbqt.pdb
REMARK  0 active torsions:
REMARK  status: ('A' for Active; 'I' for Inactive)
REMARK                            x       y       z     vdW  Elec       q    Type
REMARK                         _______ _______ _______ _____ _____    ______ ____
ROOT
ATOM      1  F   UNL     1     -12.716  34.456  26.882  0.00  0.00    +0.000 F 
ATOM      2  O   UNL     1     -13.793  36.773  25.658  0.00  0.00    +0.000 OA
ATOM      3  O   UNL     1     -15.865  34.160  22.470  0.00  0.00    +0.000 OA
ATOM      4  N   UNL     1     -14.767  35.467  24.031  0.00  0.00    +0.000 N 
ATOM      5  N   UNL     1     -14.443  33.169  23.988  0.00  0.00    +0.000 N 
ATOM      6  C   UNL     1     -13.932  35.671  25.140  0.00  0.00    +0.000 C 
ATOM      7  C   UNL     1     -15.090  34.252  23.411  0.00  0.00    +0.000 C 
ATOM      8  C   UNL     1     -13.242  34.437  25.646  0.00  0.00    +0.000 C 
ATOM      9  C   UNL     1     -13.613  33.370  25.021  0.00  0.00    +0.000 C 
ATOM     10  H   UNL     1     -15.239  36.284  23.674  0.00  0.00    +0.000 HD
ATOM     11  H   UNL     1     -14.614  32.243  23.616  0.00  0.00    +0.000 HD
ENDROOT
TORSDOF 0
ENDMDL
MODEL 4
REMARK VINA RESULT:      -4.1      9.898     10.353
REMARK  Name = 3385_5Fluorouracil.pdbqt.pdb
REMARK  0 active torsions:
REMARK  status: ('A' for Active; 'I' for Inactive)
REMARK                            x       y       z     vdW  Elec       q    Type
REMARK                         _______ _______ _______ _____ _____    ______ ____
ROOT
ATOM      1  F   UNL     1       5.505  19.567   8.981  0.00  0.00    +0.000 F 
ATOM      2  O   UNL     1       4.649  19.169  11.652  0.00  0.00    +0.000 OA
ATOM      3  O   UNL     1       0.466  20.793  10.583  0.00  0.00    +0.000 OA
ATOM      4  N   UNL     1       2.586  20.045  11.127  0.00  0.00    +0.000 N 
ATOM      5  N   UNL     1       2.140  20.866   9.002  0.00  0.00    +0.000 N 
ATOM      6  C   UNL     1       3.923  19.732  10.841  0.00  0.00    +0.000 C 
ATOM      7  C   UNL     1       1.628  20.591  10.262  0.00  0.00    +0.000 C 
ATOM      8  C   UNL     1       4.383  20.124   9.466  0.00  0.00    +0.000 C 
ATOM      9  C   UNL     1       3.429  20.606   8.743  0.00  0.00    +0.000 C 
ATOM     10  H   UNL     1       2.256  19.791  12.047  0.00  0.00    +0.000 HD
ATOM     11  H   UNL     1       1.525  21.259   8.300  0.00  0.00    +0.000 HD
ENDROOT
TORSDOF 0
ENDMDL
MODEL 5
REMARK VINA RESULT:      -4.0     18.918     19.568
REMARK  Name = 3385_5Fluorouracil.pdbqt.pdb
REMARK  0 active torsions:
REMARK  status: ('A' for Active; 'I' for Inactive)
REMARK                            x       y       z     vdW  Elec       q    Type
REMARK                         _______ _______ _______ _____ _____    ______ ____
ROOT
ATOM      1  F   UNL     1      12.426  47.909  10.047  0.00  0.00    +0.000 F 
ATOM      2  O   UNL     1      13.686  46.064  11.789  0.00  0.00    +0.000 OA
ATOM      3  O   UNL     1      13.293  42.747   8.607  0.00  0.00    +0.000 OA
ATOM      4  N   UNL     1      13.424  44.398  10.223  0.00  0.00    +0.000 N 
ATOM      5  N   UNL     1      12.321  44.800   8.220  0.00  0.00    +0.000 N 
ATOM      6  C   UNL     1      13.215  45.692  10.721  0.00  0.00    +0.000 C 
ATOM      7  C   UNL     1      13.030  43.881   8.980  0.00  0.00    +0.000 C 
ATOM      8  C   UNL     1      12.388  46.583   9.837  0.00  0.00    +0.000 C 
ATOM      9  C   UNL     1      12.086  46.023   8.714  0.00  0.00    +0.000 C 
ATOM     10  H   UNL     1      13.976  43.782  10.802  0.00  0.00    +0.000 HD
ATOM     11  H   UNL     1      11.996  44.526   7.302  0.00  0.00    +0.000 HD
ENDROOT
TORSDOF 0
ENDMDL
MODEL 6
REMARK VINA RESULT:      -3.9      4.336      5.151
REMARK  Name = 3385_5Fluorouracil.pdbqt.pdb
REMARK  0 active torsions:
REMARK  status: ('A' for Active; 'I' for Inactive)
REMARK                            x       y       z     vdW  Elec       q    Type
REMARK                         _______ _______ _______ _____ _____    ______ ____
ROOT
ATOM      1  F   UNL     1       4.329  30.070  14.730  0.00  0.00    +0.000 F 
ATOM      2  O   UNL     1       1.816  29.434  15.873  0.00  0.00    +0.000 OA
ATOM      3  O   UNL     1       1.019  33.905  16.680  0.00  0.00    +0.000 OA
ATOM      4  N   UNL     1       1.456  31.660  16.335  0.00  0.00    +0.000 N 
ATOM      5  N   UNL     1       3.071  33.258  15.856  0.00  0.00    +0.000 N 
ATOM      6  C   UNL     1       2.243  30.582  15.904  0.00  0.00    +0.000 C 
ATOM      7  C   UNL     1       1.786  33.023  16.324  0.00  0.00    +0.000 C 
ATOM      8  C   UNL     1       3.635  30.948  15.472  0.00  0.00    +0.000 C 
ATOM      9  C   UNL     1       3.838  32.223  15.485  0.00  0.00    +0.000 C 
ATOM     10  H   UNL     1       0.518  31.436  16.631  0.00  0.00    +0.000 HD
ATOM     11  H   UNL     1       3.405  34.212  15.804  0.00  0.00    +0.000 HD
ENDROOT
TORSDOF 0
ENDMDL
MODEL 7
REMARK VINA RESULT:      -3.8     14.305     14.932
REMARK  Name = 3385_5Fluorouracil.pdbqt.pdb
REMARK  0 active torsions:
REMARK  status: ('A' for Active; 'I' for Inactive)
REMARK                            x       y       z     vdW  Elec       q    Type
REMARK                         _______ _______ _______ _____ _____    ______ ____
ROOT
ATOM      1  F   UNL     1      -6.549  22.456   4.376  0.00  0.00    +0.000 F 
ATOM      2  O   UNL     1      -5.463  25.010   4.942  0.00  0.00    +0.000 OA
ATOM      3  O   UNL     1      -1.249  23.496   3.832  0.00  0.00    +0.000 OA
ATOM      4  N   UNL     1      -3.354  24.228   4.453  0.00  0.00    +0.000 N 
ATOM      5  N   UNL     1      -3.003  22.004   3.889  0.00  0.00    +0.000 N 
ATOM      6  C   UNL     1      -4.730  24.066   4.672  0.00  0.00    +0.000 C 
ATOM      7  C   UNL     1      -2.430  23.258   4.042  0.00  0.00    +0.000 C 
ATOM      8  C   UNL     1      -5.230  22.657   4.532  0.00  0.00    +0.000 C 
ATOM      9  C   UNL     1      -4.310  21.841   4.140  0.00  0.00    +0.000 C 
ATOM     10  H   UNL     1      -2.996  25.167   4.544  0.00  0.00    +0.000 HD
ATOM     11  H   UNL     1      -2.420  21.233   3.589  0.00  0.00    +0.000 HD
ENDROOT
TORSDOF 0
ENDMDL
MODEL 8
REMARK VINA RESULT:      -3.8     23.023     23.976
REMARK  Name = 3385_5Fluorouracil.pdbqt.pdb
REMARK  0 active torsions:
REMARK  status: ('A' for Active; 'I' for Inactive)
REMARK                            x       y       z     vdW  Elec       q    Type
REMARK                         _______ _______ _______ _____ _____    ______ ____
ROOT
ATOM      1  F   UNL     1     -14.349  33.403  23.605  0.00  0.00    +0.000 F 
ATOM      2  O   UNL     1     -13.077  35.829  24.327  0.00  0.00    +0.000 OA
ATOM      3  O   UNL     1     -16.845  37.152  26.636  0.00  0.00    +0.000 OA
ATOM      4  N   UNL     1     -14.985  36.512  25.418  0.00  0.00    +0.000 N 
ATOM      5  N   UNL     1     -16.904  35.206  25.404  0.00  0.00    +0.000 N 
ATOM      6  C   UNL     1     -14.257  35.639  24.597  0.00  0.00    +0.000 C 
ATOM      7  C   UNL     1     -16.298  36.358  25.883  0.00  0.00    +0.000 C 
ATOM      8  C   UNL     1     -15.029  34.454  24.093  0.00  0.00    +0.000 C 
ATOM      9  C   UNL     1     -16.221  34.394  24.585  0.00  0.00    +0.000 C 
ATOM     10  H   UNL     1     -14.485  37.316  25.767  0.00  0.00    +0.000 HD
ATOM     11  H   UNL     1     -17.854  35.000  25.686  0.00  0.00    +0.000 HD
ENDROOT
TORSDOF 0
ENDMDL
MODEL 9
REMARK VINA RESULT:      -3.7     19.948     20.634
REMARK  Name = 3385_5Fluorouracil.pdbqt.pdb
REMARK  0 active torsions:
REMARK  status: ('A' for Active; 'I' for Inactive)
REMARK                            x       y       z     vdW  Elec       q    Type
REMARK                         _______ _______ _______ _____ _____    ______ ____
ROOT
ATOM      1  F   UNL     1      15.682  46.995  11.327  0.00  0.00    +0.000 F 
ATOM      2  O   UNL     1      14.019  44.771  11.885  0.00  0.00    +0.000 OA
ATOM      3  O   UNL     1      10.743  46.495   9.132  0.00  0.00    +0.000 OA
ATOM      4  N   UNL     1      12.362  45.672  10.565  0.00  0.00    +0.000 N 
ATOM      5  N   UNL     1      12.630  47.746   9.557  0.00  0.00    +0.000 N 
ATOM      6  C   UNL     1      13.599  45.714  11.223  0.00  0.00    +0.000 C 
ATOM      7  C   UNL     1      11.816  46.632   9.701  0.00  0.00    +0.000 C 
ATOM      8  C   UNL     1      14.370  46.990  11.040  0.00  0.00    +0.000 C 
ATOM      9  C   UNL     1      13.793  47.803  10.221  0.00  0.00    +0.000 C 
ATOM     10  H   UNL     1      11.827  44.823  10.676  0.00  0.00    +0.000 HD
ATOM     11  H   UNL     1      12.328  48.496   8.948  0.00  0.00    +0.000 HD
ENDROOT
TORSDOF 0
ENDMDL
