MODEL 1
REMARK VINA RESULT:      -7.0      0.000      0.000
REMARK  Name = 342374_SipholenolA.pdbqt.pdb
REMARK  5 active torsions:
REMARK  status: ('A' for Active; 'I' for Inactive)
REMARK    1  A    between atoms: C_3  and  C_20
REMARK    2  A    between atoms: C_4  and  O_16
REMARK    3  A    between atoms: C_13  and  O_18
REMARK    4  A    between atoms: C_21  and  C_25
REMARK    5  A    between atoms: C_26  and  O_36
REMARK                            x       y       z     vdW  Elec       q    Type
REMARK                         _______ _______ _______ _____ _____    ______ ____
ROOT
ATOM      1  O   UNL     1     -16.071  41.310  11.423  0.00  0.00    +0.000 OA
ATOM      2  C   UNL     1     -16.572  39.783   9.364  0.00  0.00    +0.000 C 
ATOM      3  C   UNL     1     -15.930  38.848   8.336  0.00  0.00    +0.000 C 
ATOM      4  C   UNL     1     -14.611  39.229   7.686  0.00  0.00    +0.000 C 
ATOM      5  C   UNL     1     -15.590  40.593  10.322  0.00  0.00    +0.000 C 
ATOM      6  C   UNL     1     -17.354  39.009  10.340  0.00  0.00    +0.000 C 
ATOM      7  C   UNL     1     -13.954  40.225   8.510  0.00  0.00    +0.000 C 
ATOM      8  C   UNL     1     -14.333  40.916   9.776  0.00  0.00    +0.000 C 
ATOM      9  C   UNL     1     -17.478  40.812   8.634  0.00  0.00    +0.000 C 
ATOM     10  C   UNL     1     -17.655  38.934  11.817  0.00  0.00    +0.000 C 
ATOM     11  C   UNL     1     -16.049  40.683  12.747  0.00  0.00    +0.000 C 
ATOM     12  C   UNL     1     -13.721  37.994   7.481  0.00  0.00    +0.000 C 
ATOM     13  C   UNL     1     -17.206  39.658  12.943  0.00  0.00    +0.000 C 
ATOM     14  C   UNL     1     -14.699  39.961  13.028  0.00  0.00    +0.000 C 
ATOM     15  C   UNL     1     -16.259  41.817  13.794  0.00  0.00    +0.000 C 
ENDROOT
BRANCH   4  16
ATOM     16  O   UNL     1     -14.844  39.749   6.402  0.00  0.00    +0.000 OA
ATOM     17  H   UNL     1     -15.653  40.271   6.551  0.00  0.00    +0.000 HD
ENDBRANCH   4  16
BRANCH  13  18
ATOM     18  O   UNL     1     -17.818  39.440  14.173  0.00  0.00    +0.000 OA
ATOM     19  H   UNL     1     -18.762  39.704  14.154  0.00  0.00    +0.000 HD
ENDBRANCH  13  18
BRANCH   3  20
ATOM     20  C   UNL     1     -16.684  37.736   7.815  0.00  0.00    +0.000 C 
ATOM     21  C   UNL     1     -17.473  36.550   7.254  0.00  0.00    +0.000 C 
BRANCH  21  25
ATOM     22  C   UNL     1     -17.550  32.956   7.296  0.00  0.00    +0.000 C 
ATOM     23  C   UNL     1     -18.494  34.163   7.553  0.00  0.00    +0.000 C 
ATOM     24  C   UNL     1     -17.350  32.277   5.973  0.00  0.00    +0.000 C 
ATOM     25  C   UNL     1     -18.204  35.435   6.722  0.00  0.00    +0.000 C 
ATOM     26  C   UNL     1     -16.701  30.904   6.100  0.00  0.00    +0.000 C 
ATOM     27  C   UNL     1     -17.036  32.052   8.274  0.00  0.00    +0.000 C 
ATOM     28  C   UNL     1     -16.541  30.831   7.548  0.00  0.00    +0.000 C 
ATOM     29  C   UNL     1     -17.737  32.987   4.822  0.00  0.00    +0.000 C 
ATOM     30  C   UNL     1     -18.542  35.460   5.299  0.00  0.00    +0.000 C 
ATOM     31  C   UNL     1     -18.391  34.533   9.080  0.00  0.00    +0.000 C 
ATOM     32  C   UNL     1     -19.968  33.689   7.311  0.00  0.00    +0.000 C 
ATOM     33  C   UNL     1     -18.263  34.385   4.632  0.00  0.00    +0.000 C 
ATOM     34  C   UNL     1     -15.415  30.791   5.294  0.00  0.00    +0.000 C 
ATOM     35  C   UNL     1     -18.745  36.724   4.506  0.00  0.00    +0.000 C 
BRANCH  26  36
ATOM     36  O   UNL     1     -17.574  29.906   5.637  0.00  0.00    +0.000 OA
ATOM     37  H   UNL     1     -17.264  29.802   4.720  0.00  0.00    +0.000 HD
ENDBRANCH  26  36
ENDBRANCH  21  25
ENDBRANCH   3  20
TORSDOF 5
ENDMDL
MODEL 2
REMARK VINA RESULT:      -6.8     31.109     34.424
REMARK  Name = 342374_SipholenolA.pdbqt.pdb
REMARK  5 active torsions:
REMARK  status: ('A' for Active; 'I' for Inactive)
REMARK    1  A    between atoms: C_3  and  C_20
REMARK    2  A    between atoms: C_4  and  O_16
REMARK    3  A    between atoms: C_13  and  O_18
REMARK    4  A    between atoms: C_21  and  C_25
REMARK    5  A    between atoms: C_26  and  O_36
REMARK                            x       y       z     vdW  Elec       q    Type
REMARK                         _______ _______ _______ _____ _____    ______ ____
ROOT
ATOM      1  O   UNL     1      -2.125  60.401  -6.469  0.00  0.00    +0.000 OA
ATOM      2  C   UNL     1       0.004  59.099  -7.240  0.00  0.00    +0.000 C 
ATOM      3  C   UNL     1       1.115  59.063  -8.292  0.00  0.00    +0.000 C 
ATOM      4  C   UNL     1       0.781  59.308  -9.754  0.00  0.00    +0.000 C 
ATOM      5  C   UNL     1      -1.177  60.143  -7.466  0.00  0.00    +0.000 C 
ATOM      6  C   UNL     1       0.541  59.547  -5.946  0.00  0.00    +0.000 C 
ATOM      7  C   UNL     1      -0.494  59.995  -9.834  0.00  0.00    +0.000 C 
ATOM      8  C   UNL     1      -1.480  60.442  -8.808  0.00  0.00    +0.000 C 
ATOM      9  C   UNL     1      -0.630  57.688  -7.106  0.00  0.00    +0.000 C 
ATOM     10  C   UNL     1       0.205  60.434  -4.772  0.00  0.00    +0.000 C 
ATOM     11  C   UNL     1      -1.936  61.555  -5.587  0.00  0.00    +0.000 C 
ATOM     12  C   UNL     1       1.894  60.108 -10.447  0.00  0.00    +0.000 C 
ATOM     13  C   UNL     1      -0.877  61.290  -4.475  0.00  0.00    +0.000 C 
ATOM     14  C   UNL     1      -1.513  62.829  -6.376  0.00  0.00    +0.000 C 
ATOM     15  C   UNL     1      -3.296  61.813  -4.873  0.00  0.00    +0.000 C 
ENDROOT
BRANCH   4  16
ATOM     16  O   UNL     1       0.708  58.083 -10.439  0.00  0.00    +0.000 OA
ATOM     17  H   UNL     1      -0.164  58.155 -10.867  0.00  0.00    +0.000 HD
ENDBRANCH   4  16
BRANCH  13  18
ATOM     18  O   UNL     1      -0.964  61.851  -3.204  0.00  0.00    +0.000 OA
ATOM     19  H   UNL     1      -1.748  62.434  -3.123  0.00  0.00    +0.000 HD
ENDBRANCH  13  18
BRANCH   3  20
ATOM     20  C   UNL     1       2.420  58.568  -7.935  0.00  0.00    +0.000 C 
ATOM     21  C   UNL     1       3.799  58.027  -7.548  0.00  0.00    +0.000 C 
BRANCH  21  25
ATOM     22  C   UNL     1       7.310  58.685  -7.953  0.00  0.00    +0.000 C 
ATOM     23  C   UNL     1       6.276  58.438  -6.821  0.00  0.00    +0.000 C 
ATOM     24  C   UNL     1       8.104  57.619  -8.651  0.00  0.00    +0.000 C 
ATOM     25  C   UNL     1       5.088  57.514  -7.181  0.00  0.00    +0.000 C 
ATOM     26  C   UNL     1       9.305  58.171  -9.408  0.00  0.00    +0.000 C 
ATOM     27  C   UNL     1       7.971  59.914  -8.252  0.00  0.00    +0.000 C 
ATOM     28  C   UNL     1       9.162  59.592  -9.113  0.00  0.00    +0.000 C 
ATOM     29  C   UNL     1       7.630  56.298  -8.554  0.00  0.00    +0.000 C 
ATOM     30  C   UNL     1       5.308  56.073  -7.310  0.00  0.00    +0.000 C 
ATOM     31  C   UNL     1       5.701  59.838  -6.385  0.00  0.00    +0.000 C 
ATOM     32  C   UNL     1       7.040  57.867  -5.578  0.00  0.00    +0.000 C 
ATOM     33  C   UNL     1       6.389  55.718  -7.929  0.00  0.00    +0.000 C 
ATOM     34  C   UNL     1       9.280  57.806 -10.886  0.00  0.00    +0.000 C 
ATOM     35  C   UNL     1       4.215  55.044  -7.195  0.00  0.00    +0.000 C 
BRANCH  26  36
ATOM     36  O   UNL     1      10.498  57.661  -8.872  0.00  0.00    +0.000 OA
ATOM     37  H   UNL     1      11.028  57.543  -9.680  0.00  0.00    +0.000 HD
ENDBRANCH  26  36
ENDBRANCH  21  25
ENDBRANCH   3  20
TORSDOF 5
ENDMDL
MODEL 3
REMARK VINA RESULT:      -6.8     27.352     30.578
REMARK  Name = 342374_SipholenolA.pdbqt.pdb
REMARK  5 active torsions:
REMARK  status: ('A' for Active; 'I' for Inactive)
REMARK    1  A    between atoms: C_3  and  C_20
REMARK    2  A    between atoms: C_4  and  O_16
REMARK    3  A    between atoms: C_13  and  O_18
REMARK    4  A    between atoms: C_21  and  C_25
REMARK    5  A    between atoms: C_26  and  O_36
REMARK                            x       y       z     vdW  Elec       q    Type
REMARK                         _______ _______ _______ _____ _____    ______ ____
ROOT
ATOM      1  O   UNL     1      11.741  27.547  15.771  0.00  0.00    +0.000 OA
ATOM      2  C   UNL     1      10.612  29.635  16.861  0.00  0.00    +0.000 C 
ATOM      3  C   UNL     1      10.714  30.629  18.021  0.00  0.00    +0.000 C 
ATOM      4  C   UNL     1      11.055  30.131  19.415  0.00  0.00    +0.000 C 
ATOM      5  C   UNL     1      11.610  28.395  16.877  0.00  0.00    +0.000 C 
ATOM      6  C   UNL     1      10.984  30.288  15.596  0.00  0.00    +0.000 C 
ATOM      7  C   UNL     1      11.680  28.828  19.307  0.00  0.00    +0.000 C 
ATOM      8  C   UNL     1      11.996  27.938  18.152  0.00  0.00    +0.000 C 
ATOM      9  C   UNL     1       9.164  29.080  16.780  0.00  0.00    +0.000 C 
ATOM     10  C   UNL     1      11.759  30.041  14.325  0.00  0.00    +0.000 C 
ATOM     11  C   UNL     1      12.831  27.781  14.820  0.00  0.00    +0.000 C 
ATOM     12  C   UNL     1      11.961  31.130  20.150  0.00  0.00    +0.000 C 
ATOM     13  C   UNL     1      12.534  28.962  13.848  0.00  0.00    +0.000 C 
ATOM     14  C   UNL     1      14.182  28.063  15.540  0.00  0.00    +0.000 C 
ATOM     15  C   UNL     1      12.963  26.495  13.952  0.00  0.00    +0.000 C 
ENDROOT
BRANCH   4  16
ATOM     16  O   UNL     1       9.885  30.038  20.188  0.00  0.00    +0.000 OA
ATOM     17  H   UNL     1      10.073  30.679  20.897  0.00  0.00    +0.000 HD
ENDBRANCH   4  16
BRANCH  13  18
ATOM     18  O   UNL     1      12.989  28.987  12.533  0.00  0.00    +0.000 OA
ATOM     19  H   UNL     1      13.963  29.093  12.494  0.00  0.00    +0.000 HD
ENDBRANCH  13  18
BRANCH   3  20
ATOM     20  C   UNL     1      10.259  31.984  17.841  0.00  0.00    +0.000 C 
ATOM     21  C   UNL     1       9.762  33.421  17.659  0.00  0.00    +0.000 C 
BRANCH  21  25
ATOM     22  C   UNL     1      10.707  36.581  16.231  0.00  0.00    +0.000 C 
ATOM     23  C   UNL     1       9.525  35.574  16.196  0.00  0.00    +0.000 C 
ATOM     24  C   UNL     1      10.843  37.725  17.194  0.00  0.00    +0.000 C 
ATOM     25  C   UNL     1       9.288  34.766  17.494  0.00  0.00    +0.000 C 
ATOM     26  C   UNL     1      11.864  38.764  16.744  0.00  0.00    +0.000 C 
ATOM     27  C   UNL     1      11.625  36.858  15.174  0.00  0.00    +0.000 C 
ATOM     28  C   UNL     1      12.301  38.164  15.489  0.00  0.00    +0.000 C 
ATOM     29  C   UNL     1      10.068  37.673  18.367  0.00  0.00    +0.000 C 
ATOM     30  C   UNL     1       8.702  35.428  18.660  0.00  0.00    +0.000 C 
ATOM     31  C   UNL     1       9.799  34.559  15.023  0.00  0.00    +0.000 C 
ATOM     32  C   UNL     1       8.225  36.358  15.809  0.00  0.00    +0.000 C 
ATOM     33  C   UNL     1       9.144  36.619  18.916  0.00  0.00    +0.000 C 
ATOM     34  C   UNL     1      12.959  38.989  17.777  0.00  0.00    +0.000 C 
ATOM     35  C   UNL     1       8.009  34.699  19.780  0.00  0.00    +0.000 C 
BRANCH  26  36
ATOM     36  O   UNL     1      11.237  40.001  16.523  0.00  0.00    +0.000 OA
ATOM     37  H   UNL     1      12.002  40.603  16.555  0.00  0.00    +0.000 HD
ENDBRANCH  26  36
ENDBRANCH  21  25
ENDBRANCH   3  20
TORSDOF 5
ENDMDL
MODEL 4
REMARK VINA RESULT:      -6.6      5.824     11.810
REMARK  Name = 342374_SipholenolA.pdbqt.pdb
REMARK  5 active torsions:
REMARK  status: ('A' for Active; 'I' for Inactive)
REMARK    1  A    between atoms: C_3  and  C_20
REMARK    2  A    between atoms: C_4  and  O_16
REMARK    3  A    between atoms: C_13  and  O_18
REMARK    4  A    between atoms: C_21  and  C_25
REMARK    5  A    between atoms: C_26  and  O_36
REMARK                            x       y       z     vdW  Elec       q    Type
REMARK                         _______ _______ _______ _____ _____    ______ ____
ROOT
ATOM      1  O   UNL     1     -15.957  39.411  11.359  0.00  0.00    +0.000 OA
ATOM      2  C   UNL     1     -13.471  39.348  12.158  0.00  0.00    +0.000 C 
ATOM      3  C   UNL     1     -12.038  39.718  11.765  0.00  0.00    +0.000 C 
ATOM      4  C   UNL     1     -11.552  39.459  10.350  0.00  0.00    +0.000 C 
ATOM      5  C   UNL     1     -14.597  39.522  11.046  0.00  0.00    +0.000 C 
ATOM      6  C   UNL     1     -13.962  40.253  13.209  0.00  0.00    +0.000 C 
ATOM      7  C   UNL     1     -12.701  39.316   9.478  0.00  0.00    +0.000 C 
ATOM      8  C   UNL     1     -14.173  39.346   9.714  0.00  0.00    +0.000 C 
ATOM      9  C   UNL     1     -13.510  37.875  12.647  0.00  0.00    +0.000 C 
ATOM     10  C   UNL     1     -15.193  41.022  13.623  0.00  0.00    +0.000 C 
ATOM     11  C   UNL     1     -16.728  40.627  11.626  0.00  0.00    +0.000 C 
ATOM     12  C   UNL     1     -10.620  40.583   9.872  0.00  0.00    +0.000 C 
ATOM     13  C   UNL     1     -16.473  41.196  13.054  0.00  0.00    +0.000 C 
ATOM     14  C   UNL     1     -16.427  41.749  10.589  0.00  0.00    +0.000 C 
ATOM     15  C   UNL     1     -18.235  40.240  11.550  0.00  0.00    +0.000 C 
ENDROOT
BRANCH   4  16
ATOM     16  O   UNL     1     -10.779  38.285  10.319  0.00  0.00    +0.000 OA
ATOM     17  H   UNL     1      -9.993  38.561  10.823  0.00  0.00    +0.000 HD
ENDBRANCH   4  16
BRANCH  13  18
ATOM     18  O   UNL     1     -17.455  41.851  13.790  0.00  0.00    +0.000 OA
ATOM     19  H   UNL     1     -17.502  41.509  14.708  0.00  0.00    +0.000 HD
ENDBRANCH  13  18
BRANCH   3  20
ATOM     20  C   UNL     1     -11.092  40.086  12.787  0.00  0.00    +0.000 C 
ATOM     21  C   UNL     1     -10.076  40.465  13.869  0.00  0.00    +0.000 C 
BRANCH  21  25
ATOM     22  C   UNL     1      -9.611  42.682  16.659  0.00  0.00    +0.000 C 
ATOM     23  C   UNL     1      -9.537  41.167  16.328  0.00  0.00    +0.000 C 
ATOM     24  C   UNL     1      -8.470  43.651  16.548  0.00  0.00    +0.000 C 
ATOM     25  C   UNL     1      -9.120  40.811  14.881  0.00  0.00    +0.000 C 
ATOM     26  C   UNL     1      -8.714  44.948  17.310  0.00  0.00    +0.000 C 
ATOM     27  C   UNL     1     -10.588  43.332  17.471  0.00  0.00    +0.000 C 
ATOM     28  C   UNL     1     -10.038  44.677  17.857  0.00  0.00    +0.000 C 
ATOM     29  C   UNL     1      -7.377  43.268  15.749  0.00  0.00    +0.000 C 
ATOM     30  C   UNL     1      -7.726  40.980  14.470  0.00  0.00    +0.000 C 
ATOM     31  C   UNL     1     -10.960  40.549  16.600  0.00  0.00    +0.000 C 
ATOM     32  C   UNL     1      -8.559  40.491  17.348  0.00  0.00    +0.000 C 
ATOM     33  C   UNL     1      -7.141  42.061  14.880  0.00  0.00    +0.000 C 
ATOM     34  C   UNL     1      -8.616  46.176  16.415  0.00  0.00    +0.000 C 
ATOM     35  C   UNL     1      -7.104  40.268  13.298  0.00  0.00    +0.000 C 
BRANCH  26  36
ATOM     36  O   UNL     1      -7.764  45.100  18.332  0.00  0.00    +0.000 OA
ATOM     37  H   UNL     1      -8.298  44.874  19.114  0.00  0.00    +0.000 HD
ENDBRANCH  26  36
ENDBRANCH  21  25
ENDBRANCH   3  20
TORSDOF 5
ENDMDL
MODEL 5
REMARK VINA RESULT:      -6.6     28.042     31.149
REMARK  Name = 342374_SipholenolA.pdbqt.pdb
REMARK  5 active torsions:
REMARK  status: ('A' for Active; 'I' for Inactive)
REMARK    1  A    between atoms: C_3  and  C_20
REMARK    2  A    between atoms: C_4  and  O_16
REMARK    3  A    between atoms: C_13  and  O_18
REMARK    4  A    between atoms: C_21  and  C_25
REMARK    5  A    between atoms: C_26  and  O_36
REMARK                            x       y       z     vdW  Elec       q    Type
REMARK                         _______ _______ _______ _____ _____    ______ ____
ROOT
ATOM      1  O   UNL     1      13.002  26.951  13.423  0.00  0.00    +0.000 OA
ATOM      2  C   UNL     1      11.683  28.248  15.267  0.00  0.00    +0.000 C 
ATOM      3  C   UNL     1      11.706  28.663  16.741  0.00  0.00    +0.000 C 
ATOM      4  C   UNL     1      12.133  27.662  17.801  0.00  0.00    +0.000 C 
ATOM      5  C   UNL     1      12.808  27.231  14.781  0.00  0.00    +0.000 C 
ATOM      6  C   UNL     1      11.952  29.410  14.405  0.00  0.00    +0.000 C 
ATOM      7  C   UNL     1      12.891  26.602  17.167  0.00  0.00    +0.000 C 
ATOM      8  C   UNL     1      13.273  26.323  15.752  0.00  0.00    +0.000 C 
ATOM      9  C   UNL     1      10.302  27.626  14.925  0.00  0.00    +0.000 C 
ATOM     10  C   UNL     1      12.718  29.808  13.168  0.00  0.00    +0.000 C 
ATOM     11  C   UNL     1      14.038  27.680  12.686  0.00  0.00    +0.000 C 
ATOM     12  C   UNL     1      12.945  28.347  18.911  0.00  0.00    +0.000 C 
ATOM     13  C   UNL     1      13.592  29.122  12.298  0.00  0.00    +0.000 C 
ATOM     14  C   UNL     1      15.368  27.775  13.489  0.00  0.00    +0.000 C 
ATOM     15  C   UNL     1      14.286  26.904  11.359  0.00  0.00    +0.000 C 
ENDROOT
BRANCH   4  16
ATOM     16  O   UNL     1      10.998  27.125  18.434  0.00  0.00    +0.000 OA
ATOM     17  H   UNL     1      10.602  27.925  18.825  0.00  0.00    +0.000 HD
ENDBRANCH   4  16
BRANCH  13  18
ATOM     18  O   UNL     1      14.010  29.749  11.128  0.00  0.00    +0.000 OA
ATOM     19  H   UNL     1      13.780  29.219  10.336  0.00  0.00    +0.000 HD
ENDBRANCH  13  18
BRANCH   3  20
ATOM     20  C   UNL     1      11.104  29.909  17.140  0.00  0.00    +0.000 C 
ATOM     21  C   UNL     1      10.473  31.233  17.578  0.00  0.00    +0.000 C 
BRANCH  21  25
ATOM     22  C   UNL     1      10.037  34.641  16.521  0.00  0.00    +0.000 C 
ATOM     23  C   UNL     1       9.187  33.436  17.007  0.00  0.00    +0.000 C 
ATOM     24  C   UNL     1      10.644  35.689  17.408  0.00  0.00    +0.000 C 
ATOM     25  C   UNL     1       9.885  32.473  17.998  0.00  0.00    +0.000 C 
ATOM     26  C   UNL     1      11.064  36.942  16.648  0.00  0.00    +0.000 C 
ATOM     27  C   UNL     1      10.065  35.189  15.204  0.00  0.00    +0.000 C 
ATOM     28  C   UNL     1      10.672  36.562  15.295  0.00  0.00    +0.000 C 
ATOM     29  C   UNL     1      10.780  35.375  18.772  0.00  0.00    +0.000 C 
ATOM     30  C   UNL     1      10.100  32.894  19.382  0.00  0.00    +0.000 C 
ATOM     31  C   UNL     1       8.754  32.612  15.736  0.00  0.00    +0.000 C 
ATOM     32  C   UNL     1       7.867  33.994  17.643  0.00  0.00    +0.000 C 
ATOM     33  C   UNL     1      10.499  34.116  19.547  0.00  0.00    +0.000 C 
ATOM     34  C   UNL     1      12.540  37.267  16.832  0.00  0.00    +0.000 C 
ATOM     35  C   UNL     1      10.326  31.939  20.524  0.00  0.00    +0.000 C 
BRANCH  26  36
ATOM     36  O   UNL     1      10.332  38.053  17.095  0.00  0.00    +0.000 OA
ATOM     37  H   UNL     1       9.459  37.650  17.244  0.00  0.00    +0.000 HD
ENDBRANCH  26  36
ENDBRANCH  21  25
ENDBRANCH   3  20
TORSDOF 5
ENDMDL
MODEL 6
REMARK VINA RESULT:      -6.1      5.752      9.229
REMARK  Name = 342374_SipholenolA.pdbqt.pdb
REMARK  5 active torsions:
REMARK  status: ('A' for Active; 'I' for Inactive)
REMARK    1  A    between atoms: C_3  and  C_20
REMARK    2  A    between atoms: C_4  and  O_16
REMARK    3  A    between atoms: C_13  and  O_18
REMARK    4  A    between atoms: C_21  and  C_25
REMARK    5  A    between atoms: C_26  and  O_36
REMARK                            x       y       z     vdW  Elec       q    Type
REMARK                         _______ _______ _______ _____ _____    ______ ____
ROOT
ATOM      1  O   UNL     1     -15.262  46.998   4.739  0.00  0.00    +0.000 OA
ATOM      2  C   UNL     1     -13.867  45.528   6.387  0.00  0.00    +0.000 C 
ATOM      3  C   UNL     1     -13.604  45.245   7.869  0.00  0.00    +0.000 C 
ATOM      4  C   UNL     1     -13.478  46.399   8.848  0.00  0.00    +0.000 C 
ATOM      5  C   UNL     1     -14.794  46.775   6.040  0.00  0.00    +0.000 C 
ATOM      6  C   UNL     1     -14.630  44.424   5.784  0.00  0.00    +0.000 C 
ATOM      7  C   UNL     1     -14.091  47.577   8.267  0.00  0.00    +0.000 C 
ATOM      8  C   UNL     1     -14.749  47.844   6.955  0.00  0.00    +0.000 C 
ATOM      9  C   UNL     1     -12.515  45.722   5.649  0.00  0.00    +0.000 C 
ATOM     10  C   UNL     1     -15.767  44.161   4.828  0.00  0.00    +0.000 C 
ATOM     11  C   UNL     1     -16.601  46.528   4.374  0.00  0.00    +0.000 C 
ATOM     12  C   UNL     1     -14.113  46.045  10.202  0.00  0.00    +0.000 C 
ATOM     13  C   UNL     1     -16.642  44.995   4.099  0.00  0.00    +0.000 C 
ATOM     14  C   UNL     1     -17.655  46.859   5.471  0.00  0.00    +0.000 C 
ATOM     15  C   UNL     1     -16.990  47.243   3.046  0.00  0.00    +0.000 C 
ENDROOT
BRANCH   4  16
ATOM     16  O   UNL     1     -12.121  46.650   9.118  0.00  0.00    +0.000 OA
ATOM     17  H   UNL     1     -11.853  47.131   8.315  0.00  0.00    +0.000 HD
ENDBRANCH   4  16
BRANCH  13  18
ATOM     18  O   UNL     1     -17.493  44.421   3.159  0.00  0.00    +0.000 OA
ATOM     19  H   UNL     1     -17.590  44.993   2.368  0.00  0.00    +0.000 HD
ENDBRANCH  13  18
BRANCH   3  20
ATOM     20  C   UNL     1     -13.245  43.914   8.287  0.00  0.00    +0.000 C 
ATOM     21  C   UNL     1     -12.878  42.495   8.730  0.00  0.00    +0.000 C 
BRANCH  21  25
ATOM     22  C   UNL     1     -14.179  39.726  10.618  0.00  0.00    +0.000 C 
ATOM     23  C   UNL     1     -13.593  40.027   9.212  0.00  0.00    +0.000 C 
ATOM     24  C   UNL     1     -13.380  39.315  11.821  0.00  0.00    +0.000 C 
ATOM     25  C   UNL     1     -12.544  41.162   9.146  0.00  0.00    +0.000 C 
ATOM     26  C   UNL     1     -14.236  38.703  12.924  0.00  0.00    +0.000 C 
ATOM     27  C   UNL     1     -15.533  39.399  10.926  0.00  0.00    +0.000 C 
ATOM     28  C   UNL     1     -15.551  38.784  12.299  0.00  0.00    +0.000 C 
ATOM     29  C   UNL     1     -11.998  39.576  11.793  0.00  0.00    +0.000 C 
ATOM     30  C   UNL     1     -11.197  40.931   9.669  0.00  0.00    +0.000 C 
ATOM     31  C   UNL     1     -14.794  40.407   8.266  0.00  0.00    +0.000 C 
ATOM     32  C   UNL     1     -12.983  38.701   8.642  0.00  0.00    +0.000 C 
ATOM     33  C   UNL     1     -11.128  40.286  10.790  0.00  0.00    +0.000 C 
ATOM     34  C   UNL     1     -14.095  39.442  14.247  0.00  0.00    +0.000 C 
ATOM     35  C   UNL     1      -9.991  41.738   9.268  0.00  0.00    +0.000 C 
BRANCH  26  36
ATOM     36  O   UNL     1     -13.862  37.369  13.148  0.00  0.00    +0.000 OA
ATOM     37  H   UNL     1     -14.734  36.937  13.185  0.00  0.00    +0.000 HD
ENDBRANCH  26  36
ENDBRANCH  21  25
ENDBRANCH   3  20
TORSDOF 5
ENDMDL
MODEL 7
REMARK VINA RESULT:      -6.1     22.091     25.522
REMARK  Name = 342374_SipholenolA.pdbqt.pdb
REMARK  5 active torsions:
REMARK  status: ('A' for Active; 'I' for Inactive)
REMARK    1  A    between atoms: C_3  and  C_20
REMARK    2  A    between atoms: C_4  and  O_16
REMARK    3  A    between atoms: C_13  and  O_18
REMARK    4  A    between atoms: C_21  and  C_25
REMARK    5  A    between atoms: C_26  and  O_36
REMARK                            x       y       z     vdW  Elec       q    Type
REMARK                         _______ _______ _______ _____ _____    ______ ____
ROOT
ATOM      1  O   UNL     1     -11.209  11.101  16.952  0.00  0.00    +0.000 OA
ATOM      2  C   UNL     1     -10.729  12.826  15.051  0.00  0.00    +0.000 C 
ATOM      3  C   UNL     1     -10.982  14.267  14.597  0.00  0.00    +0.000 C 
ATOM      4  C   UNL     1     -12.366  14.875  14.750  0.00  0.00    +0.000 C 
ATOM      5  C   UNL     1     -11.519  12.320  16.337  0.00  0.00    +0.000 C 
ATOM      6  C   UNL     1      -9.333  12.667  15.487  0.00  0.00    +0.000 C 
ATOM      7  C   UNL     1     -13.106  14.113  15.736  0.00  0.00    +0.000 C 
ATOM      8  C   UNL     1     -12.783  12.903  16.546  0.00  0.00    +0.000 C 
ATOM      9  C   UNL     1     -11.048  11.852  13.883  0.00  0.00    +0.000 C 
ATOM     10  C   UNL     1      -8.502  12.012  16.563  0.00  0.00    +0.000 C 
ATOM     11  C   UNL     1     -10.310  11.095  18.109  0.00  0.00    +0.000 C 
ATOM     12  C   UNL     1     -12.276  16.358  15.139  0.00  0.00    +0.000 C 
ATOM     13  C   UNL     1      -8.812  11.242  17.704  0.00  0.00    +0.000 C 
ATOM     14  C   UNL     1     -10.658  12.224  19.124  0.00  0.00    +0.000 C 
ATOM     15  C   UNL     1     -10.464   9.709  18.801  0.00  0.00    +0.000 C 
ENDROOT
BRANCH   4  16
ATOM     16  O   UNL     1     -13.040  14.844  13.517  0.00  0.00    +0.000 OA
ATOM     17  H   UNL     1     -13.634  15.610  13.606  0.00  0.00    +0.000 HD
ENDBRANCH   4  16
BRANCH  13  18
ATOM     18  O   UNL     1      -7.778  10.638  18.412  0.00  0.00    +0.000 OA
ATOM     19  H   UNL     1      -6.904  10.873  18.038  0.00  0.00    +0.000 HD
ENDBRANCH  13  18
BRANCH   3  20
ATOM     20  C   UNL     1      -9.985  14.955  13.819  0.00  0.00    +0.000 C 
ATOM     21  C   UNL     1      -8.927  15.675  12.978  0.00  0.00    +0.000 C 
BRANCH  21  25
ATOM     22  C   UNL     1      -6.497  15.055  10.403  0.00  0.00    +0.000 C 
ATOM     23  C   UNL     1      -7.696  15.998  10.695  0.00  0.00    +0.000 C 
ATOM     24  C   UNL     1      -5.067  15.332  10.765  0.00  0.00    +0.000 C 
ATOM     25  C   UNL     1      -7.936  16.343  12.184  0.00  0.00    +0.000 C 
ATOM     26  C   UNL     1      -4.080  14.449  10.010  0.00  0.00    +0.000 C 
ATOM     27  C   UNL     1      -6.452  14.006   9.436  0.00  0.00    +0.000 C 
ATOM     28  C   UNL     1      -5.006  13.661   9.206  0.00  0.00    +0.000 C 
ATOM     29  C   UNL     1      -4.832  16.308  11.751  0.00  0.00    +0.000 C 
ATOM     30  C   UNL     1      -7.029  17.268  12.865  0.00  0.00    +0.000 C 
ATOM     31  C   UNL     1      -8.995  15.308  10.131  0.00  0.00    +0.000 C 
ATOM     32  C   UNL     1      -7.497  17.313   9.866  0.00  0.00    +0.000 C 
ATOM     33  C   UNL     1      -5.767  17.114  12.611  0.00  0.00    +0.000 C 
ATOM     34  C   UNL     1      -3.183  13.649  10.945  0.00  0.00    +0.000 C 
ATOM     35  C   UNL     1      -7.388  18.029  14.114  0.00  0.00    +0.000 C 
BRANCH  26  36
ATOM     36  O   UNL     1      -3.245  15.233   9.199  0.00  0.00    +0.000 OA
ATOM     37  H   UNL     1      -2.553  15.486   9.835  0.00  0.00    +0.000 HD
ENDBRANCH  26  36
ENDBRANCH  21  25
ENDBRANCH   3  20
TORSDOF 5
ENDMDL
MODEL 8
REMARK VINA RESULT:      -6.0     31.555     34.725
REMARK  Name = 342374_SipholenolA.pdbqt.pdb
REMARK  5 active torsions:
REMARK  status: ('A' for Active; 'I' for Inactive)
REMARK    1  A    between atoms: C_3  and  C_20
REMARK    2  A    between atoms: C_4  and  O_16
REMARK    3  A    between atoms: C_13  and  O_18
REMARK    4  A    between atoms: C_21  and  C_25
REMARK    5  A    between atoms: C_26  and  O_36
REMARK                            x       y       z     vdW  Elec       q    Type
REMARK                         _______ _______ _______ _____ _____    ______ ____
ROOT
ATOM      1  O   UNL     1      -0.990  62.816  -6.114  0.00  0.00    +0.000 OA
ATOM      2  C   UNL     1       0.412  60.612  -6.139  0.00  0.00    +0.000 C 
ATOM      3  C   UNL     1       0.693  59.337  -6.938  0.00  0.00    +0.000 C 
ATOM      4  C   UNL     1      -0.457  58.569  -7.565  0.00  0.00    +0.000 C 
ATOM      5  C   UNL     1      -0.783  61.536  -6.643  0.00  0.00    +0.000 C 
ATOM      6  C   UNL     1       1.552  61.537  -6.236  0.00  0.00    +0.000 C 
ATOM      7  C   UNL     1      -1.603  59.450  -7.677  0.00  0.00    +0.000 C 
ATOM      8  C   UNL     1      -1.845  60.867  -7.283  0.00  0.00    +0.000 C 
ATOM      9  C   UNL     1       0.135  60.244  -4.656  0.00  0.00    +0.000 C 
ATOM     10  C   UNL     1       1.871  63.002  -6.407  0.00  0.00    +0.000 C 
ATOM     11  C   UNL     1      -0.448  63.977  -6.825  0.00  0.00    +0.000 C 
ATOM     12  C   UNL     1      -0.056  57.994  -8.932  0.00  0.00    +0.000 C 
ATOM     13  C   UNL     1       1.083  64.157  -6.594  0.00  0.00    +0.000 C 
ATOM     14  C   UNL     1      -0.708  63.896  -8.358  0.00  0.00    +0.000 C 
ATOM     15  C   UNL     1      -1.151  65.238  -6.244  0.00  0.00    +0.000 C 
ENDROOT
BRANCH   4  16
ATOM     16  O   UNL     1      -0.783  57.459  -6.766  0.00  0.00    +0.000 OA
ATOM     17  H   UNL     1      -1.684  57.259  -7.076  0.00  0.00    +0.000 HD
ENDBRANCH   4  16
BRANCH  13  18
ATOM     18  O   UNL     1       1.695  65.406  -6.552  0.00  0.00    +0.000 OA
ATOM     19  H   UNL     1       2.300  65.481  -5.785  0.00  0.00    +0.000 HD
ENDBRANCH  13  18
BRANCH   3  20
ATOM     20  C   UNL     1       2.005  58.743  -6.894  0.00  0.00    +0.000 C 
ATOM     21  C   UNL     1       3.405  58.124  -6.857  0.00  0.00    +0.000 C 
BRANCH  21  25
ATOM     22  C   UNL     1       6.745  58.680  -8.063  0.00  0.00    +0.000 C 
ATOM     23  C   UNL     1       5.999  58.415  -6.727  0.00  0.00    +0.000 C 
ATOM     24  C   UNL     1       7.303  57.622  -8.970  0.00  0.00    +0.000 C 
ATOM     25  C   UNL     1       4.720  57.550  -6.828  0.00  0.00    +0.000 C 
ATOM     26  C   UNL     1       8.314  58.169  -9.971  0.00  0.00    +0.000 C 
ATOM     27  C   UNL     1       7.370  59.899  -8.464  0.00  0.00    +0.000 C 
ATOM     28  C   UNL     1       8.308  59.578  -9.596  0.00  0.00    +0.000 C 
ATOM     29  C   UNL     1       6.807  56.315  -8.813  0.00  0.00    +0.000 C 
ATOM     30  C   UNL     1       4.839  56.110  -7.060  0.00  0.00    +0.000 C 
ATOM     31  C   UNL     1       5.607  59.812  -6.114  0.00  0.00    +0.000 C 
ATOM     32  C   UNL     1       7.011  57.760  -5.725  0.00  0.00    +0.000 C 
ATOM     33  C   UNL     1       5.726  55.749  -7.932  0.00  0.00    +0.000 C 
ATOM     34  C   UNL     1       7.923  57.875 -11.413  0.00  0.00    +0.000 C 
ATOM     35  C   UNL     1       3.760  55.115  -6.727  0.00  0.00    +0.000 C 
BRANCH  26  36
ATOM     36  O   UNL     1       9.576  57.593  -9.755  0.00  0.00    +0.000 OA
ATOM     37  H   UNL     1       9.826  57.350 -10.664  0.00  0.00    +0.000 HD
ENDBRANCH  26  36
ENDBRANCH  21  25
ENDBRANCH   3  20
TORSDOF 5
ENDMDL
MODEL 9
REMARK VINA RESULT:      -5.9     33.134     36.152
REMARK  Name = 342374_SipholenolA.pdbqt.pdb
REMARK  5 active torsions:
REMARK  status: ('A' for Active; 'I' for Inactive)
REMARK    1  A    between atoms: C_3  and  C_20
REMARK    2  A    between atoms: C_4  and  O_16
REMARK    3  A    between atoms: C_13  and  O_18
REMARK    4  A    between atoms: C_21  and  C_25
REMARK    5  A    between atoms: C_26  and  O_36
REMARK                            x       y       z     vdW  Elec       q    Type
REMARK                         _______ _______ _______ _____ _____    ______ ____
ROOT
ATOM      1  O   UNL     1      10.705  44.770 -16.477  0.00  0.00    +0.000 OA
ATOM      2  C   UNL     1       8.233  45.170 -17.221  0.00  0.00    +0.000 C 
ATOM      3  C   UNL     1       7.345  45.979 -18.170  0.00  0.00    +0.000 C 
ATOM      4  C   UNL     1       7.606  47.462 -18.370  0.00  0.00    +0.000 C 
ATOM      5  C   UNL     1       9.773  45.569 -17.149  0.00  0.00    +0.000 C 
ATOM      6  C   UNL     1       8.319  43.771 -17.670  0.00  0.00    +0.000 C 
ATOM      7  C   UNL     1       8.965  47.757 -17.960  0.00  0.00    +0.000 C 
ATOM      8  C   UNL     1      10.063  46.927 -17.386  0.00  0.00    +0.000 C 
ATOM      9  C   UNL     1       7.656  45.244 -15.780  0.00  0.00    +0.000 C 
ATOM     10  C   UNL     1       9.307  42.642 -17.828  0.00  0.00    +0.000 C 
ATOM     11  C   UNL     1      11.499  43.805 -17.242  0.00  0.00    +0.000 C 
ATOM     12  C   UNL     1       7.358  47.873 -19.829  0.00  0.00    +0.000 C 
ATOM     13  C   UNL     1      10.695  42.520 -17.601  0.00  0.00    +0.000 C 
ATOM     14  C   UNL     1      12.056  44.422 -18.559  0.00  0.00    +0.000 C 
ATOM     15  C   UNL     1      12.684  43.365 -16.333  0.00  0.00    +0.000 C 
ENDROOT
BRANCH   4  16
ATOM     16  O   UNL     1       6.701  48.214 -17.602  0.00  0.00    +0.000 OA
ATOM     17  H   UNL     1       5.853  47.804 -17.851  0.00  0.00    +0.000 HD
ENDBRANCH   4  16
BRANCH  13  18
ATOM     18  O   UNL     1      11.285  41.264 -17.694  0.00  0.00    +0.000 OA
ATOM     19  H   UNL     1      11.501  40.904 -16.808  0.00  0.00    +0.000 HD
ENDBRANCH  13  18
BRANCH   3  20
ATOM     20  C   UNL     1       6.131  45.395 -18.681  0.00  0.00    +0.000 C 
ATOM     21  C   UNL     1       4.833  44.787 -19.219  0.00  0.00    +0.000 C 
BRANCH  21  25
ATOM     22  C   UNL     1       1.358  44.411 -18.379  0.00  0.00    +0.000 C 
ATOM     23  C   UNL     1       2.243  44.927 -19.546  0.00  0.00    +0.000 C 
ATOM     24  C   UNL     1       0.867  43.001 -18.222  0.00  0.00    +0.000 C 
ATOM     25  C   UNL     1       3.611  44.224 -19.718  0.00  0.00    +0.000 C 
ATOM     26  C   UNL     1      -0.289  42.880 -17.235  0.00  0.00    +0.000 C 
ATOM     27  C   UNL     1       0.548  45.199 -17.509  0.00  0.00    +0.000 C 
ATOM     28  C   UNL     1      -0.434  44.276 -16.840  0.00  0.00    +0.000 C 
ATOM     29  C   UNL     1       1.540  42.001 -18.948  0.00  0.00    +0.000 C 
ATOM     30  C   UNL     1       3.661  42.868 -20.267  0.00  0.00    +0.000 C 
ATOM     31  C   UNL     1       2.502  46.462 -19.306  0.00  0.00    +0.000 C 
ATOM     32  C   UNL     1       1.416  44.820 -20.872  0.00  0.00    +0.000 C 
ATOM     33  C   UNL     1       2.757  42.048 -19.832  0.00  0.00    +0.000 C 
ATOM     34  C   UNL     1       0.013  41.908 -16.102  0.00  0.00    +0.000 C 
ATOM     35  C   UNL     1       4.885  42.265 -20.902  0.00  0.00    +0.000 C 
BRANCH  26  36
ATOM     36  O   UNL     1      -1.441  42.416 -17.888  0.00  0.00    +0.000 OA
ATOM     37  H   UNL     1      -1.738  41.724 -17.271  0.00  0.00    +0.000 HD
ENDBRANCH  26  36
ENDBRANCH  21  25
ENDBRANCH   3  20
TORSDOF 5
ENDMDL
