MODEL 1
REMARK VINA RESULT:      -4.8      0.000      0.000
REMARK  Name = 43806_Diaminocyclohexane.pdbqt.pdb
REMARK  2 active torsions:
REMARK  status: ('A' for Active; 'I' for Inactive)
REMARK    1  A    between atoms: C_1  and  N_7
REMARK    2  A    between atoms: C_2  and  N_10
REMARK                            x       y       z     vdW  Elec       q    Type
REMARK                         _______ _______ _______ _____ _____    ______ ____
ROOT
ATOM      1  C   UNL     1      -2.680  47.301   6.744  0.00  0.00    +0.000 A 
ATOM      2  C   UNL     1      -1.966  46.074   7.160  0.00  0.00    +0.000 A 
ATOM      3  C   UNL     1      -3.184  48.106   7.816  0.00  0.00    +0.000 A 
ATOM      4  C   UNL     1      -1.853  45.885   8.576  0.00  0.00    +0.000 A 
ATOM      5  C   UNL     1      -3.112  47.962   9.345  0.00  0.00    +0.000 A 
ATOM      6  C   UNL     1      -2.355  46.704   9.775  0.00  0.00    +0.000 A 
ENDROOT
BRANCH   1   7
ATOM      7  N   UNL     1      -2.792  47.699   5.391  0.00  0.00    +0.000 N 
ATOM      8  H   UNL     1      -1.906  47.703   4.895  0.00  0.00    +0.000 HD
ATOM      9  H   UNL     1      -3.319  48.554   5.246  0.00  0.00    +0.000 HD
ENDBRANCH   1   7
BRANCH   2  10
ATOM     10  N   UNL     1      -1.495  45.113   6.235  0.00  0.00    +0.000 N 
ATOM     11  H   UNL     1      -0.698  44.583   6.571  0.00  0.00    +0.000 HD
ATOM     12  H   UNL     1      -1.355  45.466   5.294  0.00  0.00    +0.000 HD
ENDBRANCH   2  10
TORSDOF 2
ENDMDL
MODEL 2
REMARK VINA RESULT:      -4.8      0.046      2.286
REMARK  Name = 43806_Diaminocyclohexane.pdbqt.pdb
REMARK  2 active torsions:
REMARK  status: ('A' for Active; 'I' for Inactive)
REMARK    1  A    between atoms: C_1  and  N_7
REMARK    2  A    between atoms: C_2  and  N_10
REMARK                            x       y       z     vdW  Elec       q    Type
REMARK                         _______ _______ _______ _____ _____    ______ ____
ROOT
ATOM      1  C   UNL     1      -1.967  46.065   7.191  0.00  0.00    +0.000 A 
ATOM      2  C   UNL     1      -2.680  47.287   6.759  0.00  0.00    +0.000 A 
ATOM      3  C   UNL     1      -1.884  45.875   8.608  0.00  0.00    +0.000 A 
ATOM      4  C   UNL     1      -3.214  48.088   7.822  0.00  0.00    +0.000 A 
ATOM      5  C   UNL     1      -2.418  46.691   9.798  0.00  0.00    +0.000 A 
ATOM      6  C   UNL     1      -3.174  47.944   9.351  0.00  0.00    +0.000 A 
ENDROOT
BRANCH   1   7
ATOM      7  N   UNL     1      -1.470  45.107   6.276  0.00  0.00    +0.000 N 
ATOM      8  H   UNL     1      -0.469  44.957   6.351  0.00  0.00    +0.000 HD
ATOM      9  H   UNL     1      -1.769  45.247   5.316  0.00  0.00    +0.000 HD
ENDBRANCH   1   7
BRANCH   2  10
ATOM     10  N   UNL     1      -2.765  47.685   5.404  0.00  0.00    +0.000 N 
ATOM     11  H   UNL     1      -3.037  46.934   4.778  0.00  0.00    +0.000 HD
ATOM     12  H   UNL     1      -1.958  48.198   5.065  0.00  0.00    +0.000 HD
ENDBRANCH   2  10
TORSDOF 2
ENDMDL
MODEL 3
REMARK VINA RESULT:      -4.6     20.324     20.912
REMARK  Name = 43806_Diaminocyclohexane.pdbqt.pdb
REMARK  2 active torsions:
REMARK  status: ('A' for Active; 'I' for Inactive)
REMARK    1  A    between atoms: C_1  and  N_7
REMARK    2  A    between atoms: C_2  and  N_10
REMARK                            x       y       z     vdW  Elec       q    Type
REMARK                         _______ _______ _______ _____ _____    ______ ____
ROOT
ATOM      1  C   UNL     1       5.321  29.613  15.616  0.00  0.00    +0.000 A 
ATOM      2  C   UNL     1       5.751  28.610  14.619  0.00  0.00    +0.000 A 
ATOM      3  C   UNL     1       3.920  29.612  15.918  0.00  0.00    +0.000 A 
ATOM      4  C   UNL     1       4.710  27.759  14.122  0.00  0.00    +0.000 A 
ATOM      5  C   UNL     1       2.753  28.744  15.422  0.00  0.00    +0.000 A 
ATOM      6  C   UNL     1       3.201  27.692  14.406  0.00  0.00    +0.000 A 
ENDROOT
BRANCH   1   7
ATOM      7  N   UNL     1       6.232  30.463  16.287  0.00  0.00    +0.000 N 
ATOM      8  H   UNL     1       7.203  30.201  16.154  0.00  0.00    +0.000 HD
ATOM      9  H   UNL     1       6.007  30.635  17.263  0.00  0.00    +0.000 HD
ENDBRANCH   1   7
BRANCH   2  10
ATOM     10  N   UNL     1       7.076  28.540  14.126  0.00  0.00    +0.000 N 
ATOM     11  H   UNL     1       7.479  29.449  13.919  0.00  0.00    +0.000 HD
ATOM     12  H   UNL     1       7.209  27.878  13.369  0.00  0.00    +0.000 HD
ENDBRANCH   2  10
TORSDOF 2
ENDMDL
MODEL 4
REMARK VINA RESULT:      -4.5     20.428     21.134
REMARK  Name = 43806_Diaminocyclohexane.pdbqt.pdb
REMARK  2 active torsions:
REMARK  status: ('A' for Active; 'I' for Inactive)
REMARK    1  A    between atoms: C_1  and  N_7
REMARK    2  A    between atoms: C_2  and  N_10
REMARK                            x       y       z     vdW  Elec       q    Type
REMARK                         _______ _______ _______ _____ _____    ______ ____
ROOT
ATOM      1  C   UNL     1       5.990  28.480  14.757  0.00  0.00    +0.000 A 
ATOM      2  C   UNL     1       5.675  29.583  15.691  0.00  0.00    +0.000 A 
ATOM      3  C   UNL     1       4.867  27.697  14.337  0.00  0.00    +0.000 A 
ATOM      4  C   UNL     1       4.287  29.729  16.015  0.00  0.00    +0.000 A 
ATOM      5  C   UNL     1       3.364  27.786  14.649  0.00  0.00    +0.000 A 
ATOM      6  C   UNL     1       3.035  28.940  15.598  0.00  0.00    +0.000 A 
ENDROOT
BRANCH   1   7
ATOM      7  N   UNL     1       7.292  28.258  14.248  0.00  0.00    +0.000 N 
ATOM      8  H   UNL     1       7.931  29.027  14.422  0.00  0.00    +0.000 HD
ATOM      9  H   UNL     1       7.319  27.942  13.284  0.00  0.00    +0.000 HD
ENDBRANCH   1   7
BRANCH   2  10
ATOM     10  N   UNL     1       6.673  30.389  16.288  0.00  0.00    +0.000 N 
ATOM     11  H   UNL     1       6.303  31.093  16.918  0.00  0.00    +0.000 HD
ATOM     12  H   UNL     1       7.350  30.772  15.637  0.00  0.00    +0.000 HD
ENDBRANCH   2  10
TORSDOF 2
ENDMDL
MODEL 5
REMARK VINA RESULT:      -4.5     15.074     16.229
REMARK  Name = 43806_Diaminocyclohexane.pdbqt.pdb
REMARK  2 active torsions:
REMARK  status: ('A' for Active; 'I' for Inactive)
REMARK    1  A    between atoms: C_1  and  N_7
REMARK    2  A    between atoms: C_2  and  N_10
REMARK                            x       y       z     vdW  Elec       q    Type
REMARK                         _______ _______ _______ _____ _____    ______ ____
ROOT
ATOM      1  C   UNL     1      -1.067  33.304  15.067  0.00  0.00    +0.000 A 
ATOM      2  C   UNL     1       0.328  33.796  15.060  0.00  0.00    +0.000 A 
ATOM      3  C   UNL     1      -1.285  32.096  15.805  0.00  0.00    +0.000 A 
ATOM      4  C   UNL     1       1.255  33.010  15.820  0.00  0.00    +0.000 A 
ATOM      5  C   UNL     1      -0.345  31.200  16.629  0.00  0.00    +0.000 A 
ATOM      6  C   UNL     1       1.093  31.720  16.639  0.00  0.00    +0.000 A 
ENDROOT
BRANCH   1   7
ATOM      7  N   UNL     1      -2.130  34.013  14.458  0.00  0.00    +0.000 N 
ATOM      8  H   UNL     1      -2.717  34.511  15.120  0.00  0.00    +0.000 HD
ATOM      9  H   UNL     1      -2.673  33.469  13.794  0.00  0.00    +0.000 HD
ENDBRANCH   1   7
BRANCH   2  10
ATOM     10  N   UNL     1       0.741  34.913  14.297  0.00  0.00    +0.000 N 
ATOM     11  H   UNL     1       1.629  35.304  14.597  0.00  0.00    +0.000 HD
ATOM     12  H   UNL     1       0.029  35.625  14.172  0.00  0.00    +0.000 HD
ENDBRANCH   2  10
TORSDOF 2
ENDMDL
MODEL 6
REMARK VINA RESULT:      -4.5      2.058      2.486
REMARK  Name = 43806_Diaminocyclohexane.pdbqt.pdb
REMARK  2 active torsions:
REMARK  status: ('A' for Active; 'I' for Inactive)
REMARK    1  A    between atoms: C_1  and  N_7
REMARK    2  A    between atoms: C_2  and  N_10
REMARK                            x       y       z     vdW  Elec       q    Type
REMARK                         _______ _______ _______ _____ _____    ______ ____
ROOT
ATOM      1  C   UNL     1      -4.241  45.976   8.090  0.00  0.00    +0.000 A 
ATOM      2  C   UNL     1      -3.520  46.400   6.869  0.00  0.00    +0.000 A 
ATOM      3  C   UNL     1      -3.836  46.633   9.296  0.00  0.00    +0.000 A 
ATOM      4  C   UNL     1      -2.543  47.430   7.065  0.00  0.00    +0.000 A 
ATOM      5  C   UNL     1      -2.797  47.730   9.583  0.00  0.00    +0.000 A 
ATOM      6  C   UNL     1      -2.067  48.183   8.317  0.00  0.00    +0.000 A 
ENDROOT
BRANCH   1   7
ATOM      7  N   UNL     1      -5.309  45.047   8.063  0.00  0.00    +0.000 N 
ATOM      8  H   UNL     1      -6.083  45.304   8.668  0.00  0.00    +0.000 HD
ATOM      9  H   UNL     1      -5.028  44.079   8.183  0.00  0.00    +0.000 HD
ENDBRANCH   1   7
BRANCH   2  10
ATOM     10  N   UNL     1      -3.718  45.783   5.611  0.00  0.00    +0.000 N 
ATOM     11  H   UNL     1      -3.898  44.786   5.672  0.00  0.00    +0.000 HD
ATOM     12  H   UNL     1      -3.012  46.005   4.917  0.00  0.00    +0.000 HD
ENDBRANCH   2  10
TORSDOF 2
ENDMDL
MODEL 7
REMARK VINA RESULT:      -4.2      2.830      3.252
REMARK  Name = 43806_Diaminocyclohexane.pdbqt.pdb
REMARK  2 active torsions:
REMARK  status: ('A' for Active; 'I' for Inactive)
REMARK    1  A    between atoms: C_1  and  N_7
REMARK    2  A    between atoms: C_2  and  N_10
REMARK                            x       y       z     vdW  Elec       q    Type
REMARK                         _______ _______ _______ _____ _____    ______ ____
ROOT
ATOM      1  C   UNL     1      -4.226  46.916   9.490  0.00  0.00    +0.000 A 
ATOM      2  C   UNL     1      -4.351  45.998   8.336  0.00  0.00    +0.000 A 
ATOM      3  C   UNL     1      -3.129  47.835   9.423  0.00  0.00    +0.000 A 
ATOM      4  C   UNL     1      -3.376  46.184   7.302  0.00  0.00    +0.000 A 
ATOM      5  C   UNL     1      -2.046  48.082   8.360  0.00  0.00    +0.000 A 
ATOM      6  C   UNL     1      -2.188  47.148   7.156  0.00  0.00    +0.000 A 
ENDROOT
BRANCH   1   7
ATOM      7  N   UNL     1      -5.163  46.943  10.549  0.00  0.00    +0.000 N 
ATOM      8  H   UNL     1      -4.759  47.212  11.441  0.00  0.00    +0.000 HD
ATOM      9  H   UNL     1      -5.742  46.112  10.621  0.00  0.00    +0.000 HD
ENDBRANCH   1   7
BRANCH   2  10
ATOM     10  N   UNL     1      -5.309  44.959   8.285  0.00  0.00    +0.000 N 
ATOM     11  H   UNL     1      -5.211  44.280   9.033  0.00  0.00    +0.000 HD
ATOM     12  H   UNL     1      -5.407  44.520   7.376  0.00  0.00    +0.000 HD
ENDBRANCH   2  10
TORSDOF 2
ENDMDL
MODEL 8
REMARK VINA RESULT:      -4.1      2.838      3.419
REMARK  Name = 43806_Diaminocyclohexane.pdbqt.pdb
REMARK  2 active torsions:
REMARK  status: ('A' for Active; 'I' for Inactive)
REMARK    1  A    between atoms: C_1  and  N_7
REMARK    2  A    between atoms: C_2  and  N_10
REMARK                            x       y       z     vdW  Elec       q    Type
REMARK                         _______ _______ _______ _____ _____    ______ ____
ROOT
ATOM      1  C   UNL     1      -4.551  45.778   8.608  0.00  0.00    +0.000 A 
ATOM      2  C   UNL     1      -3.598  46.275   9.624  0.00  0.00    +0.000 A 
ATOM      3  C   UNL     1      -4.496  46.446   7.342  0.00  0.00    +0.000 A 
ATOM      4  C   UNL     1      -2.734  47.331   9.185  0.00  0.00    +0.000 A 
ATOM      5  C   UNL     1      -3.612  47.585   6.807  0.00  0.00    +0.000 A 
ATOM      6  C   UNL     1      -2.612  48.084   7.851  0.00  0.00    +0.000 A 
ENDROOT
BRANCH   1   7
ATOM      7  N   UNL     1      -5.403  44.671   8.836  0.00  0.00    +0.000 N 
ATOM      8  H   UNL     1      -5.253  43.905   8.187  0.00  0.00    +0.000 HD
ATOM      9  H   UNL     1      -6.385  44.909   8.933  0.00  0.00    +0.000 HD
ENDBRANCH   1   7
BRANCH   2  10
ATOM     10  N   UNL     1      -3.586  45.802  10.958  0.00  0.00    +0.000 N 
ATOM     11  H   UNL     1      -2.686  45.901  11.415  0.00  0.00    +0.000 HD
ATOM     12  H   UNL     1      -3.982  44.876  11.080  0.00  0.00    +0.000 HD
ENDBRANCH   2  10
TORSDOF 2
ENDMDL
MODEL 9
REMARK VINA RESULT:      -4.1     23.478     24.334
REMARK  Name = 43806_Diaminocyclohexane.pdbqt.pdb
REMARK  2 active torsions:
REMARK  status: ('A' for Active; 'I' for Inactive)
REMARK    1  A    between atoms: C_1  and  N_7
REMARK    2  A    between atoms: C_2  and  N_10
REMARK                            x       y       z     vdW  Elec       q    Type
REMARK                         _______ _______ _______ _____ _____    ______ ____
ROOT
ATOM      1  C   UNL     1     -14.819  32.917  23.758  0.00  0.00    +0.000 A 
ATOM      2  C   UNL     1     -15.114  34.319  23.391  0.00  0.00    +0.000 A 
ATOM      3  C   UNL     1     -13.854  32.750  24.804  0.00  0.00    +0.000 A 
ATOM      4  C   UNL     1     -14.416  35.309  24.156  0.00  0.00    +0.000 A 
ATOM      5  C   UNL     1     -13.063  33.756  25.656  0.00  0.00    +0.000 A 
ATOM      6  C   UNL     1     -13.384  35.206  25.290  0.00  0.00    +0.000 A 
ENDROOT
BRANCH   1   7
ATOM      7  N   UNL     1     -15.496  31.816  23.180  0.00  0.00    +0.000 N 
ATOM      8  H   UNL     1     -16.471  31.752  23.453  0.00  0.00    +0.000 HD
ATOM      9  H   UNL     1     -15.009  30.930  23.268  0.00  0.00    +0.000 HD
ENDBRANCH   1   7
BRANCH   2  10
ATOM     10  N   UNL     1     -15.961  34.665  22.311  0.00  0.00    +0.000 N 
ATOM     11  H   UNL     1     -16.492  35.515  22.469  0.00  0.00    +0.000 HD
ATOM     12  H   UNL     1     -16.540  33.905  21.970  0.00  0.00    +0.000 HD
ENDBRANCH   2  10
TORSDOF 2
ENDMDL
