MODEL 1
REMARK VINA RESULT:      -7.8      0.000      0.000
REMARK  Name = 44234954_SipholenolL.pdbqt.pdb
REMARK  5 active torsions:
REMARK  status: ('A' for Active; 'I' for Inactive)
REMARK    1  A    between atoms: C_3  and  C_20
REMARK    2  A    between atoms: C_4  and  O_16
REMARK    3  A    between atoms: C_13  and  O_18
REMARK    4  A    between atoms: C_21  and  C_25
REMARK    5  A    between atoms: C_26  and  O_36
REMARK                            x       y       z     vdW  Elec       q    Type
REMARK                         _______ _______ _______ _____ _____    ______ ____
ROOT
ATOM      1  O   UNL     1      -3.017  58.847  16.485  0.00  0.00    +0.000 OA
ATOM      2  C   UNL     1      -3.214  60.343  14.360  0.00  0.00    +0.000 C 
ATOM      3  C   UNL     1      -3.306  60.293  12.833  0.00  0.00    +0.000 C 
ATOM      4  C   UNL     1      -4.268  59.323  12.173  0.00  0.00    +0.000 C 
ATOM      5  C   UNL     1      -3.295  58.945  15.118  0.00  0.00    +0.000 C 
ATOM      6  C   UNL     1      -1.892  60.820  14.795  0.00  0.00    +0.000 C 
ATOM      7  C   UNL     1      -4.508  58.218  13.083  0.00  0.00    +0.000 C 
ATOM      8  C   UNL     1      -4.077  57.955  14.488  0.00  0.00    +0.000 C 
ATOM      9  C   UNL     1      -4.324  61.269  14.922  0.00  0.00    +0.000 C 
ATOM     10  C   UNL     1      -0.813  60.525  15.806  0.00  0.00    +0.000 C 
ATOM     11  C   UNL     1      -1.685  58.399  16.927  0.00  0.00    +0.000 C 
ATOM     12  C   UNL     1      -5.536  60.017  11.683  0.00  0.00    +0.000 C 
ATOM     13  C   UNL     1      -0.614  59.533  16.794  0.00  0.00    +0.000 C 
ATOM     14  C   UNL     1      -1.846  58.032  18.428  0.00  0.00    +0.000 C 
ATOM     15  C   UNL     1      -1.208  57.161  16.107  0.00  0.00    +0.000 C 
ENDROOT
BRANCH   4  16
ATOM     16  O   UNL     1      -3.662  58.805  11.006  0.00  0.00    +0.000 OA
ATOM     17  H   UNL     1      -2.739  59.092  11.138  0.00  0.00    +0.000 HD
ENDBRANCH   4  16
BRANCH  13  18
ATOM     18  O   UNL     1       0.611  59.468  17.447  0.00  0.00    +0.000 OA
ATOM     19  H   UNL     1       0.636  58.765  18.120  0.00  0.00    +0.000 HD
ENDBRANCH  13  18
BRANCH   3  20
ATOM     20  C   UNL     1      -2.539  61.196  12.019  0.00  0.00    +0.000 C 
ATOM     21  C   UNL     1      -1.694  62.135  11.152  0.00  0.00    +0.000 C 
BRANCH  21  25
ATOM     22  C   UNL     1      -1.286  63.283   8.876  0.00  0.00    +0.000 A 
ATOM     23  C   UNL     1      -0.379  64.233   8.002  0.00  0.00    +0.000 A 
ATOM     24  C   UNL     1      -2.601  62.616   8.292  0.00  0.00    +0.000 C 
ATOM     25  C   UNL     1      -0.876  62.972  10.332  0.00  0.00    +0.000 A 
ATOM     26  C   UNL     1      -0.609  64.696   6.545  0.00  0.00    +0.000 C 
ATOM     27  C   UNL     1      -2.678  63.084   6.905  0.00  0.00    +0.000 C 
ATOM     28  C   UNL     1      -1.803  64.006   6.098  0.00  0.00    +0.000 C 
ATOM     29  C   UNL     1       0.782  64.625   8.730  0.00  0.00    +0.000 A 
ATOM     30  C   UNL     1       0.373  63.499  10.949  0.00  0.00    +0.000 A 
ATOM     31  C   UNL     1      -3.835  63.127   9.074  0.00  0.00    +0.000 C 
ATOM     32  C   UNL     1      -2.462  61.079   8.302  0.00  0.00    +0.000 C 
ATOM     33  C   UNL     1       1.076  64.235  10.149  0.00  0.00    +0.000 A 
ATOM     34  C   UNL     1      -0.717  66.212   6.455  0.00  0.00    +0.000 C 
ATOM     35  C   UNL     1       0.778  63.359  12.387  0.00  0.00    +0.000 C 
BRANCH  26  36
ATOM     36  O   UNL     1       0.484  64.312   5.751  0.00  0.00    +0.000 OA
ATOM     37  H   UNL     1       0.084  64.334   4.863  0.00  0.00    +0.000 HD
ENDBRANCH  26  36
ENDBRANCH  21  25
ENDBRANCH   3  20
TORSDOF 5
ENDMDL
MODEL 2
REMARK VINA RESULT:      -7.3     21.337     25.643
REMARK  Name = 44234954_SipholenolL.pdbqt.pdb
REMARK  5 active torsions:
REMARK  status: ('A' for Active; 'I' for Inactive)
REMARK    1  A    between atoms: C_3  and  C_20
REMARK    2  A    between atoms: C_4  and  O_16
REMARK    3  A    between atoms: C_13  and  O_18
REMARK    4  A    between atoms: C_21  and  C_25
REMARK    5  A    between atoms: C_26  and  O_36
REMARK                            x       y       z     vdW  Elec       q    Type
REMARK                         _______ _______ _______ _____ _____    ______ ____
ROOT
ATOM      1  O   UNL     1     -17.779  38.479   8.269  0.00  0.00    +0.000 OA
ATOM      2  C   UNL     1     -15.566  39.464   9.230  0.00  0.00    +0.000 C 
ATOM      3  C   UNL     1     -14.067  39.194   9.372  0.00  0.00    +0.000 C 
ATOM      4  C   UNL     1     -13.272  38.732   8.164  0.00  0.00    +0.000 C 
ATOM      5  C   UNL     1     -16.381  38.455   8.307  0.00  0.00    +0.000 C 
ATOM      6  C   UNL     1     -16.259  39.288  10.516  0.00  0.00    +0.000 C 
ATOM      7  C   UNL     1     -14.179  38.078   7.238  0.00  0.00    +0.000 C 
ATOM      8  C   UNL     1     -15.660  37.892   7.235  0.00  0.00    +0.000 C 
ATOM      9  C   UNL     1     -15.792  40.904   8.699  0.00  0.00    +0.000 C 
ATOM     10  C   UNL     1     -17.510  38.682  11.101  0.00  0.00    +0.000 C 
ATOM     11  C   UNL     1     -18.547  37.515   9.077  0.00  0.00    +0.000 C 
ATOM     12  C   UNL     1     -12.456  39.864   7.547  0.00  0.00    +0.000 C 
ATOM     13  C   UNL     1     -18.584  37.919  10.589  0.00  0.00    +0.000 C 
ATOM     14  C   UNL     1     -19.992  37.553   8.509  0.00  0.00    +0.000 C 
ATOM     15  C   UNL     1     -17.947  36.080   8.957  0.00  0.00    +0.000 C 
ENDROOT
BRANCH   4  16
ATOM     16  O   UNL     1     -12.316  37.781   8.586  0.00  0.00    +0.000 OA
ATOM     17  H   UNL     1     -12.163  38.072   9.505  0.00  0.00    +0.000 HD
ENDBRANCH   4  16
BRANCH  13  18
ATOM     18  O   UNL     1     -19.505  37.371  11.474  0.00  0.00    +0.000 OA
ATOM     19  H   UNL     1     -20.071  38.047  11.886  0.00  0.00    +0.000 HD
ENDBRANCH  13  18
BRANCH   3  20
ATOM     20  C   UNL     1     -13.390  39.431  10.618  0.00  0.00    +0.000 C 
ATOM     21  C   UNL     1     -12.655  39.714  11.932  0.00  0.00    +0.000 C 
BRANCH  21  25
ATOM     22  C   UNL     1     -10.548  40.640  13.102  0.00  0.00    +0.000 A 
ATOM     23  C   UNL     1      -9.822  41.002  14.455  0.00  0.00    +0.000 A 
ATOM     24  C   UNL     1      -9.854  40.869  11.696  0.00  0.00    +0.000 C 
ATOM     25  C   UNL     1     -11.965  40.027  13.144  0.00  0.00    +0.000 A 
ATOM     26  C   UNL     1      -8.427  41.642  14.648  0.00  0.00    +0.000 C 
ATOM     27  C   UNL     1      -8.533  41.421  12.012  0.00  0.00    +0.000 C 
ATOM     28  C   UNL     1      -7.868  41.772  13.316  0.00  0.00    +0.000 C 
ATOM     29  C   UNL     1     -10.622  40.619  15.571  0.00  0.00    +0.000 A 
ATOM     30  C   UNL     1     -12.674  39.716  14.416  0.00  0.00    +0.000 A 
ATOM     31  C   UNL     1     -10.660  41.906  10.878  0.00  0.00    +0.000 C 
ATOM     32  C   UNL     1      -9.677  39.518  10.969  0.00  0.00    +0.000 C 
ATOM     33  C   UNL     1     -11.989  40.007  15.476  0.00  0.00    +0.000 A 
ATOM     34  C   UNL     1      -8.522  42.965  15.396  0.00  0.00    +0.000 C 
ATOM     35  C   UNL     1     -14.094  39.248  14.548  0.00  0.00    +0.000 C 
BRANCH  26  36
ATOM     36  O   UNL     1      -7.621  40.789  15.418  0.00  0.00    +0.000 OA
ATOM     37  H   UNL     1      -8.034  39.926  15.232  0.00  0.00    +0.000 HD
ENDBRANCH  26  36
ENDBRANCH  21  25
ENDBRANCH   3  20
TORSDOF 5
ENDMDL
MODEL 3
REMARK VINA RESULT:      -7.2      1.398      3.017
REMARK  Name = 44234954_SipholenolL.pdbqt.pdb
REMARK  5 active torsions:
REMARK  status: ('A' for Active; 'I' for Inactive)
REMARK    1  A    between atoms: C_3  and  C_20
REMARK    2  A    between atoms: C_4  and  O_16
REMARK    3  A    between atoms: C_13  and  O_18
REMARK    4  A    between atoms: C_21  and  C_25
REMARK    5  A    between atoms: C_26  and  O_36
REMARK                            x       y       z     vdW  Elec       q    Type
REMARK                         _______ _______ _______ _____ _____    ______ ____
ROOT
ATOM      1  O   UNL     1      -2.087  59.455  16.952  0.00  0.00    +0.000 OA
ATOM      2  C   UNL     1      -2.642  60.692  14.726  0.00  0.00    +0.000 C 
ATOM      3  C   UNL     1      -3.026  60.463  13.263  0.00  0.00    +0.000 C 
ATOM      4  C   UNL     1      -4.126  59.473  12.924  0.00  0.00    +0.000 C 
ATOM      5  C   UNL     1      -2.618  59.402  15.659  0.00  0.00    +0.000 C 
ATOM      6  C   UNL     1      -1.248  61.146  14.842  0.00  0.00    +0.000 C 
ATOM      7  C   UNL     1      -4.219  58.502  13.997  0.00  0.00    +0.000 C 
ATOM      8  C   UNL     1      -3.535  58.387  15.319  0.00  0.00    +0.000 C 
ATOM      9  C   UNL     1      -3.595  61.737  15.361  0.00  0.00    +0.000 C 
ATOM     10  C   UNL     1      -0.004  60.918  15.664  0.00  0.00    +0.000 C 
ATOM     11  C   UNL     1      -0.709  58.994  17.193  0.00  0.00    +0.000 C 
ATOM     12  C   UNL     1      -5.442  60.170  12.593  0.00  0.00    +0.000 C 
ATOM     13  C   UNL     1       0.351  60.043  16.717  0.00  0.00    +0.000 C 
ATOM     14  C   UNL     1      -0.590  58.819  18.731  0.00  0.00    +0.000 C 
ATOM     15  C   UNL     1      -0.435  57.641  16.464  0.00  0.00    +0.000 C 
ENDROOT
BRANCH   4  16
ATOM     16  O   UNL     1      -3.770  58.787  11.741  0.00  0.00    +0.000 OA
ATOM     17  H   UNL     1      -4.227  59.329  11.071  0.00  0.00    +0.000 HD
ENDBRANCH   4  16
BRANCH  13  18
ATOM     18  O   UNL     1       1.675  59.992  17.134  0.00  0.00    +0.000 OA
ATOM     19  H   UNL     1       1.965  60.822  17.553  0.00  0.00    +0.000 HD
ENDBRANCH  13  18
BRANCH   3  20
ATOM     20  C   UNL     1      -2.402  61.218  12.210  0.00  0.00    +0.000 C 
ATOM     21  C   UNL     1      -1.726  62.046  11.113  0.00  0.00    +0.000 C 
BRANCH  21  25
ATOM     22  C   UNL     1      -0.142  64.005  10.546  0.00  0.00    +0.000 A 
ATOM     23  C   UNL     1       0.595  64.848   9.435  0.00  0.00    +0.000 A 
ATOM     24  C   UNL     1       0.021  64.334  12.088  0.00  0.00    +0.000 C 
ATOM     25  C   UNL     1      -1.067  62.842  10.125  0.00  0.00    +0.000 A 
ATOM     26  C   UNL     1       1.577  66.027   9.627  0.00  0.00    +0.000 C 
ATOM     27  C   UNL     1       0.921  65.490  12.135  0.00  0.00    +0.000 C 
ATOM     28  C   UNL     1       1.625  66.269  11.056  0.00  0.00    +0.000 C 
ATOM     29  C   UNL     1       0.211  64.407   8.135  0.00  0.00    +0.000 A 
ATOM     30  C   UNL     1      -1.334  62.497   8.701  0.00  0.00    +0.000 A 
ATOM     31  C   UNL     1       0.688  63.137  12.808  0.00  0.00    +0.000 C 
ATOM     32  C   UNL     1      -1.344  64.728  12.691  0.00  0.00    +0.000 C 
ATOM     33  C   UNL     1      -0.721  63.264   7.858  0.00  0.00    +0.000 A 
ATOM     34  C   UNL     1       2.938  65.721   9.018  0.00  0.00    +0.000 C 
ATOM     35  C   UNL     1      -2.105  61.308   8.208  0.00  0.00    +0.000 C 
BRANCH  26  36
ATOM     36  O   UNL     1       1.079  67.165   8.972  0.00  0.00    +0.000 OA
ATOM     37  H   UNL     1       1.833  67.776   9.062  0.00  0.00    +0.000 HD
ENDBRANCH  26  36
ENDBRANCH  21  25
ENDBRANCH   3  20
TORSDOF 5
ENDMDL
MODEL 4
REMARK VINA RESULT:      -6.9     15.762     20.209
REMARK  Name = 44234954_SipholenolL.pdbqt.pdb
REMARK  5 active torsions:
REMARK  status: ('A' for Active; 'I' for Inactive)
REMARK    1  A    between atoms: C_3  and  C_20
REMARK    2  A    between atoms: C_4  and  O_16
REMARK    3  A    between atoms: C_13  and  O_18
REMARK    4  A    between atoms: C_21  and  C_25
REMARK    5  A    between atoms: C_26  and  O_36
REMARK                            x       y       z     vdW  Elec       q    Type
REMARK                         _______ _______ _______ _____ _____    ______ ____
ROOT
ATOM      1  O   UNL     1      -5.976  47.010  18.766  0.00  0.00    +0.000 OA
ATOM      2  C   UNL     1      -6.998  44.924  17.584  0.00  0.00    +0.000 C 
ATOM      3  C   UNL     1      -6.829  43.413  17.408  0.00  0.00    +0.000 C 
ATOM      4  C   UNL     1      -6.593  42.540  18.626  0.00  0.00    +0.000 C 
ATOM      5  C   UNL     1      -6.057  45.618  18.665  0.00  0.00    +0.000 C 
ATOM      6  C   UNL     1      -6.602  45.647  16.365  0.00  0.00    +0.000 C 
ATOM      7  C   UNL     1      -5.997  43.354  19.669  0.00  0.00    +0.000 C 
ATOM      8  C   UNL     1      -5.697  44.813  19.765  0.00  0.00    +0.000 C 
ATOM      9  C   UNL     1      -8.472  45.250  17.938  0.00  0.00    +0.000 C 
ATOM     10  C   UNL     1      -5.828  46.862  15.921  0.00  0.00    +0.000 C 
ATOM     11  C   UNL     1      -4.858  47.723  18.124  0.00  0.00    +0.000 C 
ATOM     12  C   UNL     1      -7.857  41.800  19.054  0.00  0.00    +0.000 C 
ATOM     13  C   UNL     1      -5.056  47.850  16.577  0.00  0.00    +0.000 C 
ATOM     14  C   UNL     1      -4.856  49.145  18.749  0.00  0.00    +0.000 C 
ATOM     15  C   UNL     1      -3.502  47.001  18.398  0.00  0.00    +0.000 C 
ENDROOT
BRANCH   4  16
ATOM     16  O   UNL     1      -5.673  41.523  18.284  0.00  0.00    +0.000 OA
ATOM     17  H   UNL     1      -5.227  41.931  17.518  0.00  0.00    +0.000 HD
ENDBRANCH   4  16
BRANCH  13  18
ATOM     18  O   UNL     1      -4.327  48.753  15.813  0.00  0.00    +0.000 OA
ATOM     19  H   UNL     1      -3.505  49.032  16.252  0.00  0.00    +0.000 HD
ENDBRANCH  13  18
BRANCH   3  20
ATOM     20  C   UNL     1      -6.954  42.805  16.111  0.00  0.00    +0.000 C 
ATOM     21  C   UNL     1      -7.117  42.175  14.724  0.00  0.00    +0.000 C 
BRANCH  21  25
ATOM     22  C   UNL     1      -8.639  40.961  13.028  0.00  0.00    +0.000 A 
ATOM     23  C   UNL     1      -8.823  40.388  11.570  0.00  0.00    +0.000 A 
ATOM     24  C   UNL     1      -9.786  40.854  14.117  0.00  0.00    +0.000 C 
ATOM     25  C   UNL     1      -7.300  41.625  13.418  0.00  0.00    +0.000 A 
ATOM     26  C   UNL     1     -10.074  39.713  10.961  0.00  0.00    +0.000 C 
ATOM     27  C   UNL     1     -10.884  40.155  13.442  0.00  0.00    +0.000 C 
ATOM     28  C   UNL     1     -11.039  39.631  12.040  0.00  0.00    +0.000 C 
ATOM     29  C   UNL     1      -7.619  40.531  10.820  0.00  0.00    +0.000 A 
ATOM     30  C   UNL     1      -6.142  41.716  12.486  0.00  0.00    +0.000 A 
ATOM     31  C   UNL     1     -10.254  42.272  14.522  0.00  0.00    +0.000 C 
ATOM     32  C   UNL     1      -9.302  40.004  15.311  0.00  0.00    +0.000 C 
ATOM     33  C   UNL     1      -6.367  41.185  11.326  0.00  0.00    +0.000 A 
ATOM     34  C   UNL     1     -10.585  40.480   9.749  0.00  0.00    +0.000 C 
ATOM     35  C   UNL     1      -4.861  42.457  12.733  0.00  0.00    +0.000 C 
BRANCH  26  36
ATOM     36  O   UNL     1      -9.744  38.420  10.522  0.00  0.00    +0.000 OA
ATOM     37  H   UNL     1      -8.923  38.259  11.022  0.00  0.00    +0.000 HD
ENDBRANCH  26  36
ENDBRANCH  21  25
ENDBRANCH   3  20
TORSDOF 5
ENDMDL
MODEL 5
REMARK VINA RESULT:      -6.5      2.150      8.968
REMARK  Name = 44234954_SipholenolL.pdbqt.pdb
REMARK  5 active torsions:
REMARK  status: ('A' for Active; 'I' for Inactive)
REMARK    1  A    between atoms: C_3  and  C_20
REMARK    2  A    between atoms: C_4  and  O_16
REMARK    3  A    between atoms: C_13  and  O_18
REMARK    4  A    between atoms: C_21  and  C_25
REMARK    5  A    between atoms: C_26  and  O_36
REMARK                            x       y       z     vdW  Elec       q    Type
REMARK                         _______ _______ _______ _____ _____    ______ ____
ROOT
ATOM      1  O   UNL     1      -2.660  66.088   6.195  0.00  0.00    +0.000 OA
ATOM      2  C   UNL     1      -1.526  65.520   8.471  0.00  0.00    +0.000 C 
ATOM      3  C   UNL     1      -0.368  64.741   9.100  0.00  0.00    +0.000 C 
ATOM      4  C   UNL     1       1.020  64.847   8.497  0.00  0.00    +0.000 C 
ATOM      5  C   UNL     1      -1.550  65.586   6.881  0.00  0.00    +0.000 C 
ATOM      6  C   UNL     1      -2.814  64.863   8.743  0.00  0.00    +0.000 C 
ATOM      7  C   UNL     1       0.889  65.207   7.098  0.00  0.00    +0.000 C 
ATOM      8  C   UNL     1      -0.289  65.561   6.251  0.00  0.00    +0.000 C 
ATOM      9  C   UNL     1      -1.543  66.970   9.021  0.00  0.00    +0.000 C 
ATOM     10  C   UNL     1      -4.105  64.485   8.060  0.00  0.00    +0.000 C 
ATOM     11  C   UNL     1      -3.653  65.156   5.635  0.00  0.00    +0.000 C 
ATOM     12  C   UNL     1       1.925  65.775   9.301  0.00  0.00    +0.000 C 
ATOM     13  C   UNL     1      -4.600  64.578   6.739  0.00  0.00    +0.000 C 
ATOM     14  C   UNL     1      -4.497  65.995   4.637  0.00  0.00    +0.000 C 
ATOM     15  C   UNL     1      -2.956  63.968   4.902  0.00  0.00    +0.000 C 
ENDROOT
BRANCH   4  16
ATOM     16  O   UNL     1       1.644  63.580   8.567  0.00  0.00    +0.000 OA
ATOM     17  H   UNL     1       2.220  63.618   7.781  0.00  0.00    +0.000 HD
ENDBRANCH   4  16
BRANCH  13  18
ATOM     18  O   UNL     1      -5.804  63.958   6.426  0.00  0.00    +0.000 OA
ATOM     19  H   UNL     1      -6.180  63.473   7.181  0.00  0.00    +0.000 HD
ENDBRANCH  13  18
BRANCH   3  20
ATOM     20  C   UNL     1      -0.567  63.960  10.291  0.00  0.00    +0.000 C 
ATOM     21  C   UNL     1      -0.812  63.142  11.563  0.00  0.00    +0.000 C 
BRANCH  21  25
ATOM     22  C   UNL     1      -2.372  61.530  12.840  0.00  0.00    +0.000 A 
ATOM     23  C   UNL     1      -2.640  60.681  14.143  0.00  0.00    +0.000 A 
ATOM     24  C   UNL     1      -3.399  61.549  11.632  0.00  0.00    +0.000 C 
ATOM     25  C   UNL     1      -1.090  62.384  12.743  0.00  0.00    +0.000 A 
ATOM     26  C   UNL     1      -3.833  59.744  14.443  0.00  0.00    +0.000 C 
ATOM     27  C   UNL     1      -4.498  60.677  12.056  0.00  0.00    +0.000 C 
ATOM     28  C   UNL     1      -4.721  59.864  13.303  0.00  0.00    +0.000 C 
ATOM     29  C   UNL     1      -1.614  60.907  15.107  0.00  0.00    +0.000 A 
ATOM     30  C   UNL     1      -0.098  62.481  13.850  0.00  0.00    +0.000 A 
ATOM     31  C   UNL     1      -2.730  60.954  10.370  0.00  0.00    +0.000 C 
ATOM     32  C   UNL     1      -3.939  62.980  11.422  0.00  0.00    +0.000 C 
ATOM     33  C   UNL     1      -0.416  61.785  14.894  0.00  0.00    +0.000 A 
ATOM     34  C   UNL     1      -3.367  58.317  14.700  0.00  0.00    +0.000 C 
ATOM     35  C   UNL     1       1.232  63.174  13.789  0.00  0.00    +0.000 C 
BRANCH  26  36
ATOM     36  O   UNL     1      -4.492  60.179  15.604  0.00  0.00    +0.000 OA
ATOM     37  H   UNL     1      -5.287  60.593  15.221  0.00  0.00    +0.000 HD
ENDBRANCH  26  36
ENDBRANCH  21  25
ENDBRANCH   3  20
TORSDOF 5
ENDMDL
MODEL 6
REMARK VINA RESULT:      -6.5     38.298     41.463
REMARK  Name = 44234954_SipholenolL.pdbqt.pdb
REMARK  5 active torsions:
REMARK  status: ('A' for Active; 'I' for Inactive)
REMARK    1  A    between atoms: C_3  and  C_20
REMARK    2  A    between atoms: C_4  and  O_16
REMARK    3  A    between atoms: C_13  and  O_18
REMARK    4  A    between atoms: C_21  and  C_25
REMARK    5  A    between atoms: C_26  and  O_36
REMARK                            x       y       z     vdW  Elec       q    Type
REMARK                         _______ _______ _______ _____ _____    ______ ____
ROOT
ATOM      1  O   UNL     1       0.892  24.976  -4.755  0.00  0.00    +0.000 OA
ATOM      2  C   UNL     1       0.594  23.090  -2.982  0.00  0.00    +0.000 C 
ATOM      3  C   UNL     1      -0.455  22.345  -2.153  0.00  0.00    +0.000 C 
ATOM      4  C   UNL     1      -1.718  21.838  -2.825  0.00  0.00    +0.000 C 
ATOM      5  C   UNL     1       0.039  24.094  -4.085  0.00  0.00    +0.000 C 
ATOM      6  C   UNL     1       1.380  24.006  -2.141  0.00  0.00    +0.000 C 
ATOM      7  C   UNL     1      -1.971  22.648  -4.002  0.00  0.00    +0.000 C 
ATOM      8  C   UNL     1      -1.199  23.742  -4.661  0.00  0.00    +0.000 C 
ATOM      9  C   UNL     1       1.534  22.070  -3.677  0.00  0.00    +0.000 C 
ATOM     10  C   UNL     1       1.941  25.405  -2.138  0.00  0.00    +0.000 C 
ATOM     11  C   UNL     1       0.994  26.375  -4.306  0.00  0.00    +0.000 C 
ATOM     12  C   UNL     1      -1.659  20.338  -3.097  0.00  0.00    +0.000 C 
ATOM     13  C   UNL     1       1.870  26.512  -3.016  0.00  0.00    +0.000 C 
ATOM     14  C   UNL     1       1.687  27.137  -5.468  0.00  0.00    +0.000 C 
ATOM     15  C   UNL     1      -0.417  26.976  -4.019  0.00  0.00    +0.000 C 
ENDROOT
BRANCH   4  16
ATOM     16  O   UNL     1      -2.803  22.004  -1.936  0.00  0.00    +0.000 OA
ATOM     17  H   UNL     1      -3.356  22.632  -2.439  0.00  0.00    +0.000 HD
ENDBRANCH   4  16
BRANCH  13  18
ATOM     18  O   UNL     1       2.385  27.735  -2.602  0.00  0.00    +0.000 OA
ATOM     19  H   UNL     1       1.873  28.125  -1.871  0.00  0.00    +0.000 HD
ENDBRANCH  13  18
BRANCH   3  20
ATOM     20  C   UNL     1      -0.231  22.066  -0.761  0.00  0.00    +0.000 C 
ATOM     21  C   UNL     1       0.034  21.745   0.714  0.00  0.00    +0.000 C 
BRANCH  21  25
ATOM     22  C   UNL     1      -0.812  21.105   3.067  0.00  0.00    +0.000 A 
ATOM     23  C   UNL     1      -0.458  20.731   4.559  0.00  0.00    +0.000 A 
ATOM     24  C   UNL     1      -2.312  21.179   2.560  0.00  0.00    +0.000 C 
ATOM     25  C   UNL     1       0.327  21.429   2.077  0.00  0.00    +0.000 A 
ATOM     26  C   UNL     1      -1.426  20.349   5.702  0.00  0.00    +0.000 C 
ATOM     27  C   UNL     1      -3.126  20.854   3.736  0.00  0.00    +0.000 C 
ATOM     28  C   UNL     1      -2.760  20.486   5.149  0.00  0.00    +0.000 C 
ATOM     29  C   UNL     1       0.948  20.822   4.777  0.00  0.00    +0.000 A 
ATOM     30  C   UNL     1       1.762  21.448   2.474  0.00  0.00    +0.000 A 
ATOM     31  C   UNL     1      -2.546  20.111   1.465  0.00  0.00    +0.000 C 
ATOM     32  C   UNL     1      -2.642  22.614   2.097  0.00  0.00    +0.000 C 
ATOM     33  C   UNL     1       1.958  21.170   3.723  0.00  0.00    +0.000 A 
ATOM     34  C   UNL     1      -1.132  18.954   6.236  0.00  0.00    +0.000 C 
ATOM     35  C   UNL     1       2.935  21.619   1.553  0.00  0.00    +0.000 C 
BRANCH  26  36
ATOM     36  O   UNL     1      -1.266  21.244   6.773  0.00  0.00    +0.000 OA
ATOM     37  H   UNL     1      -1.635  22.060   6.389  0.00  0.00    +0.000 HD
ENDBRANCH  26  36
ENDBRANCH  21  25
ENDBRANCH   3  20
TORSDOF 5
ENDMDL
MODEL 7
REMARK VINA RESULT:      -6.5     14.731     19.373
REMARK  Name = 44234954_SipholenolL.pdbqt.pdb
REMARK  5 active torsions:
REMARK  status: ('A' for Active; 'I' for Inactive)
REMARK    1  A    between atoms: C_3  and  C_20
REMARK    2  A    between atoms: C_4  and  O_16
REMARK    3  A    between atoms: C_13  and  O_18
REMARK    4  A    between atoms: C_21  and  C_25
REMARK    5  A    between atoms: C_26  and  O_36
REMARK                            x       y       z     vdW  Elec       q    Type
REMARK                         _______ _______ _______ _____ _____    ______ ____
ROOT
ATOM      1  O   UNL     1      -4.758  47.374  19.526  0.00  0.00    +0.000 OA
ATOM      2  C   UNL     1      -6.156  45.286  18.835  0.00  0.00    +0.000 C 
ATOM      3  C   UNL     1      -6.087  43.766  18.677  0.00  0.00    +0.000 C 
ATOM      4  C   UNL     1      -5.481  42.925  19.786  0.00  0.00    +0.000 C 
ATOM      5  C   UNL     1      -4.898  45.983  19.517  0.00  0.00    +0.000 C 
ATOM      6  C   UNL     1      -6.169  45.954  17.524  0.00  0.00    +0.000 C 
ATOM      7  C   UNL     1      -4.557  43.752  20.539  0.00  0.00    +0.000 C 
ATOM      8  C   UNL     1      -4.212  45.203  20.470  0.00  0.00    +0.000 C 
ATOM      9  C   UNL     1      -7.424  45.673  19.640  0.00  0.00    +0.000 C 
ATOM     10  C   UNL     1      -5.559  47.128  16.800  0.00  0.00    +0.000 C 
ATOM     11  C   UNL     1      -3.900  48.028  18.524  0.00  0.00    +0.000 C 
ATOM     12  C   UNL     1      -6.548  42.242  20.636  0.00  0.00    +0.000 C 
ATOM     13  C   UNL     1      -4.595  48.110  17.123  0.00  0.00    +0.000 C 
ATOM     14  C   UNL     1      -3.662  49.468  19.053  0.00  0.00    +0.000 C 
ATOM     15  C   UNL     1      -2.545  47.270  18.366  0.00  0.00    +0.000 C 
ENDROOT
BRANCH   4  16
ATOM     16  O   UNL     1      -4.747  41.867  19.204  0.00  0.00    +0.000 OA
ATOM     17  H   UNL     1      -4.145  42.363  18.618  0.00  0.00    +0.000 HD
ENDBRANCH   4  16
BRANCH  13  18
ATOM     18  O   UNL     1      -4.139  48.962  16.125  0.00  0.00    +0.000 OA
ATOM     19  H   UNL     1      -4.466  48.710  15.243  0.00  0.00    +0.000 HD
ENDBRANCH  13  18
BRANCH   3  20
ATOM     20  C   UNL     1      -6.645  43.119  17.521  0.00  0.00    +0.000 C 
ATOM     21  C   UNL     1      -7.222  42.453  16.267  0.00  0.00    +0.000 C 
BRANCH  21  25
ATOM     22  C   UNL     1      -7.183  42.287  13.691  0.00  0.00    +0.000 A 
ATOM     23  C   UNL     1      -7.732  41.585  12.389  0.00  0.00    +0.000 A 
ATOM     24  C   UNL     1      -6.106  43.448  13.622  0.00  0.00    +0.000 C 
ATOM     25  C   UNL     1      -7.722  41.851  15.071  0.00  0.00    +0.000 A 
ATOM     26  C   UNL     1      -7.320  41.842  10.921  0.00  0.00    +0.000 C 
ATOM     27  C   UNL     1      -5.841  43.633  12.192  0.00  0.00    +0.000 C 
ATOM     28  C   UNL     1      -6.370  42.937  10.967  0.00  0.00    +0.000 C 
ATOM     29  C   UNL     1      -8.751  40.644  12.719  0.00  0.00    +0.000 A 
ATOM     30  C   UNL     1      -8.780  40.815  15.235  0.00  0.00    +0.000 A 
ATOM     31  C   UNL     1      -4.805  42.995  14.329  0.00  0.00    +0.000 C 
ATOM     32  C   UNL     1      -6.696  44.751  14.201  0.00  0.00    +0.000 C 
ATOM     33  C   UNL     1      -9.201  40.323  14.114  0.00  0.00    +0.000 A 
ATOM     34  C   UNL     1      -6.762  40.583  10.273  0.00  0.00    +0.000 C 
ATOM     35  C   UNL     1      -9.262  40.239  16.534  0.00  0.00    +0.000 C 
BRANCH  26  36
ATOM     36  O   UNL     1      -8.447  42.226  10.177  0.00  0.00    +0.000 OA
ATOM     37  H   UNL     1      -8.192  41.923   9.286  0.00  0.00    +0.000 HD
ENDBRANCH  26  36
ENDBRANCH  21  25
ENDBRANCH   3  20
TORSDOF 5
ENDMDL
MODEL 8
REMARK VINA RESULT:      -6.5     30.189     33.871
REMARK  Name = 44234954_SipholenolL.pdbqt.pdb
REMARK  5 active torsions:
REMARK  status: ('A' for Active; 'I' for Inactive)
REMARK    1  A    between atoms: C_3  and  C_20
REMARK    2  A    between atoms: C_4  and  O_16
REMARK    3  A    between atoms: C_13  and  O_18
REMARK    4  A    between atoms: C_21  and  C_25
REMARK    5  A    between atoms: C_26  and  O_36
REMARK                            x       y       z     vdW  Elec       q    Type
REMARK                         _______ _______ _______ _____ _____    ______ ____
ROOT
ATOM      1  O   UNL     1     -23.720  31.548  12.551  0.00  0.00    +0.000 OA
ATOM      2  C   UNL     1     -22.006  31.322  10.601  0.00  0.00    +0.000 C 
ATOM      3  C   UNL     1     -20.643  30.733  10.233  0.00  0.00    +0.000 C 
ATOM      4  C   UNL     1     -20.322  29.297  10.608  0.00  0.00    +0.000 C 
ATOM      5  C   UNL     1     -22.591  30.913  12.024  0.00  0.00    +0.000 C 
ATOM      6  C   UNL     1     -21.930  32.785  10.741  0.00  0.00    +0.000 C 
ATOM      7  C   UNL     1     -21.138  28.925  11.749  0.00  0.00    +0.000 C 
ATOM      8  C   UNL     1     -22.225  29.633  12.488  0.00  0.00    +0.000 C 
ATOM      9  C   UNL     1     -23.050  30.947   9.518  0.00  0.00    +0.000 C 
ATOM     10  C   UNL     1     -22.398  33.903  11.637  0.00  0.00    +0.000 C 
ATOM     11  C   UNL     1     -23.554  32.635  13.531  0.00  0.00    +0.000 C 
ATOM     12  C   UNL     1     -20.444  28.353   9.416  0.00  0.00    +0.000 C 
ATOM     13  C   UNL     1     -23.123  33.976  12.849  0.00  0.00    +0.000 C 
ATOM     14  C   UNL     1     -24.951  32.827  14.181  0.00  0.00    +0.000 C 
ATOM     15  C   UNL     1     -22.493  32.259  14.612  0.00  0.00    +0.000 C 
ENDROOT
BRANCH   4  16
ATOM     16  O   UNL     1     -18.965  29.221  10.996  0.00  0.00    +0.000 OA
ATOM     17  H   UNL     1     -18.595  28.699  10.260  0.00  0.00    +0.000 HD
ENDBRANCH   4  16
BRANCH  13  18
ATOM     18  O   UNL     1     -23.231  35.200  13.498  0.00  0.00    +0.000 OA
ATOM     19  H   UNL     1     -24.145  35.400  13.765  0.00  0.00    +0.000 HD
ENDBRANCH  13  18
BRANCH   3  20
ATOM     20  C   UNL     1     -19.686  31.500   9.483  0.00  0.00    +0.000 C 
ATOM     21  C   UNL     1     -18.661  32.290   8.663  0.00  0.00    +0.000 C 
BRANCH  21  25
ATOM     22  C   UNL     1     -17.853  34.511   7.624  0.00  0.00    +0.000 A 
ATOM     23  C   UNL     1     -16.771  35.265   6.758  0.00  0.00    +0.000 A 
ATOM     24  C   UNL     1     -19.103  35.266   8.239  0.00  0.00    +0.000 C 
ATOM     25  C   UNL     1     -17.708  32.992   7.861  0.00  0.00    +0.000 A 
ATOM     26  C   UNL     1     -16.704  36.772   6.417  0.00  0.00    +0.000 C 
ATOM     27  C   UNL     1     -18.955  36.659   7.804  0.00  0.00    +0.000 C 
ATOM     28  C   UNL     1     -17.901  37.357   6.988  0.00  0.00    +0.000 C 
ATOM     29  C   UNL     1     -15.805  34.346   6.252  0.00  0.00    +0.000 A 
ATOM     30  C   UNL     1     -16.604  32.183   7.272  0.00  0.00    +0.000 A 
ATOM     31  C   UNL     1     -19.041  35.204   9.784  0.00  0.00    +0.000 C 
ATOM     32  C   UNL     1     -20.410  34.688   7.654  0.00  0.00    +0.000 C 
ATOM     33  C   UNL     1     -15.787  32.875   6.545  0.00  0.00    +0.000 A 
ATOM     34  C   UNL     1     -15.417  37.401   6.932  0.00  0.00    +0.000 C 
ATOM     35  C   UNL     1     -16.313  30.740   7.560  0.00  0.00    +0.000 C 
BRANCH  26  36
ATOM     36  O   UNL     1     -16.716  36.939   5.022  0.00  0.00    +0.000 OA
ATOM     37  H   UNL     1     -17.032  37.858   4.948  0.00  0.00    +0.000 HD
ENDBRANCH  26  36
ENDBRANCH  21  25
ENDBRANCH   3  20
TORSDOF 5
ENDMDL
MODEL 9
REMARK VINA RESULT:      -6.2      5.704      9.663
REMARK  Name = 44234954_SipholenolL.pdbqt.pdb
REMARK  5 active torsions:
REMARK  status: ('A' for Active; 'I' for Inactive)
REMARK    1  A    between atoms: C_3  and  C_20
REMARK    2  A    between atoms: C_4  and  O_16
REMARK    3  A    between atoms: C_13  and  O_18
REMARK    4  A    between atoms: C_21  and  C_25
REMARK    5  A    between atoms: C_26  and  O_36
REMARK                            x       y       z     vdW  Elec       q    Type
REMARK                         _______ _______ _______ _____ _____    ______ ____
ROOT
ATOM      1  O   UNL     1       6.696  55.564  20.867  0.00  0.00    +0.000 OA
ATOM      2  C   UNL     1       4.452  56.753  20.282  0.00  0.00    +0.000 C 
ATOM      3  C   UNL     1       3.099  56.545  19.597  0.00  0.00    +0.000 C 
ATOM      4  C   UNL     1       2.295  55.293  19.894  0.00  0.00    +0.000 C 
ATOM      5  C   UNL     1       5.366  55.460  20.447  0.00  0.00    +0.000 C 
ATOM      6  C   UNL     1       5.328  57.613  19.473  0.00  0.00    +0.000 C 
ATOM      7  C   UNL     1       3.207  54.250  20.326  0.00  0.00    +0.000 C 
ATOM      8  C   UNL     1       4.674  54.241  20.602  0.00  0.00    +0.000 C 
ATOM      9  C   UNL     1       4.239  57.383  21.684  0.00  0.00    +0.000 C 
ATOM     10  C   UNL     1       6.756  57.718  18.999  0.00  0.00    +0.000 C 
ATOM     11  C   UNL     1       7.778  55.542  19.869  0.00  0.00    +0.000 C 
ATOM     12  C   UNL     1       1.148  55.564  20.863  0.00  0.00    +0.000 C 
ATOM     13  C   UNL     1       7.911  56.911  19.121  0.00  0.00    +0.000 C 
ATOM     14  C   UNL     1       9.081  55.279  20.671  0.00  0.00    +0.000 C 
ATOM     15  C   UNL     1       7.547  54.416  18.813  0.00  0.00    +0.000 C 
ENDROOT
BRANCH   4  16
ATOM     16  O   UNL     1       1.670  54.862  18.702  0.00  0.00    +0.000 OA
ATOM     17  H   UNL     1       0.744  54.784  19.000  0.00  0.00    +0.000 HD
ENDBRANCH   4  16
BRANCH  13  18
ATOM     18  O   UNL     1       9.047  57.245  18.393  0.00  0.00    +0.000 OA
ATOM     19  H   UNL     1       9.862  57.166  18.920  0.00  0.00    +0.000 HD
ENDBRANCH  13  18
BRANCH   3  20
ATOM     20  C   UNL     1       2.553  57.549  18.725  0.00  0.00    +0.000 C 
ATOM     21  C   UNL     1       1.971  58.642  17.823  0.00  0.00    +0.000 C 
BRANCH  21  25
ATOM     22  C   UNL     1      -0.022  59.654  16.531  0.00  0.00    +0.000 A 
ATOM     23  C   UNL     1      -0.585  60.846  15.664  0.00  0.00    +0.000 A 
ATOM     24  C   UNL     1      -0.914  58.398  16.901  0.00  0.00    +0.000 C 
ATOM     25  C   UNL     1       1.444  59.697  17.015  0.00  0.00    +0.000 A 
ATOM     26  C   UNL     1      -2.014  61.023  15.099  0.00  0.00    +0.000 C 
ATOM     27  C   UNL     1      -2.212  58.657  16.270  0.00  0.00    +0.000 C 
ATOM     28  C   UNL     1      -2.729  59.813  15.458  0.00  0.00    +0.000 C 
ATOM     29  C   UNL     1       0.440  61.801  15.400  0.00  0.00    +0.000 A 
ATOM     30  C   UNL     1       2.379  60.803  16.666  0.00  0.00    +0.000 A 
ATOM     31  C   UNL     1      -1.097  58.323  18.436  0.00  0.00    +0.000 C 
ATOM     32  C   UNL     1      -0.301  57.118  16.294  0.00  0.00    +0.000 C 
ATOM     33  C   UNL     1       1.845  61.716  15.919  0.00  0.00    +0.000 A 
ATOM     34  C   UNL     1      -2.667  62.292  15.629  0.00  0.00    +0.000 C 
ATOM     35  C   UNL     1       3.768  60.991  17.200  0.00  0.00    +0.000 C 
BRANCH  26  36
ATOM     36  O   UNL     1      -1.956  61.140  13.701  0.00  0.00    +0.000 OA
ATOM     37  H   UNL     1      -1.234  60.519  13.493  0.00  0.00    +0.000 HD
ENDBRANCH  26  36
ENDBRANCH  21  25
ENDBRANCH   3  20
TORSDOF 5
ENDMDL
