MODEL 1
REMARK VINA RESULT:      -7.1      0.000      0.000
REMARK  Name = 442793_6gingerol.pdbqt.pdb
REMARK  7 active torsions:
REMARK  status: ('A' for Active; 'I' for Inactive)
REMARK    1  A    between atoms: C_1  and  C_3
REMARK    2  A    between atoms: C_5  and  O_6
REMARK    3  A    between atoms: C_5  and  C_8
REMARK    4  A    between atoms: C_9  and  C_10
REMARK    5  A    between atoms: C_13  and  C_14
REMARK    6  A    between atoms: C_17  and  O_20
REMARK    7  A    between atoms: C_19  and  O_22
REMARK                            x       y       z     vdW  Elec       q    Type
REMARK                         _______ _______ _______ _____ _____    ______ ____
ROOT
ATOM      1  C   UNL     1       3.503  31.353  15.784  0.00  0.00    +0.000 C 
ATOM      2  C   UNL     1       2.033  31.749  15.594  0.00  0.00    +0.000 C 
ENDROOT
BRANCH   2   3
ATOM      3  C   UNL     1       0.669  32.119  15.419  0.00  0.00    +0.000 A 
ATOM      4  C   UNL     1       0.154  33.216  16.108  0.00  0.00    +0.000 A 
ATOM      5  C   UNL     1      -0.145  31.385  14.561  0.00  0.00    +0.000 A 
ATOM      6  C   UNL     1      -1.183  33.591  15.947  0.00  0.00    +0.000 A 
ATOM      7  C   UNL     1      -1.479  31.748  14.391  0.00  0.00    +0.000 A 
ATOM      8  C   UNL     1      -1.990  32.845  15.083  0.00  0.00    +0.000 A 
BRANCH   6   9
ATOM      9  O   UNL     1      -1.771  34.656  16.586  0.00  0.00    +0.000 OA
ATOM     10  C   UNL     1      -1.037  35.852  16.572  0.00  0.00    +0.000 C 
ENDBRANCH   6   9
BRANCH   8  11
ATOM     11  O   UNL     1      -3.300  33.197  14.911  0.00  0.00    +0.000 OA
ATOM     12  H   UNL     1      -3.385  33.687  14.072  0.00  0.00    +0.000 HD
ENDBRANCH   8  11
ENDBRANCH   2   3
BRANCH   1  14
ATOM     13  O   UNL     1       5.660  31.748  16.516  0.00  0.00    +0.000 OA
ATOM     14  C   UNL     1       4.884  30.984  15.962  0.00  0.00    +0.000 C 
ATOM     15  C   UNL     1       5.343  29.710  15.482  0.00  0.00    +0.000 C 
ATOM     16  C   UNL     1       5.800  28.461  15.009  0.00  0.00    +0.000 C 
BRANCH  16  17
ATOM     17  O   UNL     1       4.850  27.540  14.637  0.00  0.00    +0.000 OA
ATOM     18  H   UNL     1       5.087  27.092  13.806  0.00  0.00    +0.000 HD
ENDBRANCH  16  17
BRANCH  16  19
ATOM     19  C   UNL     1       7.169  28.116  14.900  0.00  0.00    +0.000 C 
ATOM     20  C   UNL     1       8.652  27.744  14.791  0.00  0.00    +0.000 C 
BRANCH  20  21
ATOM     21  C   UNL     1      10.135  27.375  14.688  0.00  0.00    +0.000 C 
ATOM     22  C   UNL     1      11.618  27.003  14.586  0.00  0.00    +0.000 C 
ATOM     23  C   UNL     1      13.099  26.625  14.484  0.00  0.00    +0.000 C 
ENDBRANCH  20  21
ENDBRANCH  16  19
ENDBRANCH   1  14
TORSDOF 7
ENDMDL
MODEL 2
REMARK VINA RESULT:      -6.8      5.765      7.854
REMARK  Name = 442793_6gingerol.pdbqt.pdb
REMARK  7 active torsions:
REMARK  status: ('A' for Active; 'I' for Inactive)
REMARK    1  A    between atoms: C_1  and  C_3
REMARK    2  A    between atoms: C_5  and  O_6
REMARK    3  A    between atoms: C_5  and  C_8
REMARK    4  A    between atoms: C_9  and  C_10
REMARK    5  A    between atoms: C_13  and  C_14
REMARK    6  A    between atoms: C_17  and  O_20
REMARK    7  A    between atoms: C_19  and  O_22
REMARK                            x       y       z     vdW  Elec       q    Type
REMARK                         _______ _______ _______ _____ _____    ______ ____
ROOT
ATOM      1  C   UNL     1       6.839  32.424  16.318  0.00  0.00    +0.000 C 
ATOM      2  C   UNL     1       6.036  31.219  15.811  0.00  0.00    +0.000 C 
ENDROOT
BRANCH   2   3
ATOM      3  C   UNL     1       5.292  30.100  15.342  0.00  0.00    +0.000 A 
ATOM      4  C   UNL     1       3.912  30.055  15.533  0.00  0.00    +0.000 A 
ATOM      5  C   UNL     1       5.944  29.054  14.695  0.00  0.00    +0.000 A 
ATOM      6  C   UNL     1       3.167  28.963  15.079  0.00  0.00    +0.000 A 
ATOM      7  C   UNL     1       5.214  27.960  14.237  0.00  0.00    +0.000 A 
ATOM      8  C   UNL     1       3.834  27.919  14.431  0.00  0.00    +0.000 A 
BRANCH   6   9
ATOM      9  O   UNL     1       1.807  28.837  15.227  0.00  0.00    +0.000 OA
ATOM     10  C   UNL     1       1.119  30.022  15.529  0.00  0.00    +0.000 C 
ENDBRANCH   6   9
BRANCH   8  11
ATOM     11  O   UNL     1       3.124  26.841  13.979  0.00  0.00    +0.000 OA
ATOM     12  H   UNL     1       2.942  26.249  14.732  0.00  0.00    +0.000 HD
ENDBRANCH   8  11
ENDBRANCH   2   3
BRANCH   1  14
ATOM     13  O   UNL     1       7.276  34.115  17.833  0.00  0.00    +0.000 OA
ATOM     14  C   UNL     1       7.596  33.553  16.797  0.00  0.00    +0.000 C 
ATOM     15  C   UNL     1       8.728  34.016  16.044  0.00  0.00    +0.000 C 
ATOM     16  C   UNL     1       9.841  34.476  15.306  0.00  0.00    +0.000 C 
BRANCH  16  17
ATOM     17  O   UNL     1      10.314  33.664  14.304  0.00  0.00    +0.000 OA
ATOM     18  H   UNL     1      10.399  32.740  14.597  0.00  0.00    +0.000 HD
ENDBRANCH  16  17
BRANCH  16  19
ATOM     19  C   UNL     1      10.481  35.717  15.544  0.00  0.00    +0.000 C 
ATOM     20  C   UNL     1      11.171  37.059  15.812  0.00  0.00    +0.000 C 
BRANCH  20  21
ATOM     21  C   UNL     1      11.858  38.400  16.084  0.00  0.00    +0.000 C 
ATOM     22  C   UNL     1      12.547  39.741  16.357  0.00  0.00    +0.000 C 
ATOM     23  C   UNL     1      13.242  41.080  16.626  0.00  0.00    +0.000 C 
ENDBRANCH  20  21
ENDBRANCH  16  19
ENDBRANCH   1  14
TORSDOF 7
ENDMDL
MODEL 3
REMARK VINA RESULT:      -6.6      6.175      8.295
REMARK  Name = 442793_6gingerol.pdbqt.pdb
REMARK  7 active torsions:
REMARK  status: ('A' for Active; 'I' for Inactive)
REMARK    1  A    between atoms: C_1  and  C_3
REMARK    2  A    between atoms: C_5  and  O_6
REMARK    3  A    between atoms: C_5  and  C_8
REMARK    4  A    between atoms: C_9  and  C_10
REMARK    5  A    between atoms: C_13  and  C_14
REMARK    6  A    between atoms: C_17  and  O_20
REMARK    7  A    between atoms: C_19  and  O_22
REMARK                            x       y       z     vdW  Elec       q    Type
REMARK                         _______ _______ _______ _____ _____    ______ ____
ROOT
ATOM      1  C   UNL     1       6.517  33.482  16.429  0.00  0.00    +0.000 C 
ATOM      2  C   UNL     1       5.289  32.578  16.264  0.00  0.00    +0.000 C 
ENDROOT
BRANCH   2   3
ATOM      3  C   UNL     1       4.150  31.737  16.113  0.00  0.00    +0.000 A 
ATOM      4  C   UNL     1       4.320  30.379  15.847  0.00  0.00    +0.000 A 
ATOM      5  C   UNL     1       2.871  32.273  16.231  0.00  0.00    +0.000 A 
ATOM      6  C   UNL     1       3.212  29.541  15.695  0.00  0.00    +0.000 A 
ATOM      7  C   UNL     1       1.758  31.450  16.082  0.00  0.00    +0.000 A 
ATOM      8  C   UNL     1       1.933  30.092  15.815  0.00  0.00    +0.000 A 
BRANCH   6   9
ATOM      9  O   UNL     1       3.289  28.196  15.431  0.00  0.00    +0.000 OA
ATOM     10  C   UNL     1       3.743  27.855  14.148  0.00  0.00    +0.000 C 
ENDBRANCH   6   9
BRANCH   8  11
ATOM     11  O   UNL     1       0.835  29.289  15.671  0.00  0.00    +0.000 OA
ATOM     12  H   UNL     1       0.354  29.262  16.519  0.00  0.00    +0.000 HD
ENDBRANCH   8  11
ENDBRANCH   2   3
BRANCH   1  14
ATOM     13  O   UNL     1       8.660  33.922  17.181  0.00  0.00    +0.000 OA
ATOM     14  C   UNL     1       7.673  34.329  16.586  0.00  0.00    +0.000 C 
ATOM     15  C   UNL     1       7.654  35.657  16.040  0.00  0.00    +0.000 C 
ATOM     16  C   UNL     1       7.640  36.965  15.507  0.00  0.00    +0.000 C 
BRANCH  16  17
ATOM     17  O   UNL     1       6.628  37.280  14.633  0.00  0.00    +0.000 OA
ATOM     18  H   UNL     1       6.590  36.659  13.885  0.00  0.00    +0.000 HD
ENDBRANCH  16  17
BRANCH  16  19
ATOM     19  C   UNL     1       8.603  37.953  15.828  0.00  0.00    +0.000 C 
ATOM     20  C   UNL     1       9.642  39.027  16.166  0.00  0.00    +0.000 C 
BRANCH  20  21
ATOM     21  C   UNL     1      10.681  40.102  16.498  0.00  0.00    +0.000 C 
ATOM     22  C   UNL     1      11.721  41.177  16.831  0.00  0.00    +0.000 C 
ATOM     23  C   UNL     1      12.765  42.246  17.168  0.00  0.00    +0.000 C 
ENDBRANCH  20  21
ENDBRANCH  16  19
ENDBRANCH   1  14
TORSDOF 7
ENDMDL
MODEL 4
REMARK VINA RESULT:      -6.6      6.213      7.904
REMARK  Name = 442793_6gingerol.pdbqt.pdb
REMARK  7 active torsions:
REMARK  status: ('A' for Active; 'I' for Inactive)
REMARK    1  A    between atoms: C_1  and  C_3
REMARK    2  A    between atoms: C_5  and  O_6
REMARK    3  A    between atoms: C_5  and  C_8
REMARK    4  A    between atoms: C_9  and  C_10
REMARK    5  A    between atoms: C_13  and  C_14
REMARK    6  A    between atoms: C_17  and  O_20
REMARK    7  A    between atoms: C_19  and  O_22
REMARK                            x       y       z     vdW  Elec       q    Type
REMARK                         _______ _______ _______ _____ _____    ______ ____
ROOT
ATOM      1  C   UNL     1       6.548  33.473  16.325  0.00  0.00    +0.000 C 
ATOM      2  C   UNL     1       5.334  32.556  16.127  0.00  0.00    +0.000 C 
ENDROOT
BRANCH   2   3
ATOM      3  C   UNL     1       4.209  31.703  15.944  0.00  0.00    +0.000 A 
ATOM      4  C   UNL     1       3.044  32.206  15.366  0.00  0.00    +0.000 A 
ATOM      5  C   UNL     1       4.275  30.371  16.343  0.00  0.00    +0.000 A 
ATOM      6  C   UNL     1       1.931  31.381  15.180  0.00  0.00    +0.000 A 
ATOM      7  C   UNL     1       3.174  29.538  16.163  0.00  0.00    +0.000 A 
ATOM      8  C   UNL     1       2.011  30.045  15.585  0.00  0.00    +0.000 A 
BRANCH   6   9
ATOM      9  O   UNL     1       0.746  31.793  14.621  0.00  0.00    +0.000 OA
ATOM     10  C   UNL     1       0.499  33.173  14.676  0.00  0.00    +0.000 C 
ENDBRANCH   6   9
BRANCH   8  11
ATOM     11  O   UNL     1       0.933  29.222  15.412  0.00  0.00    +0.000 OA
ATOM     12  H   UNL     1       0.135  29.771  15.296  0.00  0.00    +0.000 HD
ENDBRANCH   8  11
ENDBRANCH   2   3
BRANCH   1  14
ATOM     13  O   UNL     1       8.673  33.929  17.115  0.00  0.00    +0.000 OA
ATOM     14  C   UNL     1       7.690  34.332  16.511  0.00  0.00    +0.000 C 
ATOM     15  C   UNL     1       7.664  35.667  15.982  0.00  0.00    +0.000 C 
ATOM     16  C   UNL     1       7.642  36.981  15.466  0.00  0.00    +0.000 C 
BRANCH  16  17
ATOM     17  O   UNL     1       6.641  37.296  14.580  0.00  0.00    +0.000 OA
ATOM     18  H   UNL     1       5.933  37.813  15.003  0.00  0.00    +0.000 HD
ENDBRANCH  16  17
BRANCH  16  19
ATOM     19  C   UNL     1       8.588  37.976  15.814  0.00  0.00    +0.000 C 
ATOM     20  C   UNL     1       9.617  39.046  16.196  0.00  0.00    +0.000 C 
BRANCH  20  21
ATOM     21  C   UNL     1      10.648  40.112  16.581  0.00  0.00    +0.000 C 
ATOM     22  C   UNL     1      11.679  41.177  16.968  0.00  0.00    +0.000 C 
ATOM     23  C   UNL     1      12.711  42.238  17.362  0.00  0.00    +0.000 C 
ENDBRANCH  20  21
ENDBRANCH  16  19
ENDBRANCH   1  14
TORSDOF 7
ENDMDL
MODEL 5
REMARK VINA RESULT:      -6.2      3.151      5.640
REMARK  Name = 442793_6gingerol.pdbqt.pdb
REMARK  7 active torsions:
REMARK  status: ('A' for Active; 'I' for Inactive)
REMARK    1  A    between atoms: C_1  and  C_3
REMARK    2  A    between atoms: C_5  and  O_6
REMARK    3  A    between atoms: C_5  and  C_8
REMARK    4  A    between atoms: C_9  and  C_10
REMARK    5  A    between atoms: C_13  and  C_14
REMARK    6  A    between atoms: C_17  and  O_20
REMARK    7  A    between atoms: C_19  and  O_22
REMARK                            x       y       z     vdW  Elec       q    Type
REMARK                         _______ _______ _______ _____ _____    ______ ____
ROOT
ATOM      1  C   UNL     1       8.068  28.783  15.349  0.00  0.00    +0.000 C 
ATOM      2  C   UNL     1       6.540  28.716  15.225  0.00  0.00    +0.000 C 
ENDROOT
BRANCH   2   3
ATOM      3  C   UNL     1       5.123  28.652  15.108  0.00  0.00    +0.000 A 
ATOM      4  C   UNL     1       4.328  29.560  15.805  0.00  0.00    +0.000 A 
ATOM      5  C   UNL     1       4.536  27.684  14.298  0.00  0.00    +0.000 A 
ATOM      6  C   UNL     1       2.935  29.509  15.701  0.00  0.00    +0.000 A 
ATOM      7  C   UNL     1       3.150  27.622  14.185  0.00  0.00    +0.000 A 
ATOM      8  C   UNL     1       2.358  28.532  14.885  0.00  0.00    +0.000 A 
BRANCH   6   9
ATOM      9  O   UNL     1       2.078  30.362  16.353  0.00  0.00    +0.000 OA
ATOM     10  C   UNL     1       2.072  31.686  15.889  0.00  0.00    +0.000 C 
ENDBRANCH   6   9
BRANCH   8  11
ATOM     11  O   UNL     1       0.997  28.466  14.769  0.00  0.00    +0.000 OA
ATOM     12  H   UNL     1       0.769  27.722  14.181  0.00  0.00    +0.000 HD
ENDBRANCH   8  11
ENDBRANCH   2   3
BRANCH   1  14
ATOM     13  O   UNL     1      10.091  29.903  15.301  0.00  0.00    +0.000 OA
ATOM     14  C   UNL     1       9.503  28.844  15.463  0.00  0.00    +0.000 C 
ATOM     15  C   UNL     1      10.239  27.648  15.766  0.00  0.00    +0.000 C 
ATOM     16  C   UNL     1      10.968  26.476  16.061  0.00  0.00    +0.000 C 
BRANCH  16  17
ATOM     17  O   UNL     1      10.257  25.381  16.489  0.00  0.00    +0.000 OA
ATOM     18  H   UNL     1       9.940  24.841  15.744  0.00  0.00    +0.000 HD
ENDBRANCH  16  17
BRANCH  16  19
ATOM     19  C   UNL     1      12.375  26.374  15.938  0.00  0.00    +0.000 C 
ATOM     20  C   UNL     1      13.897  26.255  15.801  0.00  0.00    +0.000 C 
BRANCH  20  21
ATOM     21  C   UNL     1      15.417  26.130  15.663  0.00  0.00    +0.000 C 
ATOM     22  C   UNL     1      16.938  26.003  15.527  0.00  0.00    +0.000 C 
ATOM     23  C   UNL     1      18.459  25.872  15.396  0.00  0.00    +0.000 C 
ENDBRANCH  20  21
ENDBRANCH  16  19
ENDBRANCH   1  14
TORSDOF 7
ENDMDL
MODEL 6
REMARK VINA RESULT:      -5.9      5.793      6.456
REMARK  Name = 442793_6gingerol.pdbqt.pdb
REMARK  7 active torsions:
REMARK  status: ('A' for Active; 'I' for Inactive)
REMARK    1  A    between atoms: C_1  and  C_3
REMARK    2  A    between atoms: C_5  and  O_6
REMARK    3  A    between atoms: C_5  and  C_8
REMARK    4  A    between atoms: C_9  and  C_10
REMARK    5  A    between atoms: C_13  and  C_14
REMARK    6  A    between atoms: C_17  and  O_20
REMARK    7  A    between atoms: C_19  and  O_22
REMARK                            x       y       z     vdW  Elec       q    Type
REMARK                         _______ _______ _______ _____ _____    ______ ____
ROOT
ATOM      1  C   UNL     1       6.570  33.431  16.789  0.00  0.00    +0.000 C 
ATOM      2  C   UNL     1       5.271  32.722  16.387  0.00  0.00    +0.000 C 
ENDROOT
BRANCH   2   3
ATOM      3  C   UNL     1       4.065  32.061  16.015  0.00  0.00    +0.000 A 
ATOM      4  C   UNL     1       3.016  32.793  15.460  0.00  0.00    +0.000 A 
ATOM      5  C   UNL     1       3.938  30.689  16.208  0.00  0.00    +0.000 A 
ATOM      6  C   UNL     1       1.826  32.159  15.091  0.00  0.00    +0.000 A 
ATOM      7  C   UNL     1       2.758  30.044  15.845  0.00  0.00    +0.000 A 
ATOM      8  C   UNL     1       1.711  30.780  15.290  0.00  0.00    +0.000 A 
BRANCH   6   9
ATOM      9  O   UNL     1       0.745  32.802  14.540  0.00  0.00    +0.000 OA
ATOM     10  C   UNL     1       0.675  34.183  14.778  0.00  0.00    +0.000 C 
ENDBRANCH   6   9
BRANCH   8  11
ATOM     11  O   UNL     1       0.555  30.141  14.936  0.00  0.00    +0.000 OA
ATOM     12  H   UNL     1      -0.200  30.718  15.153  0.00  0.00    +0.000 HD
ENDBRANCH   8  11
ENDBRANCH   2   3
BRANCH   1  14
ATOM     13  O   UNL     1       7.889  34.629  18.263  0.00  0.00    +0.000 OA
ATOM     14  C   UNL     1       7.792  34.095  17.168  0.00  0.00    +0.000 C 
ATOM     15  C   UNL     1       8.894  34.125  16.248  0.00  0.00    +0.000 C 
ATOM     16  C   UNL     1       9.981  34.160  15.347  0.00  0.00    +0.000 C 
BRANCH  16  17
ATOM     17  O   UNL     1       9.920  33.332  14.252  0.00  0.00    +0.000 OA
ATOM     18  H   UNL     1      10.146  33.802  13.431  0.00  0.00    +0.000 HD
ENDBRANCH  16  17
BRANCH  16  19
ATOM     19  C   UNL     1      11.112  34.997  15.513  0.00  0.00    +0.000 C 
ATOM     20  C   UNL     1      12.330  35.906  15.700  0.00  0.00    +0.000 C 
BRANCH  20  21
ATOM     21  C   UNL     1      13.545  36.820  15.891  0.00  0.00    +0.000 C 
ATOM     22  C   UNL     1      14.759  37.735  16.080  0.00  0.00    +0.000 C 
ATOM     23  C   UNL     1      15.969  38.656  16.268  0.00  0.00    +0.000 C 
ENDBRANCH  20  21
ENDBRANCH  16  19
ENDBRANCH   1  14
TORSDOF 7
ENDMDL
MODEL 7
REMARK VINA RESULT:      -5.8      5.769      6.929
REMARK  Name = 442793_6gingerol.pdbqt.pdb
REMARK  7 active torsions:
REMARK  status: ('A' for Active; 'I' for Inactive)
REMARK    1  A    between atoms: C_1  and  C_3
REMARK    2  A    between atoms: C_5  and  O_6
REMARK    3  A    between atoms: C_5  and  C_8
REMARK    4  A    between atoms: C_9  and  C_10
REMARK    5  A    between atoms: C_13  and  C_14
REMARK    6  A    between atoms: C_17  and  O_20
REMARK    7  A    between atoms: C_19  and  O_22
REMARK                            x       y       z     vdW  Elec       q    Type
REMARK                         _______ _______ _______ _____ _____    ______ ____
ROOT
ATOM      1  C   UNL     1       6.572  33.412  16.785  0.00  0.00    +0.000 C 
ATOM      2  C   UNL     1       5.280  32.693  16.379  0.00  0.00    +0.000 C 
ENDROOT
BRANCH   2   3
ATOM      3  C   UNL     1       4.081  32.022  16.003  0.00  0.00    +0.000 A 
ATOM      4  C   UNL     1       4.022  30.631  16.045  0.00  0.00    +0.000 A 
ATOM      5  C   UNL     1       2.973  32.759  15.594  0.00  0.00    +0.000 A 
ATOM      6  C   UNL     1       2.853  29.958  15.678  0.00  0.00    +0.000 A 
ATOM      7  C   UNL     1       1.802  32.102  15.225  0.00  0.00    +0.000 A 
ATOM      8  C   UNL     1       1.747  30.709  15.268  0.00  0.00    +0.000 A 
BRANCH   6   9
ATOM      9  O   UNL     1       2.709  28.592  15.689  0.00  0.00    +0.000 OA
ATOM     10  C   UNL     1       3.434  27.898  14.707  0.00  0.00    +0.000 C 
ENDBRANCH   6   9
BRANCH   8  11
ATOM     11  O   UNL     1       0.594  30.070  14.906  0.00  0.00    +0.000 OA
ATOM     12  H   UNL     1       0.424  29.348  15.539  0.00  0.00    +0.000 HD
ENDBRANCH   8  11
ENDBRANCH   2   3
BRANCH   1  14
ATOM     13  O   UNL     1       7.873  34.629  18.260  0.00  0.00    +0.000 OA
ATOM     14  C   UNL     1       7.787  34.086  17.169  0.00  0.00    +0.000 C 
ATOM     15  C   UNL     1       8.896  34.117  16.257  0.00  0.00    +0.000 C 
ATOM     16  C   UNL     1       9.988  34.152  15.363  0.00  0.00    +0.000 C 
BRANCH  16  17
ATOM     17  O   UNL     1       9.940  33.316  14.273  0.00  0.00    +0.000 OA
ATOM     18  H   UNL     1       9.781  33.807  13.448  0.00  0.00    +0.000 HD
ENDBRANCH  16  17
BRANCH  16  19
ATOM     19  C   UNL     1      11.113  34.996  15.531  0.00  0.00    +0.000 C 
ATOM     20  C   UNL     1      12.335  35.904  15.706  0.00  0.00    +0.000 C 
BRANCH  20  21
ATOM     21  C   UNL     1      13.560  36.808  15.877  0.00  0.00    +0.000 C 
ATOM     22  C   UNL     1      14.786  37.710  16.049  0.00  0.00    +0.000 C 
ATOM     23  C   UNL     1      16.017  38.607  16.219  0.00  0.00    +0.000 C 
ENDBRANCH  20  21
ENDBRANCH  16  19
ENDBRANCH   1  14
TORSDOF 7
ENDMDL
MODEL 8
REMARK VINA RESULT:      -5.8     23.711     26.252
REMARK  Name = 442793_6gingerol.pdbqt.pdb
REMARK  7 active torsions:
REMARK  status: ('A' for Active; 'I' for Inactive)
REMARK    1  A    between atoms: C_1  and  C_3
REMARK    2  A    between atoms: C_5  and  O_6
REMARK    3  A    between atoms: C_5  and  C_8
REMARK    4  A    between atoms: C_9  and  C_10
REMARK    5  A    between atoms: C_13  and  C_14
REMARK    6  A    between atoms: C_17  and  O_20
REMARK    7  A    between atoms: C_19  and  O_22
REMARK                            x       y       z     vdW  Elec       q    Type
REMARK                         _______ _______ _______ _____ _____    ______ ____
ROOT
ATOM      1  C   UNL     1      19.637  40.413  -2.664  0.00  0.00    +0.000 C 
ATOM      2  C   UNL     1      18.814  41.183  -3.705  0.00  0.00    +0.000 C 
ENDROOT
BRANCH   2   3
ATOM      3  C   UNL     1      18.050  41.896  -4.673  0.00  0.00    +0.000 A 
ATOM      4  C   UNL     1      18.344  41.755  -6.028  0.00  0.00    +0.000 A 
ATOM      5  C   UNL     1      17.015  42.730  -4.262  0.00  0.00    +0.000 A 
ATOM      6  C   UNL     1      17.604  42.449  -6.990  0.00  0.00    +0.000 A 
ATOM      7  C   UNL     1      16.269  43.427  -5.210  0.00  0.00    +0.000 A 
ATOM      8  C   UNL     1      16.567  43.284  -6.565  0.00  0.00    +0.000 A 
BRANCH   6   9
ATOM      9  O   UNL     1      17.826  42.370  -8.343  0.00  0.00    +0.000 OA
ATOM     10  C   UNL     1      19.166  42.481  -8.745  0.00  0.00    +0.000 C 
ENDBRANCH   6   9
BRANCH   8  11
ATOM     11  O   UNL     1      15.831  43.971  -7.490  0.00  0.00    +0.000 OA
ATOM     12  H   UNL     1      16.333  44.006  -8.326  0.00  0.00    +0.000 HD
ENDBRANCH   8  11
ENDBRANCH   2   3
BRANCH   1  14
ATOM     13  O   UNL     1      21.427  40.180  -1.219  0.00  0.00    +0.000 OA
ATOM     14  C   UNL     1      20.412  39.688  -1.689  0.00  0.00    +0.000 C 
ATOM     15  C   UNL     1      19.983  38.382  -1.275  0.00  0.00    +0.000 C 
ATOM     16  C   UNL     1      19.567  37.096  -0.867  0.00  0.00    +0.000 C 
BRANCH  16  17
ATOM     17  O   UNL     1      18.299  36.701  -1.218  0.00  0.00    +0.000 OA
ATOM     18  H   UNL     1      17.733  36.565  -0.438  0.00  0.00    +0.000 HD
ENDBRANCH  16  17
BRANCH  16  19
ATOM     19  C   UNL     1      20.382  36.206  -0.125  0.00  0.00    +0.000 C 
ATOM     20  C   UNL     1      21.270  35.242   0.669  0.00  0.00    +0.000 C 
BRANCH  20  21
ATOM     21  C   UNL     1      22.161  34.278   1.458  0.00  0.00    +0.000 C 
ATOM     22  C   UNL     1      23.052  33.314   2.248  0.00  0.00    +0.000 C 
ATOM     23  C   UNL     1      23.944  32.356   3.044  0.00  0.00    +0.000 C 
ENDBRANCH  20  21
ENDBRANCH  16  19
ENDBRANCH   1  14
TORSDOF 7
ENDMDL
MODEL 9
REMARK VINA RESULT:      -5.7      9.581     15.192
REMARK  Name = 442793_6gingerol.pdbqt.pdb
REMARK  7 active torsions:
REMARK  status: ('A' for Active; 'I' for Inactive)
REMARK    1  A    between atoms: C_1  and  C_3
REMARK    2  A    between atoms: C_5  and  O_6
REMARK    3  A    between atoms: C_5  and  C_8
REMARK    4  A    between atoms: C_9  and  C_10
REMARK    5  A    between atoms: C_13  and  C_14
REMARK    6  A    between atoms: C_17  and  O_20
REMARK    7  A    between atoms: C_19  and  O_22
REMARK                            x       y       z     vdW  Elec       q    Type
REMARK                         _______ _______ _______ _____ _____    ______ ____
ROOT
ATOM      1  C   UNL     1       5.613  40.254  15.952  0.00  0.00    +0.000 C 
ATOM      2  C   UNL     1       7.013  39.649  15.789  0.00  0.00    +0.000 C 
ENDROOT
BRANCH   2   3
ATOM      3  C   UNL     1       8.312  39.085  15.636  0.00  0.00    +0.000 A 
ATOM      4  C   UNL     1       9.394  39.643  16.314  0.00  0.00    +0.000 A 
ATOM      5  C   UNL     1       8.496  37.980  14.811  0.00  0.00    +0.000 A 
ATOM      6  C   UNL     1      10.675  39.102  16.173  0.00  0.00    +0.000 A 
ATOM      7  C   UNL     1       9.766  37.430  14.662  0.00  0.00    +0.000 A 
ATOM      8  C   UNL     1      10.847  37.992  15.341  0.00  0.00    +0.000 A 
BRANCH   6   9
ATOM      9  O   UNL     1      11.795  39.589  16.802  0.00  0.00    +0.000 OA
ATOM     10  C   UNL     1      11.754  40.948  17.147  0.00  0.00    +0.000 C 
ENDBRANCH   6   9
BRANCH   8  11
ATOM     11  O   UNL     1      12.092  37.447  15.190  0.00  0.00    +0.000 OA
ATOM     12  H   UNL     1      12.209  37.188  14.257  0.00  0.00    +0.000 HD
ENDBRANCH   8  11
ENDBRANCH   2   3
BRANCH   1  14
ATOM     13  O   UNL     1       3.316  40.094  16.170  0.00  0.00    +0.000 OA
ATOM     14  C   UNL     1       4.296  40.821  16.104  0.00  0.00    +0.000 C 
ATOM     15  C   UNL     1       4.145  42.247  16.174  0.00  0.00    +0.000 C 
ATOM     16  C   UNL     1       3.990  43.649  16.242  0.00  0.00    +0.000 C 
BRANCH  16  17
ATOM     17  O   UNL     1       5.124  44.402  16.427  0.00  0.00    +0.000 OA
ATOM     18  H   UNL     1       5.736  43.985  17.059  0.00  0.00    +0.000 HD
ENDBRANCH  16  17
BRANCH  16  19
ATOM     19  C   UNL     1       2.741  44.307  16.127  0.00  0.00    +0.000 C 
ATOM     20  C   UNL     1       1.393  45.023  15.995  0.00  0.00    +0.000 C 
BRANCH  20  21
ATOM     21  C   UNL     1       0.048  45.743  15.859  0.00  0.00    +0.000 C 
ATOM     22  C   UNL     1      -1.298  46.463  15.724  0.00  0.00    +0.000 C 
ATOM     23  C   UNL     1      -2.643  47.186  15.597  0.00  0.00    +0.000 C 
ENDBRANCH  20  21
ENDBRANCH  16  19
ENDBRANCH   1  14
TORSDOF 7
ENDMDL
