MODEL 1
REMARK VINA RESULT:      -7.5      0.000      0.000
REMARK  Name = 44423609_SipholenoneA.pdbqt.pdb
REMARK  4 active torsions:
REMARK  status: ('A' for Active; 'I' for Inactive)
REMARK    1  A    between atoms: C_3  and  C_19
REMARK    2  A    between atoms: C_5  and  O_17
REMARK    3  A    between atoms: C_20  and  C_24
REMARK    4  A    between atoms: C_25  and  O_35
REMARK                            x       y       z     vdW  Elec       q    Type
REMARK                         _______ _______ _______ _____ _____    ______ ____
ROOT
ATOM      1  O   UNL     1     -12.251  40.604  14.365  0.00  0.00    +0.000 OA
ATOM      2  O   UNL     1     -13.300  43.794  15.918  0.00  0.00    +0.000 OA
ATOM      3  C   UNL     1      -8.377  40.973  13.683  0.00  0.00    +0.000 C 
ATOM      4  C   UNL     1      -9.663  40.843  14.496  0.00  0.00    +0.000 C 
ATOM      5  C   UNL     1      -8.204  40.182  12.397  0.00  0.00    +0.000 C 
ATOM      6  C   UNL     1     -11.012  40.551  13.717  0.00  0.00    +0.000 C 
ATOM      7  C   UNL     1      -9.500  39.693  11.968  0.00  0.00    +0.000 C 
ATOM      8  C   UNL     1     -10.881  39.824  12.517  0.00  0.00    +0.000 C 
ATOM      9  C   UNL     1      -9.992  42.119  15.154  0.00  0.00    +0.000 C 
ATOM     10  C   UNL     1      -9.487  39.735  15.572  0.00  0.00    +0.000 C 
ATOM     11  C   UNL     1      -7.538  41.038  11.313  0.00  0.00    +0.000 C 
ATOM     12  C   UNL     1     -11.190  42.969  15.521  0.00  0.00    +0.000 C 
ATOM     13  C   UNL     1     -13.067  41.820  14.289  0.00  0.00    +0.000 C 
ATOM     14  C   UNL     1     -12.622  42.959  15.333  0.00  0.00    +0.000 C 
ATOM     15  C   UNL     1     -14.523  41.344  14.604  0.00  0.00    +0.000 C 
ATOM     16  C   UNL     1     -13.030  42.416  12.832  0.00  0.00    +0.000 C 
ENDROOT
BRANCH   5  17
ATOM     17  O   UNL     1      -7.336  39.099  12.619  0.00  0.00    +0.000 OA
ATOM     18  H   UNL     1      -7.721  38.425  12.030  0.00  0.00    +0.000 HD
ENDBRANCH   5  17
BRANCH   3  19
ATOM     19  C   UNL     1      -7.239  41.637  14.267  0.00  0.00    +0.000 C 
ATOM     20  C   UNL     1      -6.023  42.334  14.881  0.00  0.00    +0.000 C 
BRANCH  20  24
ATOM     21  C   UNL     1      -2.804  41.713  16.438  0.00  0.00    +0.000 C 
ATOM     22  C   UNL     1      -4.158  42.415  16.708  0.00  0.00    +0.000 C 
ATOM     23  C   UNL     1      -1.559  42.377  15.907  0.00  0.00    +0.000 C 
ATOM     24  C   UNL     1      -4.880  42.979  15.460  0.00  0.00    +0.000 C 
ATOM     25  C   UNL     1      -0.390  41.397  15.803  0.00  0.00    +0.000 C 
ATOM     26  C   UNL     1      -2.460  40.355  16.696  0.00  0.00    +0.000 C 
ATOM     27  C   UNL     1      -1.014  40.186  16.322  0.00  0.00    +0.000 C 
ATOM     28  C   UNL     1      -1.787  43.530  15.127  0.00  0.00    +0.000 C 
ATOM     29  C   UNL     1      -4.339  44.157  14.779  0.00  0.00    +0.000 C 
ATOM     30  C   UNL     1      -5.108  41.376  17.419  0.00  0.00    +0.000 C 
ATOM     31  C   UNL     1      -3.922  43.562  17.748  0.00  0.00    +0.000 C 
ATOM     32  C   UNL     1      -3.047  44.234  14.700  0.00  0.00    +0.000 C 
ATOM     33  C   UNL     1       0.837  41.890  16.550  0.00  0.00    +0.000 C 
ATOM     34  C   UNL     1      -5.131  45.015  13.828  0.00  0.00    +0.000 C 
BRANCH  25  35
ATOM     35  O   UNL     1      -0.014  41.218  14.459  0.00  0.00    +0.000 OA
ATOM     36  H   UNL     1      -0.667  41.785  14.013  0.00  0.00    +0.000 HD
ENDBRANCH  25  35
ENDBRANCH  20  24
ENDBRANCH   3  19
TORSDOF 4
ENDMDL
MODEL 2
REMARK VINA RESULT:      -6.9      3.402      4.763
REMARK  Name = 44423609_SipholenoneA.pdbqt.pdb
REMARK  4 active torsions:
REMARK  status: ('A' for Active; 'I' for Inactive)
REMARK    1  A    between atoms: C_3  and  C_19
REMARK    2  A    between atoms: C_5  and  O_17
REMARK    3  A    between atoms: C_20  and  C_24
REMARK    4  A    between atoms: C_25  and  O_35
REMARK                            x       y       z     vdW  Elec       q    Type
REMARK                         _______ _______ _______ _____ _____    ______ ____
ROOT
ATOM      1  O   UNL     1     -14.424  41.051  14.239  0.00  0.00    +0.000 OA
ATOM      2  O   UNL     1     -15.058  44.472  15.500  0.00  0.00    +0.000 OA
ATOM      3  C   UNL     1     -10.837  41.171  12.588  0.00  0.00    +0.000 C 
ATOM      4  C   UNL     1     -11.884  41.210  13.699  0.00  0.00    +0.000 C 
ATOM      5  C   UNL     1     -10.985  40.195  11.433  0.00  0.00    +0.000 C 
ATOM      6  C   UNL     1     -13.383  40.858  13.324  0.00  0.00    +0.000 C 
ATOM      7  C   UNL     1     -12.347  39.697  11.411  0.00  0.00    +0.000 C 
ATOM      8  C   UNL     1     -13.551  39.959  12.252  0.00  0.00    +0.000 C 
ATOM      9  C   UNL     1     -12.041  42.580  14.217  0.00  0.00    +0.000 C 
ATOM     10  C   UNL     1     -11.448  40.266  14.855  0.00  0.00    +0.000 C 
ATOM     11  C   UNL     1     -10.607  40.857  10.103  0.00  0.00    +0.000 C 
ATOM     12  C   UNL     1     -13.111  43.519  14.731  0.00  0.00    +0.000 C 
ATOM     13  C   UNL     1     -15.234  42.273  14.180  0.00  0.00    +0.000 C 
ATOM     14  C   UNL     1     -14.545  43.535  14.901  0.00  0.00    +0.000 C 
ATOM     15  C   UNL     1     -16.567  41.903  14.907  0.00  0.00    +0.000 C 
ATOM     16  C   UNL     1     -15.556  42.648  12.685  0.00  0.00    +0.000 C 
ENDROOT
BRANCH   5  17
ATOM     17  O   UNL     1     -10.090  39.125  11.599  0.00  0.00    +0.000 OA
ATOM     18  H   UNL     1     -10.643  38.372  11.321  0.00  0.00    +0.000 HD
ENDBRANCH   5  17
BRANCH   3  19
ATOM     19  C   UNL     1      -9.590  41.870  12.770  0.00  0.00    +0.000 C 
ATOM     20  C   UNL     1      -8.272  42.624  12.967  0.00  0.00    +0.000 C 
BRANCH  20  24
ATOM     21  C   UNL     1      -5.496  44.133  11.180  0.00  0.00    +0.000 C 
ATOM     22  C   UNL     1      -5.796  43.066  12.262  0.00  0.00    +0.000 C 
ATOM     23  C   UNL     1      -5.111  45.566  11.442  0.00  0.00    +0.000 C 
ATOM     24  C   UNL     1      -7.040  43.337  13.143  0.00  0.00    +0.000 C 
ATOM     25  C   UNL     1      -4.844  46.331  10.144  0.00  0.00    +0.000 C 
ATOM     26  C   UNL     1      -5.462  43.955   9.767  0.00  0.00    +0.000 C 
ATOM     27  C   UNL     1      -5.061  45.272   9.166  0.00  0.00    +0.000 C 
ATOM     28  C   UNL     1      -5.564  46.089  12.671  0.00  0.00    +0.000 C 
ATOM     29  C   UNL     1      -7.007  44.415  14.133  0.00  0.00    +0.000 C 
ATOM     30  C   UNL     1      -5.980  41.678  11.535  0.00  0.00    +0.000 C 
ATOM     31  C   UNL     1      -4.528  42.910  13.169  0.00  0.00    +0.000 C 
ATOM     32  C   UNL     1      -6.382  45.496  13.787  0.00  0.00    +0.000 C 
ATOM     33  C   UNL     1      -3.471  46.980  10.136  0.00  0.00    +0.000 C 
ATOM     34  C   UNL     1      -7.970  44.525  15.287  0.00  0.00    +0.000 C 
BRANCH  25  35
ATOM     35  O   UNL     1      -5.791  47.358   9.974  0.00  0.00    +0.000 OA
ATOM     36  H   UNL     1      -6.535  46.857   9.598  0.00  0.00    +0.000 HD
ENDBRANCH  25  35
ENDBRANCH  20  24
ENDBRANCH   3  19
TORSDOF 4
ENDMDL
MODEL 3
REMARK VINA RESULT:      -6.5     18.603     21.915
REMARK  Name = 44423609_SipholenoneA.pdbqt.pdb
REMARK  4 active torsions:
REMARK  status: ('A' for Active; 'I' for Inactive)
REMARK    1  A    between atoms: C_3  and  C_19
REMARK    2  A    between atoms: C_5  and  O_17
REMARK    3  A    between atoms: C_20  and  C_24
REMARK    4  A    between atoms: C_25  and  O_35
REMARK                            x       y       z     vdW  Elec       q    Type
REMARK                         _______ _______ _______ _____ _____    ______ ____
ROOT
ATOM      1  O   UNL     1      -3.660  63.396   7.203  0.00  0.00    +0.000 OA
ATOM      2  O   UNL     1      -6.943  63.729   8.878  0.00  0.00    +0.000 OA
ATOM      3  C   UNL     1      -0.974  63.453  10.100  0.00  0.00    +0.000 C 
ATOM      4  C   UNL     1      -2.130  62.923   9.253  0.00  0.00    +0.000 C 
ATOM      5  C   UNL     1       0.193  64.167   9.437  0.00  0.00    +0.000 C 
ATOM      6  C   UNL     1      -2.505  63.707   7.928  0.00  0.00    +0.000 C 
ATOM      7  C   UNL     1      -0.192  64.545   8.091  0.00  0.00    +0.000 C 
ATOM      8  C   UNL     1      -1.443  64.383   7.295  0.00  0.00    +0.000 C 
ATOM      9  C   UNL     1      -3.399  63.007   9.995  0.00  0.00    +0.000 C 
ATOM     10  C   UNL     1      -1.853  61.442   8.867  0.00  0.00    +0.000 C 
ATOM     11  C   UNL     1       0.631  65.382  10.261  0.00  0.00    +0.000 C 
ATOM     12  C   UNL     1      -4.866  63.304   9.770  0.00  0.00    +0.000 C 
ATOM     13  C   UNL     1      -4.885  64.177   7.404  0.00  0.00    +0.000 C 
ATOM     14  C   UNL     1      -5.733  63.723   8.693  0.00  0.00    +0.000 C 
ATOM     15  C   UNL     1      -5.723  63.948   6.105  0.00  0.00    +0.000 C 
ATOM     16  C   UNL     1      -4.545  65.710   7.528  0.00  0.00    +0.000 C 
ENDROOT
BRANCH   5  17
ATOM     17  O   UNL     1       1.307  63.311   9.391  0.00  0.00    +0.000 OA
ATOM     18  H   UNL     1       1.910  63.753  10.016  0.00  0.00    +0.000 HD
ENDBRANCH   5  17
BRANCH   3  19
ATOM     19  C   UNL     1      -0.869  63.050  11.479  0.00  0.00    +0.000 C 
ATOM     20  C   UNL     1      -0.766  62.630  12.947  0.00  0.00    +0.000 C 
BRANCH  20  24
ATOM     21  C   UNL     1      -2.132  60.389  15.454  0.00  0.00    +0.000 C 
ATOM     22  C   UNL     1      -1.912  61.897  15.178  0.00  0.00    +0.000 C 
ATOM     23  C   UNL     1      -1.219  59.500  16.260  0.00  0.00    +0.000 C 
ATOM     24  C   UNL     1      -0.667  62.246  14.326  0.00  0.00    +0.000 C 
ATOM     25  C   UNL     1      -1.763  58.075  16.370  0.00  0.00    +0.000 C 
ATOM     26  C   UNL     1      -3.244  59.586  15.068  0.00  0.00    +0.000 C 
ATOM     27  C   UNL     1      -3.013  58.212  15.632  0.00  0.00    +0.000 C 
ATOM     28  C   UNL     1       0.129  59.912  16.300  0.00  0.00    +0.000 C 
ATOM     29  C   UNL     1       0.671  62.097  14.902  0.00  0.00    +0.000 C 
ATOM     30  C   UNL     1      -3.198  62.448  14.448  0.00  0.00    +0.000 C 
ATOM     31  C   UNL     1      -1.843  62.647  16.551  0.00  0.00    +0.000 C 
ATOM     32  C   UNL     1       0.854  61.075  15.677  0.00  0.00    +0.000 C 
ATOM     33  C   UNL     1      -1.884  57.619  17.814  0.00  0.00    +0.000 C 
ATOM     34  C   UNL     1       1.905  62.755  14.340  0.00  0.00    +0.000 C 
BRANCH  25  35
ATOM     35  O   UNL     1      -0.905  57.169  15.719  0.00  0.00    +0.000 OA
ATOM     36  H   UNL     1      -1.274  57.186  14.819  0.00  0.00    +0.000 HD
ENDBRANCH  25  35
ENDBRANCH  20  24
ENDBRANCH   3  19
TORSDOF 4
ENDMDL
MODEL 4
REMARK VINA RESULT:      -6.4     21.627     25.119
REMARK  Name = 44423609_SipholenoneA.pdbqt.pdb
REMARK  4 active torsions:
REMARK  status: ('A' for Active; 'I' for Inactive)
REMARK    1  A    between atoms: C_3  and  C_19
REMARK    2  A    between atoms: C_5  and  O_17
REMARK    3  A    between atoms: C_20  and  C_24
REMARK    4  A    between atoms: C_25  and  O_35
REMARK                            x       y       z     vdW  Elec       q    Type
REMARK                         _______ _______ _______ _____ _____    ______ ____
ROOT
ATOM      1  O   UNL     1       1.660  64.195  16.059  0.00  0.00    +0.000 OA
ATOM      2  O   UNL     1       1.881  60.502  15.974  0.00  0.00    +0.000 OA
ATOM      3  C   UNL     1       1.077  65.315  12.315  0.00  0.00    +0.000 C 
ATOM      4  C   UNL     1       0.762  64.669  13.663  0.00  0.00    +0.000 C 
ATOM      5  C   UNL     1       1.828  66.634  12.257  0.00  0.00    +0.000 C 
ATOM      6  C   UNL     1       1.780  64.900  14.856  0.00  0.00    +0.000 C 
ATOM      7  C   UNL     1       2.451  66.877  13.544  0.00  0.00    +0.000 C 
ATOM      8  C   UNL     1       2.495  66.113  14.825  0.00  0.00    +0.000 C 
ATOM      9  C   UNL     1       0.788  63.201  13.555  0.00  0.00    +0.000 C 
ATOM     10  C   UNL     1      -0.644  65.128  14.142  0.00  0.00    +0.000 C 
ATOM     11  C   UNL     1       2.860  66.628  11.124  0.00  0.00    +0.000 C 
ATOM     12  C   UNL     1       1.198  61.978  14.347  0.00  0.00    +0.000 C 
ATOM     13  C   UNL     1       2.461  62.987  16.283  0.00  0.00    +0.000 C 
ATOM     14  C   UNL     1       1.841  61.668  15.603  0.00  0.00    +0.000 C 
ATOM     15  C   UNL     1       2.502  62.818  17.837  0.00  0.00    +0.000 C 
ATOM     16  C   UNL     1       3.929  63.195  15.754  0.00  0.00    +0.000 C 
ENDROOT
BRANCH   5  17
ATOM     17  O   UNL     1       0.934  67.676  11.958  0.00  0.00    +0.000 OA
ATOM     18  H   UNL     1       1.148  67.846  11.023  0.00  0.00    +0.000 HD
ENDBRANCH   5  17
BRANCH   3  19
ATOM     19  C   UNL     1       0.440  64.808  11.126  0.00  0.00    +0.000 C 
ATOM     20  C   UNL     1      -0.242  64.281   9.861  0.00  0.00    +0.000 C 
BRANCH  20  24
ATOM     21  C   UNL     1      -3.476  63.435   8.447  0.00  0.00    +0.000 C 
ATOM     22  C   UNL     1      -2.088  62.812   8.739  0.00  0.00    +0.000 C 
ATOM     23  C   UNL     1      -3.913  64.032   7.134  0.00  0.00    +0.000 C 
ATOM     24  C   UNL     1      -0.889  63.791   8.678  0.00  0.00    +0.000 C 
ATOM     25  C   UNL     1      -5.364  64.516   7.183  0.00  0.00    +0.000 C 
ATOM     26  C   UNL     1      -4.601  63.501   9.318  0.00  0.00    +0.000 C 
ATOM     27  C   UNL     1      -5.721  64.139   8.545  0.00  0.00    +0.000 C 
ATOM     28  C   UNL     1      -2.868  64.529   6.329  0.00  0.00    +0.000 C 
ATOM     29  C   UNL     1      -0.446  64.317   7.386  0.00  0.00    +0.000 C 
ATOM     30  C   UNL     1      -2.141  62.162  10.175  0.00  0.00    +0.000 C 
ATOM     31  C   UNL     1      -1.856  61.628   7.740  0.00  0.00    +0.000 C 
ATOM     32  C   UNL     1      -1.377  64.596   6.528  0.00  0.00    +0.000 C 
ATOM     33  C   UNL     1      -6.207  63.906   6.076  0.00  0.00    +0.000 C 
ATOM     34  C   UNL     1       0.905  64.940   7.151  0.00  0.00    +0.000 C 
BRANCH  25  35
ATOM     35  O   UNL     1      -5.423  65.913   7.029  0.00  0.00    +0.000 OA
ATOM     36  H   UNL     1      -5.581  65.982   6.071  0.00  0.00    +0.000 HD
ENDBRANCH  25  35
ENDBRANCH  20  24
ENDBRANCH   3  19
TORSDOF 4
ENDMDL
MODEL 5
REMARK VINA RESULT:      -6.1     12.845     17.043
REMARK  Name = 44423609_SipholenoneA.pdbqt.pdb
REMARK  4 active torsions:
REMARK  status: ('A' for Active; 'I' for Inactive)
REMARK    1  A    between atoms: C_3  and  C_19
REMARK    2  A    between atoms: C_5  and  O_17
REMARK    3  A    between atoms: C_20  and  C_24
REMARK    4  A    between atoms: C_25  and  O_35
REMARK                            x       y       z     vdW  Elec       q    Type
REMARK                         _______ _______ _______ _____ _____    ______ ____
ROOT
ATOM      1  O   UNL     1     -19.614  38.901   8.870  0.00  0.00    +0.000 OA
ATOM      2  O   UNL     1     -20.999  36.886  11.648  0.00  0.00    +0.000 OA
ATOM      3  C   UNL     1     -17.136  36.501   6.944  0.00  0.00    +0.000 C 
ATOM      4  C   UNL     1     -18.470  37.037   7.460  0.00  0.00    +0.000 C 
ATOM      5  C   UNL     1     -16.051  37.463   6.490  0.00  0.00    +0.000 C 
ATOM      6  C   UNL     1     -18.472  38.434   8.210  0.00  0.00    +0.000 C 
ATOM      7  C   UNL     1     -16.362  38.790   6.985  0.00  0.00    +0.000 C 
ATOM      8  C   UNL     1     -17.473  39.344   7.813  0.00  0.00    +0.000 C 
ATOM      9  C   UNL     1     -19.013  36.157   8.509  0.00  0.00    +0.000 C 
ATOM     10  C   UNL     1     -19.482  37.127   6.284  0.00  0.00    +0.000 C 
ATOM     11  C   UNL     1     -14.670  36.994   6.964  0.00  0.00    +0.000 C 
ATOM     12  C   UNL     1     -19.775  36.229   9.815  0.00  0.00    +0.000 C 
ATOM     13  C   UNL     1     -19.757  38.701  10.317  0.00  0.00    +0.000 C 
ATOM     14  C   UNL     1     -20.290  37.236  10.713  0.00  0.00    +0.000 C 
ATOM     15  C   UNL     1     -20.789  39.786  10.769  0.00  0.00    +0.000 C 
ATOM     16  C   UNL     1     -18.388  38.964  11.046  0.00  0.00    +0.000 C 
ENDROOT
BRANCH   5  17
ATOM     17  O   UNL     1     -15.991  37.481   5.086  0.00  0.00    +0.000 OA
ATOM     18  H   UNL     1     -16.910  37.253   4.856  0.00  0.00    +0.000 HD
ENDBRANCH   5  17
BRANCH   3  19
ATOM     19  C   UNL     1     -17.009  35.097   6.648  0.00  0.00    +0.000 C 
ATOM     20  C   UNL     1     -16.887  33.603   6.337  0.00  0.00    +0.000 C 
BRANCH  20  24
ATOM     21  C   UNL     1     -18.505  30.835   4.635  0.00  0.00    +0.000 C 
ATOM     22  C   UNL     1     -18.006  31.261   6.038  0.00  0.00    +0.000 C 
ATOM     23  C   UNL     1     -17.737  29.995   3.646  0.00  0.00    +0.000 C 
ATOM     24  C   UNL     1     -16.776  32.201   6.054  0.00  0.00    +0.000 C 
ATOM     25  C   UNL     1     -18.546  29.727   2.376  0.00  0.00    +0.000 C 
ATOM     26  C   UNL     1     -19.777  31.090   4.048  0.00  0.00    +0.000 C 
ATOM     27  C   UNL     1     -19.789  30.413   2.706  0.00  0.00    +0.000 C 
ATOM     28  C   UNL     1     -16.334  30.058   3.775  0.00  0.00    +0.000 C 
ATOM     29  C   UNL     1     -15.459  31.679   5.681  0.00  0.00    +0.000 C 
ATOM     30  C   UNL     1     -19.201  31.975   6.779  0.00  0.00    +0.000 C 
ATOM     31  C   UNL     1     -17.698  29.969   6.867  0.00  0.00    +0.000 C 
ATOM     32  C   UNL     1     -15.434  30.822   4.710  0.00  0.00    +0.000 C 
ATOM     33  C   UNL     1     -18.660  28.243   2.074  0.00  0.00    +0.000 C 
ATOM     34  C   UNL     1     -14.159  32.358   6.024  0.00  0.00    +0.000 C 
BRANCH  25  35
ATOM     35  O   UNL     1     -17.931  30.331   1.264  0.00  0.00    +0.000 OA
ATOM     36  H   UNL     1     -18.685  30.392   0.652  0.00  0.00    +0.000 HD
ENDBRANCH  25  35
ENDBRANCH  20  24
ENDBRANCH   3  19
TORSDOF 4
ENDMDL
MODEL 6
REMARK VINA RESULT:      -6.0     24.769     26.886
REMARK  Name = 44423609_SipholenoneA.pdbqt.pdb
REMARK  4 active torsions:
REMARK  status: ('A' for Active; 'I' for Inactive)
REMARK    1  A    between atoms: C_3  and  C_19
REMARK    2  A    between atoms: C_5  and  O_17
REMARK    3  A    between atoms: C_20  and  C_24
REMARK    4  A    between atoms: C_25  and  O_35
REMARK                            x       y       z     vdW  Elec       q    Type
REMARK                         _______ _______ _______ _____ _____    ______ ____
ROOT
ATOM      1  O   UNL     1      -7.794  16.455  10.478  0.00  0.00    +0.000 OA
ATOM      2  O   UNL     1      -8.605  18.244   7.343  0.00  0.00    +0.000 OA
ATOM      3  C   UNL     1      -4.316  14.694   9.832  0.00  0.00    +0.000 C 
ATOM      4  C   UNL     1      -5.303  15.841  10.041  0.00  0.00    +0.000 C 
ATOM      5  C   UNL     1      -4.455  13.412  10.635  0.00  0.00    +0.000 C 
ATOM      6  C   UNL     1      -6.791  15.479  10.451  0.00  0.00    +0.000 C 
ATOM      7  C   UNL     1      -5.777  13.371  11.231  0.00  0.00    +0.000 C 
ATOM      8  C   UNL     1      -6.950  14.292  11.192  0.00  0.00    +0.000 C 
ATOM      9  C   UNL     1      -5.531  16.566   8.779  0.00  0.00    +0.000 C 
ATOM     10  C   UNL     1      -4.741  16.821  11.108  0.00  0.00    +0.000 C 
ATOM     11  C   UNL     1      -4.196  12.183   9.757  0.00  0.00    +0.000 C 
ATOM     12  C   UNL     1      -6.638  17.260   8.015  0.00  0.00    +0.000 C 
ATOM     13  C   UNL     1      -8.691  16.615   9.329  0.00  0.00    +0.000 C 
ATOM     14  C   UNL     1      -8.058  17.489   8.137  0.00  0.00    +0.000 C 
ATOM     15  C   UNL     1      -9.954  17.333   9.907  0.00  0.00    +0.000 C 
ATOM     16  C   UNL     1      -9.118  15.209   8.764  0.00  0.00    +0.000 C 
ENDROOT
BRANCH   5  17
ATOM     17  O   UNL     1      -3.477  13.377  11.644  0.00  0.00    +0.000 OA
ATOM     18  H   UNL     1      -3.373  12.416  11.773  0.00  0.00    +0.000 HD
ENDBRANCH   5  17
BRANCH   3  19
ATOM     19  C   UNL     1      -3.116  14.928   9.071  0.00  0.00    +0.000 C 
ATOM     20  C   UNL     1      -1.834  15.182   8.273  0.00  0.00    +0.000 C 
BRANCH  20  24
ATOM     21  C   UNL     1       0.600  17.740   7.434  0.00  0.00    +0.000 C 
ATOM     22  C   UNL     1      -0.393  16.756   6.767  0.00  0.00    +0.000 C 
ATOM     23  C   UNL     1       2.071  17.493   7.651  0.00  0.00    +0.000 C 
ATOM     24  C   UNL     1      -0.633  15.429   7.528  0.00  0.00    +0.000 C 
ATOM     25  C   UNL     1       2.762  18.694   8.298  0.00  0.00    +0.000 C 
ATOM     26  C   UNL     1       0.338  19.061   7.898  0.00  0.00    +0.000 C 
ATOM     27  C   UNL     1       1.640  19.619   8.400  0.00  0.00    +0.000 C 
ATOM     28  C   UNL     1       2.438  16.134   7.749  0.00  0.00    +0.000 C 
ATOM     29  C   UNL     1       0.425  14.419   7.577  0.00  0.00    +0.000 C 
ATOM     30  C   UNL     1      -1.772  17.502   6.596  0.00  0.00    +0.000 C 
ATOM     31  C   UNL     1       0.112  16.451   5.316  0.00  0.00    +0.000 C 
ATOM     32  C   UNL     1       1.638  14.860   7.693  0.00  0.00    +0.000 C 
ATOM     33  C   UNL     1       3.953  19.173   7.487  0.00  0.00    +0.000 C 
ATOM     34  C   UNL     1       0.190  12.973   7.932  0.00  0.00    +0.000 C 
BRANCH  25  35
ATOM     35  O   UNL     1       3.238  18.358   9.578  0.00  0.00    +0.000 OA
ATOM     36  H   UNL     1       4.188  18.540   9.471  0.00  0.00    +0.000 HD
ENDBRANCH  25  35
ENDBRANCH  20  24
ENDBRANCH   3  19
TORSDOF 4
ENDMDL
MODEL 7
REMARK VINA RESULT:      -5.9      8.387     13.064
REMARK  Name = 44423609_SipholenoneA.pdbqt.pdb
REMARK  4 active torsions:
REMARK  status: ('A' for Active; 'I' for Inactive)
REMARK    1  A    between atoms: C_3  and  C_19
REMARK    2  A    between atoms: C_5  and  O_17
REMARK    3  A    between atoms: C_20  and  C_24
REMARK    4  A    between atoms: C_25  and  O_35
REMARK                            x       y       z     vdW  Elec       q    Type
REMARK                         _______ _______ _______ _____ _____    ______ ____
ROOT
ATOM      1  O   UNL     1     -20.829  34.085   7.749  0.00  0.00    +0.000 OA
ATOM      2  O   UNL     1     -22.050  34.716  11.186  0.00  0.00    +0.000 OA
ATOM      3  C   UNL     1     -18.185  36.929   7.018  0.00  0.00    +0.000 C 
ATOM      4  C   UNL     1     -18.777  35.684   7.676  0.00  0.00    +0.000 C 
ATOM      5  C   UNL     1     -18.387  37.176   5.533  0.00  0.00    +0.000 C 
ATOM      6  C   UNL     1     -20.131  35.103   7.090  0.00  0.00    +0.000 C 
ATOM      7  C   UNL     1     -19.459  36.324   5.056  0.00  0.00    +0.000 C 
ATOM      8  C   UNL     1     -20.348  35.324   5.716  0.00  0.00    +0.000 C 
ATOM      9  C   UNL     1     -19.175  35.970   9.065  0.00  0.00    +0.000 C 
ATOM     10  C   UNL     1     -17.725  34.540   7.664  0.00  0.00    +0.000 C 
ATOM     11  C   UNL     1     -18.679  38.655   5.259  0.00  0.00    +0.000 C 
ATOM     12  C   UNL     1     -20.259  35.625  10.064  0.00  0.00    +0.000 C 
ATOM     13  C   UNL     1     -21.951  34.420   8.634  0.00  0.00    +0.000 C 
ATOM     14  C   UNL     1     -21.493  34.877  10.107  0.00  0.00    +0.000 C 
ATOM     15  C   UNL     1     -22.797  33.108   8.720  0.00  0.00    +0.000 C 
ATOM     16  C   UNL     1     -22.835  35.556   7.996  0.00  0.00    +0.000 C 
ENDROOT
BRANCH   5  17
ATOM     17  O   UNL     1     -17.201  36.883   4.838  0.00  0.00    +0.000 OA
ATOM     18  H   UNL     1     -16.646  36.525   5.555  0.00  0.00    +0.000 HD
ENDBRANCH   5  17
BRANCH   3  19
ATOM     19  C   UNL     1     -17.227  37.721   7.746  0.00  0.00    +0.000 C 
ATOM     20  C   UNL     1     -16.199  38.557   8.513  0.00  0.00    +0.000 C 
BRANCH  20  24
ATOM     21  C   UNL     1     -15.403  39.907  11.787  0.00  0.00    +0.000 C 
ATOM     22  C   UNL     1     -15.639  40.355  10.323  0.00  0.00    +0.000 C 
ATOM     23  C   UNL     1     -14.062  39.635  12.418  0.00  0.00    +0.000 C 
ATOM     24  C   UNL     1     -15.231  39.331   9.236  0.00  0.00    +0.000 C 
ATOM     25  C   UNL     1     -14.193  39.254  13.893  0.00  0.00    +0.000 C 
ATOM     26  C   UNL     1     -16.376  39.735  12.812  0.00  0.00    +0.000 C 
ATOM     27  C   UNL     1     -15.637  39.357  14.065  0.00  0.00    +0.000 C 
ATOM     28  C   UNL     1     -13.048  39.249  11.517  0.00  0.00    +0.000 C 
ATOM     29  C   UNL     1     -13.814  39.063   8.986  0.00  0.00    +0.000 C 
ATOM     30  C   UNL     1     -17.172  40.687  10.160  0.00  0.00    +0.000 C 
ATOM     31  C   UNL     1     -14.880  41.706  10.090  0.00  0.00    +0.000 C 
ATOM     32  C   UNL     1     -13.041  39.038  10.026  0.00  0.00    +0.000 C 
ATOM     33  C   UNL     1     -13.347  40.143  14.790  0.00  0.00    +0.000 C 
ATOM     34  C   UNL     1     -13.290  38.411   7.733  0.00  0.00    +0.000 C 
BRANCH  25  35
ATOM     35  O   UNL     1     -13.766  37.930  14.100  0.00  0.00    +0.000 OA
ATOM     36  H   UNL     1     -13.908  37.842  15.059  0.00  0.00    +0.000 HD
ENDBRANCH  25  35
ENDBRANCH  20  24
ENDBRANCH   3  19
TORSDOF 4
ENDMDL
MODEL 8
REMARK VINA RESULT:      -5.9     26.690     29.353
REMARK  Name = 44423609_SipholenoneA.pdbqt.pdb
REMARK  4 active torsions:
REMARK  status: ('A' for Active; 'I' for Inactive)
REMARK    1  A    between atoms: C_3  and  C_19
REMARK    2  A    between atoms: C_5  and  O_17
REMARK    3  A    between atoms: C_20  and  C_24
REMARK    4  A    between atoms: C_25  and  O_35
REMARK                            x       y       z     vdW  Elec       q    Type
REMARK                         _______ _______ _______ _____ _____    ______ ____
ROOT
ATOM      1  O   UNL     1      -1.625  60.021  -6.253  0.00  0.00    +0.000 OA
ATOM      2  O   UNL     1      -5.273  60.640  -6.266  0.00  0.00    +0.000 OA
ATOM      3  C   UNL     1      -0.006  63.223  -4.597  0.00  0.00    +0.000 C 
ATOM      4  C   UNL     1      -0.827  61.937  -4.683  0.00  0.00    +0.000 C 
ATOM      5  C   UNL     1       1.306  63.343  -5.354  0.00  0.00    +0.000 C 
ATOM      6  C   UNL     1      -0.764  61.101  -6.029  0.00  0.00    +0.000 C 
ATOM      7  C   UNL     1       1.369  62.294  -6.354  0.00  0.00    +0.000 C 
ATOM      8  C   UNL     1       0.439  61.199  -6.755  0.00  0.00    +0.000 C 
ATOM      9  C   UNL     1      -2.267  62.234  -4.607  0.00  0.00    +0.000 C 
ATOM     10  C   UNL     1      -0.430  60.989  -3.516  0.00  0.00    +0.000 C 
ATOM     11  C   UNL     1       1.449  64.732  -5.985  0.00  0.00    +0.000 C 
ATOM     12  C   UNL     1      -3.587  61.771  -5.184  0.00  0.00    +0.000 C 
ATOM     13  C   UNL     1      -2.856  60.213  -7.028  0.00  0.00    +0.000 C 
ATOM     14  C   UNL     1      -4.067  60.828  -6.167  0.00  0.00    +0.000 C 
ATOM     15  C   UNL     1      -3.233  58.784  -7.538  0.00  0.00    +0.000 C 
ATOM     16  C   UNL     1      -2.584  61.142  -8.269  0.00  0.00    +0.000 C 
ENDROOT
BRANCH   5  17
ATOM     17  O   UNL     1       2.382  63.214  -4.460  0.00  0.00    +0.000 OA
ATOM     18  H   UNL     1       2.583  64.148  -4.271  0.00  0.00    +0.000 HD
ENDBRANCH   5  17
BRANCH   3  19
ATOM     19  C   UNL     1      -0.344  64.208  -3.602  0.00  0.00    +0.000 C 
ATOM     20  C   UNL     1      -0.716  65.253  -2.547  0.00  0.00    +0.000 C 
BRANCH  20  24
ATOM     21  C   UNL     1      -2.495  65.747   0.578  0.00  0.00    +0.000 C 
ATOM     22  C   UNL     1      -2.458  66.262  -0.882  0.00  0.00    +0.000 C 
ATOM     23  C   UNL     1      -1.805  66.388   1.755  0.00  0.00    +0.000 C 
ATOM     24  C   UNL     1      -1.070  66.238  -1.565  0.00  0.00    +0.000 C 
ATOM     25  C   UNL     1      -2.089  65.641   3.059  0.00  0.00    +0.000 C 
ATOM     26  C   UNL     1      -3.223  64.635   1.092  0.00  0.00    +0.000 C 
ATOM     27  C   UNL     1      -2.978  64.593   2.574  0.00  0.00    +0.000 C 
ATOM     28  C   UNL     1      -0.664  67.151   1.431  0.00  0.00    +0.000 C 
ATOM     29  C   UNL     1      -0.037  67.186  -1.144  0.00  0.00    +0.000 C 
ATOM     30  C   UNL     1      -3.457  65.384  -1.730  0.00  0.00    +0.000 C 
ATOM     31  C   UNL     1      -3.038  67.717  -0.908  0.00  0.00    +0.000 C 
ATOM     32  C   UNL     1       0.023  67.446   0.124  0.00  0.00    +0.000 C 
ATOM     33  C   UNL     1      -2.654  66.557   4.131  0.00  0.00    +0.000 C 
ATOM     34  C   UNL     1       1.180  67.524  -1.966  0.00  0.00    +0.000 C 
BRANCH  25  35
ATOM     35  O   UNL     1      -0.905  65.081   3.573  0.00  0.00    +0.000 OA
ATOM     36  H   UNL     1      -0.333  65.868   3.608  0.00  0.00    +0.000 HD
ENDBRANCH  25  35
ENDBRANCH  20  24
ENDBRANCH   3  19
TORSDOF 4
ENDMDL
MODEL 9
REMARK VINA RESULT:      -5.8     28.094     31.677
REMARK  Name = 44423609_SipholenoneA.pdbqt.pdb
REMARK  4 active torsions:
REMARK  status: ('A' for Active; 'I' for Inactive)
REMARK    1  A    between atoms: C_3  and  C_19
REMARK    2  A    between atoms: C_5  and  O_17
REMARK    3  A    between atoms: C_20  and  C_24
REMARK    4  A    between atoms: C_25  and  O_35
REMARK                            x       y       z     vdW  Elec       q    Type
REMARK                         _______ _______ _______ _____ _____    ______ ____
ROOT
ATOM      1  O   UNL     1       8.593  59.371  -8.929  0.00  0.00    +0.000 OA
ATOM      2  O   UNL     1       8.145  62.541  -7.073  0.00  0.00    +0.000 OA
ATOM      3  C   UNL     1       5.099  57.533  -8.760  0.00  0.00    +0.000 C 
ATOM      4  C   UNL     1       6.118  58.602  -9.154  0.00  0.00    +0.000 C 
ATOM      5  C   UNL     1       5.512  56.072  -8.697  0.00  0.00    +0.000 C 
ATOM      6  C   UNL     1       7.637  58.362  -8.770  0.00  0.00    +0.000 C 
ATOM      7  C   UNL     1       6.960  55.993  -8.680  0.00  0.00    +0.000 C 
ATOM      8  C   UNL     1       8.046  57.016  -8.699  0.00  0.00    +0.000 C 
ATOM      9  C   UNL     1       5.847  59.864  -8.445  0.00  0.00    +0.000 C 
ATOM     10  C   UNL     1       6.048  58.844 -10.688  0.00  0.00    +0.000 C 
ATOM     11  C   UNL     1       4.895  55.380  -7.477  0.00  0.00    +0.000 C 
ATOM     12  C   UNL     1       6.579  61.022  -7.802  0.00  0.00    +0.000 C 
ATOM     13  C   UNL     1       8.967  60.213  -7.787  0.00  0.00    +0.000 C 
ATOM     14  C   UNL     1       7.937  61.417  -7.512  0.00  0.00    +0.000 C 
ATOM     15  C   UNL     1      10.374  60.786  -8.158  0.00  0.00    +0.000 C 
ATOM     16  C   UNL     1       9.100  59.342  -6.482  0.00  0.00    +0.000 C 
ENDROOT
BRANCH   5  17
ATOM     17  O   UNL     1       5.012  55.391  -9.820  0.00  0.00    +0.000 OA
ATOM     18  H   UNL     1       5.709  54.726  -9.963  0.00  0.00    +0.000 HD
ENDBRANCH   5  17
BRANCH   3  19
ATOM     19  C   UNL     1       3.702  57.880  -8.702  0.00  0.00    +0.000 C 
ATOM     20  C   UNL     1       2.217  58.243  -8.630  0.00  0.00    +0.000 C 
BRANCH  20  24
ATOM     21  C   UNL     1      -0.355  59.591  -6.452  0.00  0.00    +0.000 C 
ATOM     22  C   UNL     1      -0.022  58.329  -7.287  0.00  0.00    +0.000 C 
ATOM     23  C   UNL     1      -1.210  60.745  -6.907  0.00  0.00    +0.000 C 
ATOM     24  C   UNL     1       0.822  58.573  -8.561  0.00  0.00    +0.000 C 
ATOM     25  C   UNL     1      -1.368  61.803  -5.813  0.00  0.00    +0.000 C 
ATOM     26  C   UNL     1       0.016  59.866  -5.105  0.00  0.00    +0.000 C 
ATOM     27  C   UNL     1      -0.605  61.185  -4.736  0.00  0.00    +0.000 C 
ATOM     28  C   UNL     1      -1.256  60.938  -8.303  0.00  0.00    +0.000 C 
ATOM     29  C   UNL     1       0.220  59.247  -9.713  0.00  0.00    +0.000 C 
ATOM     30  C   UNL     1       0.749  57.320  -6.352  0.00  0.00    +0.000 C 
ATOM     31  C   UNL     1      -1.365  57.619  -7.669  0.00  0.00    +0.000 C 
ATOM     32  C   UNL     1      -0.598  60.217  -9.450  0.00  0.00    +0.000 C 
ATOM     33  C   UNL     1      -2.827  62.103  -5.515  0.00  0.00    +0.000 C 
ATOM     34  C   UNL     1       0.787  59.195 -11.108  0.00  0.00    +0.000 C 
BRANCH  25  35
ATOM     35  O   UNL     1      -0.768  63.013  -6.208  0.00  0.00    +0.000 OA
ATOM     36  H   UNL     1      -1.361  63.282  -6.931  0.00  0.00    +0.000 HD
ENDBRANCH  25  35
ENDBRANCH  20  24
ENDBRANCH   3  19
TORSDOF 4
ENDMDL
