MODEL 1
REMARK VINA RESULT:      -7.3      0.000      0.000
REMARK  Name = 445154_Resveratrol.pdbqt.pdb
REMARK  5 active torsions:
REMARK  status: ('A' for Active; 'I' for Inactive)
REMARK    1  A    between atoms: C_1  and  C_11
REMARK    2  A    between atoms: C_4  and  O_7
REMARK    3  A    between atoms: C_5  and  O_9
REMARK    4  A    between atoms: C_12  and  C_13
REMARK    5  A    between atoms: C_18  and  O_19
REMARK                            x       y       z     vdW  Elec       q    Type
REMARK                         _______ _______ _______ _____ _____    ______ ____
ROOT
ATOM      1  C   UNL     1       0.454  32.811  15.513  0.00  0.00    +0.000 A 
ATOM      2  C   UNL     1      -0.612  32.750  14.617  0.00  0.00    +0.000 A 
ATOM      3  C   UNL     1       0.471  33.778  16.518  0.00  0.00    +0.000 A 
ATOM      4  C   UNL     1      -0.586  34.680  16.619  0.00  0.00    +0.000 A 
ATOM      5  C   UNL     1      -1.658  33.660  14.734  0.00  0.00    +0.000 A 
ATOM      6  C   UNL     1      -1.656  34.630  15.732  0.00  0.00    +0.000 A 
ENDROOT
BRANCH   4   7
ATOM      7  O   UNL     1      -0.596  35.636  17.592  0.00  0.00    +0.000 OA
ATOM      8  H   UNL     1      -1.305  35.419  18.224  0.00  0.00    +0.000 HD
ENDBRANCH   4   7
BRANCH   5   9
ATOM      9  O   UNL     1      -2.691  33.580  13.845  0.00  0.00    +0.000 OA
ATOM     10  H   UNL     1      -2.765  32.654  13.554  0.00  0.00    +0.000 HD
ENDBRANCH   5   9
BRANCH   1  11
ATOM     11  C   UNL     1       1.532  31.885  15.403  0.00  0.00    +0.000 C 
ATOM     12  C   UNL     1       2.441  31.104  15.309  0.00  0.00    +0.000 C 
BRANCH  12  13
ATOM     13  C   UNL     1       3.520  30.178  15.199  0.00  0.00    +0.000 A 
ATOM     14  C   UNL     1       3.276  28.875  14.766  0.00  0.00    +0.000 A 
ATOM     15  C   UNL     1       4.816  30.578  15.525  0.00  0.00    +0.000 A 
ATOM     16  C   UNL     1       4.327  27.970  14.657  0.00  0.00    +0.000 A 
ATOM     17  C   UNL     1       5.870  29.675  15.418  0.00  0.00    +0.000 A 
ATOM     18  C   UNL     1       5.617  28.377  14.985  0.00  0.00    +0.000 A 
BRANCH  18  19
ATOM     19  O   UNL     1       6.666  27.511  14.888  0.00  0.00    +0.000 OA
ATOM     20  H   UNL     1       6.321  26.604  14.958  0.00  0.00    +0.000 HD
ENDBRANCH  18  19
ENDBRANCH  12  13
ENDBRANCH   1  11
TORSDOF 5
ENDMDL
MODEL 2
REMARK VINA RESULT:      -7.2      1.400      7.617
REMARK  Name = 445154_Resveratrol.pdbqt.pdb
REMARK  5 active torsions:
REMARK  status: ('A' for Active; 'I' for Inactive)
REMARK    1  A    between atoms: C_1  and  C_11
REMARK    2  A    between atoms: C_4  and  O_7
REMARK    3  A    between atoms: C_5  and  O_9
REMARK    4  A    between atoms: C_12  and  C_13
REMARK    5  A    between atoms: C_18  and  O_19
REMARK                            x       y       z     vdW  Elec       q    Type
REMARK                         _______ _______ _______ _____ _____    ______ ____
ROOT
ATOM      1  C   UNL     1       4.322  30.125  15.402  0.00  0.00    +0.000 A 
ATOM      2  C   UNL     1       4.237  28.956  14.647  0.00  0.00    +0.000 A 
ATOM      3  C   UNL     1       5.508  30.451  16.060  0.00  0.00    +0.000 A 
ATOM      4  C   UNL     1       6.605  29.600  15.955  0.00  0.00    +0.000 A 
ATOM      5  C   UNL     1       5.345  28.119  14.556  0.00  0.00    +0.000 A 
ATOM      6  C   UNL     1       6.535  28.431  15.205  0.00  0.00    +0.000 A 
ENDROOT
BRANCH   4   7
ATOM      7  O   UNL     1       7.778  29.894  16.587  0.00  0.00    +0.000 OA
ATOM      8  H   UNL     1       8.415  30.201  15.918  0.00  0.00    +0.000 HD
ENDBRANCH   4   7
BRANCH   5   9
ATOM      9  O   UNL     1       5.238  26.979  13.811  0.00  0.00    +0.000 OA
ATOM     10  H   UNL     1       4.302  26.713  13.801  0.00  0.00    +0.000 HD
ENDBRANCH   5   9
BRANCH   1  11
ATOM     11  C   UNL     1       3.193  30.990  15.504  0.00  0.00    +0.000 C 
ATOM     12  C   UNL     1       2.243  31.720  15.590  0.00  0.00    +0.000 C 
BRANCH  12  13
ATOM     13  C   UNL     1       1.114  32.586  15.691  0.00  0.00    +0.000 A 
ATOM     14  C   UNL     1       1.222  33.918  15.290  0.00  0.00    +0.000 A 
ATOM     15  C   UNL     1      -0.093  32.100  16.191  0.00  0.00    +0.000 A 
ATOM     16  C   UNL     1       0.122  34.765  15.388  0.00  0.00    +0.000 A 
ATOM     17  C   UNL     1      -1.196  32.944  16.290  0.00  0.00    +0.000 A 
ATOM     18  C   UNL     1      -1.079  34.271  15.888  0.00  0.00    +0.000 A 
BRANCH  18  19
ATOM     19  O   UNL     1      -2.173  35.079  15.995  0.00  0.00    +0.000 OA
ATOM     20  H   UNL     1      -2.151  35.721  15.264  0.00  0.00    +0.000 HD
ENDBRANCH  18  19
ENDBRANCH  12  13
ENDBRANCH   1  11
TORSDOF 5
ENDMDL
MODEL 3
REMARK VINA RESULT:      -7.2      1.396      7.797
REMARK  Name = 445154_Resveratrol.pdbqt.pdb
REMARK  5 active torsions:
REMARK  status: ('A' for Active; 'I' for Inactive)
REMARK    1  A    between atoms: C_1  and  C_11
REMARK    2  A    between atoms: C_4  and  O_7
REMARK    3  A    between atoms: C_5  and  O_9
REMARK    4  A    between atoms: C_12  and  C_13
REMARK    5  A    between atoms: C_18  and  O_19
REMARK                            x       y       z     vdW  Elec       q    Type
REMARK                         _______ _______ _______ _____ _____    ______ ____
ROOT
ATOM      1  C   UNL     1       4.310  30.129  15.419  0.00  0.00    +0.000 A 
ATOM      2  C   UNL     1       5.499  30.459  16.068  0.00  0.00    +0.000 A 
ATOM      3  C   UNL     1       4.222  28.958  14.667  0.00  0.00    +0.000 A 
ATOM      4  C   UNL     1       5.332  28.122  14.571  0.00  0.00    +0.000 A 
ATOM      5  C   UNL     1       6.596  29.611  15.958  0.00  0.00    +0.000 A 
ATOM      6  C   UNL     1       6.524  28.438  15.213  0.00  0.00    +0.000 A 
ENDROOT
BRANCH   4   7
ATOM      7  O   UNL     1       5.274  26.969  13.843  0.00  0.00    +0.000 OA
ATOM      8  H   UNL     1       5.535  27.175  12.927  0.00  0.00    +0.000 HD
ENDBRANCH   4   7
BRANCH   5   9
ATOM      9  O   UNL     1       7.750  29.954  16.603  0.00  0.00    +0.000 OA
ATOM     10  H   UNL     1       7.525  30.177  17.523  0.00  0.00    +0.000 HD
ENDBRANCH   5   9
BRANCH   1  11
ATOM     11  C   UNL     1       3.179  30.991  15.523  0.00  0.00    +0.000 C 
ATOM     12  C   UNL     1       2.226  31.719  15.609  0.00  0.00    +0.000 C 
BRANCH  12  13
ATOM     13  C   UNL     1       1.095  32.581  15.712  0.00  0.00    +0.000 A 
ATOM     14  C   UNL     1      -0.118  32.083  16.188  0.00  0.00    +0.000 A 
ATOM     15  C   UNL     1       1.204  33.919  15.336  0.00  0.00    +0.000 A 
ATOM     16  C   UNL     1      -1.223  32.922  16.289  0.00  0.00    +0.000 A 
ATOM     17  C   UNL     1       0.101  34.762  15.435  0.00  0.00    +0.000 A 
ATOM     18  C   UNL     1      -1.105  34.257  15.911  0.00  0.00    +0.000 A 
BRANCH  18  19
ATOM     19  O   UNL     1      -2.172  35.102  16.000  0.00  0.00    +0.000 OA
ATOM     20  H   UNL     1      -2.556  35.203  15.111  0.00  0.00    +0.000 HD
ENDBRANCH  18  19
ENDBRANCH  12  13
ENDBRANCH   1  11
TORSDOF 5
ENDMDL
MODEL 4
REMARK VINA RESULT:      -6.8     18.129     19.538
REMARK  Name = 445154_Resveratrol.pdbqt.pdb
REMARK  5 active torsions:
REMARK  status: ('A' for Active; 'I' for Inactive)
REMARK    1  A    between atoms: C_1  and  C_11
REMARK    2  A    between atoms: C_4  and  O_7
REMARK    3  A    between atoms: C_5  and  O_9
REMARK    4  A    between atoms: C_12  and  C_13
REMARK    5  A    between atoms: C_18  and  O_19
REMARK                            x       y       z     vdW  Elec       q    Type
REMARK                         _______ _______ _______ _____ _____    ______ ____
ROOT
ATOM      1  C   UNL     1     -15.077  29.987  22.615  0.00  0.00    +0.000 A 
ATOM      2  C   UNL     1     -16.269  29.788  21.919  0.00  0.00    +0.000 A 
ATOM      3  C   UNL     1     -14.142  28.957  22.715  0.00  0.00    +0.000 A 
ATOM      4  C   UNL     1     -14.408  27.731  22.112  0.00  0.00    +0.000 A 
ATOM      5  C   UNL     1     -16.516  28.555  21.325  0.00  0.00    +0.000 A 
ATOM      6  C   UNL     1     -15.592  27.518  21.414  0.00  0.00    +0.000 A 
ENDROOT
BRANCH   4   7
ATOM      7  O   UNL     1     -13.511  26.705  22.192  0.00  0.00    +0.000 OA
ATOM      8  H   UNL     1     -13.283  26.430  21.287  0.00  0.00    +0.000 HD
ENDBRANCH   4   7
BRANCH   5   9
ATOM      9  O   UNL     1     -17.689  28.383  20.649  0.00  0.00    +0.000 OA
ATOM     10  H   UNL     1     -17.477  28.052  19.758  0.00  0.00    +0.000 HD
ENDBRANCH   5   9
BRANCH   1  11
ATOM     11  C   UNL     1     -14.812  31.247  23.230  0.00  0.00    +0.000 C 
ATOM     12  C   UNL     1     -14.589  32.308  23.747  0.00  0.00    +0.000 C 
BRANCH  12  13
ATOM     13  C   UNL     1     -14.325  33.568  24.360  0.00  0.00    +0.000 A 
ATOM     14  C   UNL     1     -13.563  33.626  25.527  0.00  0.00    +0.000 A 
ATOM     15  C   UNL     1     -14.829  34.738  23.793  0.00  0.00    +0.000 A 
ATOM     16  C   UNL     1     -13.303  34.855  26.128  0.00  0.00    +0.000 A 
ATOM     17  C   UNL     1     -14.572  35.968  24.391  0.00  0.00    +0.000 A 
ATOM     18  C   UNL     1     -13.811  36.017  25.554  0.00  0.00    +0.000 A 
BRANCH  18  19
ATOM     19  O   UNL     1     -13.572  37.235  26.122  0.00  0.00    +0.000 OA
ATOM     20  H   UNL     1     -12.799  37.630  25.682  0.00  0.00    +0.000 HD
ENDBRANCH  18  19
ENDBRANCH  12  13
ENDBRANCH   1  11
TORSDOF 5
ENDMDL
MODEL 5
REMARK VINA RESULT:      -6.8      1.773      2.491
REMARK  Name = 445154_Resveratrol.pdbqt.pdb
REMARK  5 active torsions:
REMARK  status: ('A' for Active; 'I' for Inactive)
REMARK    1  A    between atoms: C_1  and  C_11
REMARK    2  A    between atoms: C_4  and  O_7
REMARK    3  A    between atoms: C_5  and  O_9
REMARK    4  A    between atoms: C_12  and  C_13
REMARK    5  A    between atoms: C_18  and  O_19
REMARK                            x       y       z     vdW  Elec       q    Type
REMARK                         _______ _______ _______ _____ _____    ______ ____
ROOT
ATOM      1  C   UNL     1       2.065  32.602  15.254  0.00  0.00    +0.000 A 
ATOM      2  C   UNL     1       0.916  32.309  15.986  0.00  0.00    +0.000 A 
ATOM      3  C   UNL     1       2.142  33.780  14.510  0.00  0.00    +0.000 A 
ATOM      4  C   UNL     1       1.062  34.659  14.507  0.00  0.00    +0.000 A 
ATOM      5  C   UNL     1      -0.152  33.200  15.969  0.00  0.00    +0.000 A 
ATOM      6  C   UNL     1      -0.090  34.379  15.233  0.00  0.00    +0.000 A 
ENDROOT
BRANCH   4   7
ATOM      7  O   UNL     1       1.110  35.819  13.789  0.00  0.00    +0.000 OA
ATOM      8  H   UNL     1       1.775  36.402  14.198  0.00  0.00    +0.000 HD
ENDBRANCH   4   7
BRANCH   5   9
ATOM      9  O   UNL     1      -1.267  32.892  16.694  0.00  0.00    +0.000 OA
ATOM     10  H   UNL     1      -1.269  31.930  16.847  0.00  0.00    +0.000 HD
ENDBRANCH   5   9
BRANCH   1  11
ATOM     11  C   UNL     1       3.166  31.696  15.262  0.00  0.00    +0.000 C 
ATOM     12  C   UNL     1       4.094  30.932  15.269  0.00  0.00    +0.000 C 
BRANCH  12  13
ATOM     13  C   UNL     1       5.195  30.026  15.277  0.00  0.00    +0.000 A 
ATOM     14  C   UNL     1       6.427  30.435  15.787  0.00  0.00    +0.000 A 
ATOM     15  C   UNL     1       5.038  28.735  14.775  0.00  0.00    +0.000 A 
ATOM     16  C   UNL     1       7.504  29.553  15.796  0.00  0.00    +0.000 A 
ATOM     17  C   UNL     1       6.112  27.850  14.782  0.00  0.00    +0.000 A 
ATOM     18  C   UNL     1       7.337  28.266  15.292  0.00  0.00    +0.000 A 
BRANCH  18  19
ATOM     19  O   UNL     1       8.375  27.380  15.288  0.00  0.00    +0.000 OA
ATOM     20  H   UNL     1       8.022  26.497  15.085  0.00  0.00    +0.000 HD
ENDBRANCH  18  19
ENDBRANCH  12  13
ENDBRANCH   1  11
TORSDOF 5
ENDMDL
MODEL 6
REMARK VINA RESULT:      -6.7      3.277      5.332
REMARK  Name = 445154_Resveratrol.pdbqt.pdb
REMARK  5 active torsions:
REMARK  status: ('A' for Active; 'I' for Inactive)
REMARK    1  A    between atoms: C_1  and  C_11
REMARK    2  A    between atoms: C_4  and  O_7
REMARK    3  A    between atoms: C_5  and  O_9
REMARK    4  A    between atoms: C_12  and  C_13
REMARK    5  A    between atoms: C_18  and  O_19
REMARK                            x       y       z     vdW  Elec       q    Type
REMARK                         _______ _______ _______ _____ _____    ______ ____
ROOT
ATOM      1  C   UNL     1       3.674  29.419  15.602  0.00  0.00    +0.000 A 
ATOM      2  C   UNL     1       3.196  30.571  16.224  0.00  0.00    +0.000 A 
ATOM      3  C   UNL     1       2.785  28.505  15.038  0.00  0.00    +0.000 A 
ATOM      4  C   UNL     1       1.416  28.753  15.100  0.00  0.00    +0.000 A 
ATOM      5  C   UNL     1       1.824  30.800  16.276  0.00  0.00    +0.000 A 
ATOM      6  C   UNL     1       0.924  29.899  15.717  0.00  0.00    +0.000 A 
ENDROOT
BRANCH   4   7
ATOM      7  O   UNL     1       0.523  27.877  14.556  0.00  0.00    +0.000 OA
ATOM      8  H   UNL     1      -0.238  27.804  15.161  0.00  0.00    +0.000 HD
ENDBRANCH   4   7
BRANCH   5   9
ATOM      9  O   UNL     1       1.379  31.936  16.890  0.00  0.00    +0.000 OA
ATOM     10  H   UNL     1       2.115  32.305  17.409  0.00  0.00    +0.000 HD
ENDBRANCH   5   9
BRANCH   1  11
ATOM     11  C   UNL     1       5.077  29.171  15.542  0.00  0.00    +0.000 C 
ATOM     12  C   UNL     1       6.260  28.963  15.492  0.00  0.00    +0.000 C 
BRANCH  12  13
ATOM     13  C   UNL     1       7.662  28.715  15.432  0.00  0.00    +0.000 A 
ATOM     14  C   UNL     1       8.545  29.541  16.128  0.00  0.00    +0.000 A 
ATOM     15  C   UNL     1       8.149  27.647  14.679  0.00  0.00    +0.000 A 
ATOM     16  C   UNL     1       9.914  29.301  16.071  0.00  0.00    +0.000 A 
ATOM     17  C   UNL     1       9.518  27.403  14.619  0.00  0.00    +0.000 A 
ATOM     18  C   UNL     1      10.391  28.233  15.316  0.00  0.00    +0.000 A 
BRANCH  18  19
ATOM     19  O   UNL     1      11.728  27.975  15.243  0.00  0.00    +0.000 OA
ATOM     20  H   UNL     1      11.855  27.170  14.710  0.00  0.00    +0.000 HD
ENDBRANCH  18  19
ENDBRANCH  12  13
ENDBRANCH   1  11
TORSDOF 5
ENDMDL
MODEL 7
REMARK VINA RESULT:      -6.5      4.061      6.611
REMARK  Name = 445154_Resveratrol.pdbqt.pdb
REMARK  5 active torsions:
REMARK  status: ('A' for Active; 'I' for Inactive)
REMARK    1  A    between atoms: C_1  and  C_11
REMARK    2  A    between atoms: C_4  and  O_7
REMARK    3  A    between atoms: C_5  and  O_9
REMARK    4  A    between atoms: C_12  and  C_13
REMARK    5  A    between atoms: C_18  and  O_19
REMARK                            x       y       z     vdW  Elec       q    Type
REMARK                         _______ _______ _______ _____ _____    ______ ____
ROOT
ATOM      1  C   UNL     1       5.010  28.951  15.336  0.00  0.00    +0.000 A 
ATOM      2  C   UNL     1       4.143  29.783  16.043  0.00  0.00    +0.000 A 
ATOM      3  C   UNL     1       4.509  28.064  14.383  0.00  0.00    +0.000 A 
ATOM      4  C   UNL     1       3.138  28.019  14.144  0.00  0.00    +0.000 A 
ATOM      5  C   UNL     1       2.777  29.722  15.789  0.00  0.00    +0.000 A 
ATOM      6  C   UNL     1       2.262  28.844  14.841  0.00  0.00    +0.000 A 
ENDROOT
BRANCH   4   7
ATOM      7  O   UNL     1       2.621  27.161  13.216  0.00  0.00    +0.000 OA
ATOM      8  H   UNL     1       2.811  26.251  13.504  0.00  0.00    +0.000 HD
ENDBRANCH   4   7
BRANCH   5   9
ATOM      9  O   UNL     1       1.948  30.547  16.494  0.00  0.00    +0.000 OA
ATOM     10  H   UNL     1       2.107  30.393  17.442  0.00  0.00    +0.000 HD
ENDBRANCH   5   9
BRANCH   1  11
ATOM     11  C   UNL     1       6.412  29.003  15.588  0.00  0.00    +0.000 C 
ATOM     12  C   UNL     1       7.594  29.048  15.799  0.00  0.00    +0.000 C 
BRANCH  12  13
ATOM     13  C   UNL     1       8.997  29.101  16.050  0.00  0.00    +0.000 A 
ATOM     14  C   UNL     1       9.895  28.670  15.074  0.00  0.00    +0.000 A 
ATOM     15  C   UNL     1       9.467  29.585  17.271  0.00  0.00    +0.000 A 
ATOM     16  C   UNL     1      11.264  28.721  15.317  0.00  0.00    +0.000 A 
ATOM     17  C   UNL     1      10.836  29.638  17.518  0.00  0.00    +0.000 A 
ATOM     18  C   UNL     1      11.724  29.205  16.538  0.00  0.00    +0.000 A 
BRANCH  18  19
ATOM     19  O   UNL     1      13.062  29.267  16.803  0.00  0.00    +0.000 OA
ATOM     20  H   UNL     1      13.253  30.130  17.210  0.00  0.00    +0.000 HD
ENDBRANCH  18  19
ENDBRANCH  12  13
ENDBRANCH   1  11
TORSDOF 5
ENDMDL
MODEL 8
REMARK VINA RESULT:      -6.4      4.915      7.267
REMARK  Name = 445154_Resveratrol.pdbqt.pdb
REMARK  5 active torsions:
REMARK  status: ('A' for Active; 'I' for Inactive)
REMARK    1  A    between atoms: C_1  and  C_11
REMARK    2  A    between atoms: C_4  and  O_7
REMARK    3  A    between atoms: C_5  and  O_9
REMARK    4  A    between atoms: C_12  and  C_13
REMARK    5  A    between atoms: C_18  and  O_19
REMARK                            x       y       z     vdW  Elec       q    Type
REMARK                         _______ _______ _______ _____ _____    ______ ____
ROOT
ATOM      1  C   UNL     1       7.816  33.434  16.441  0.00  0.00    +0.000 A 
ATOM      2  C   UNL     1       7.351  34.291  17.438  0.00  0.00    +0.000 A 
ATOM      3  C   UNL     1       9.031  33.689  15.808  0.00  0.00    +0.000 A 
ATOM      4  C   UNL     1       9.776  34.806  16.179  0.00  0.00    +0.000 A 
ATOM      5  C   UNL     1       8.110  35.402  17.794  0.00  0.00    +0.000 A 
ATOM      6  C   UNL     1       9.325  35.669  17.172  0.00  0.00    +0.000 A 
ENDROOT
BRANCH   4   7
ATOM      7  O   UNL     1      10.970  35.080  15.576  0.00  0.00    +0.000 OA
ATOM      8  H   UNL     1      10.992  36.030  15.364  0.00  0.00    +0.000 HD
ENDBRANCH   4   7
BRANCH   5   9
ATOM      9  O   UNL     1       7.635  36.227  18.773  0.00  0.00    +0.000 OA
ATOM     10  H   UNL     1       7.781  35.790  19.631  0.00  0.00    +0.000 HD
ENDBRANCH   5   9
BRANCH   1  11
ATOM     11  C   UNL     1       7.046  32.294  16.067  0.00  0.00    +0.000 C 
ATOM     12  C   UNL     1       6.398  31.332  15.750  0.00  0.00    +0.000 C 
BRANCH  12  13
ATOM     13  C   UNL     1       5.630  30.191  15.376  0.00  0.00    +0.000 A 
ATOM     14  C   UNL     1       4.266  30.146  15.665  0.00  0.00    +0.000 A 
ATOM     15  C   UNL     1       6.244  29.123  14.721  0.00  0.00    +0.000 A 
ATOM     16  C   UNL     1       3.514  29.033  15.300  0.00  0.00    +0.000 A 
ATOM     17  C   UNL     1       5.495  28.009  14.355  0.00  0.00    +0.000 A 
ATOM     18  C   UNL     1       4.135  27.972  14.648  0.00  0.00    +0.000 A 
BRANCH  18  19
ATOM     19  O   UNL     1       3.422  26.869  14.278  0.00  0.00    +0.000 OA
ATOM     20  H   UNL     1       2.822  26.635  15.008  0.00  0.00    +0.000 HD
ENDBRANCH  18  19
ENDBRANCH  12  13
ENDBRANCH   1  11
TORSDOF 5
ENDMDL
MODEL 9
REMARK VINA RESULT:      -6.2      4.334      7.002
REMARK  Name = 445154_Resveratrol.pdbqt.pdb
REMARK  5 active torsions:
REMARK  status: ('A' for Active; 'I' for Inactive)
REMARK    1  A    between atoms: C_1  and  C_11
REMARK    2  A    between atoms: C_4  and  O_7
REMARK    3  A    between atoms: C_5  and  O_9
REMARK    4  A    between atoms: C_12  and  C_13
REMARK    5  A    between atoms: C_18  and  O_19
REMARK                            x       y       z     vdW  Elec       q    Type
REMARK                         _______ _______ _______ _____ _____    ______ ____
ROOT
ATOM      1  C   UNL     1       4.925  30.308  15.418  0.00  0.00    +0.000 A 
ATOM      2  C   UNL     1       3.600  30.458  15.824  0.00  0.00    +0.000 A 
ATOM      3  C   UNL     1       5.321  29.167  14.721  0.00  0.00    +0.000 A 
ATOM      4  C   UNL     1       4.382  28.180  14.434  0.00  0.00    +0.000 A 
ATOM      5  C   UNL     1       2.677  29.460  15.527  0.00  0.00    +0.000 A 
ATOM      6  C   UNL     1       3.056  28.316  14.832  0.00  0.00    +0.000 A 
ENDROOT
BRANCH   4   7
ATOM      7  O   UNL     1       4.741  27.053  13.753  0.00  0.00    +0.000 OA
ATOM      8  H   UNL     1       4.067  26.370  13.919  0.00  0.00    +0.000 HD
ENDBRANCH   4   7
BRANCH   5   9
ATOM      9  O   UNL     1       1.385  29.628  15.934  0.00  0.00    +0.000 OA
ATOM     10  H   UNL     1       0.815  29.601  15.144  0.00  0.00    +0.000 HD
ENDBRANCH   5   9
BRANCH   1  11
ATOM     11  C   UNL     1       5.881  31.324  15.717  0.00  0.00    +0.000 C 
ATOM     12  C   UNL     1       6.686  32.179  15.969  0.00  0.00    +0.000 C 
BRANCH  12  13
ATOM     13  C   UNL     1       7.641  33.195  16.269  0.00  0.00    +0.000 A 
ATOM     14  C   UNL     1       7.258  34.313  17.008  0.00  0.00    +0.000 A 
ATOM     15  C   UNL     1       8.956  33.066  15.822  0.00  0.00    +0.000 A 
ATOM     16  C   UNL     1       8.188  35.305  17.302  0.00  0.00    +0.000 A 
ATOM     17  C   UNL     1       9.890  34.056  16.114  0.00  0.00    +0.000 A 
ATOM     18  C   UNL     1       9.498  35.169  16.852  0.00  0.00    +0.000 A 
BRANCH  18  19
ATOM     19  O   UNL     1      10.432  36.126  17.126  0.00  0.00    +0.000 OA
ATOM     20  H   UNL     1      10.667  36.062  18.068  0.00  0.00    +0.000 HD
ENDBRANCH  18  19
ENDBRANCH  12  13
ENDBRANCH   1  11
TORSDOF 5
ENDMDL
