MODEL 1
REMARK VINA RESULT:      -6.8      0.000      0.000
REMARK  Name = 448438_Violaxanthin.pdbqt.pdb
REMARK  16 active torsions:
REMARK  status: ('A' for Active; 'I' for Inactive)
REMARK    1  A    between atoms: C_1  and  C_5
REMARK    2  A    between atoms: C_2  and  C_27
REMARK    3  A    between atoms: C_3  and  C_5
REMARK    4  A    between atoms: C_3  and  C_7
REMARK    5  A    between atoms: C_6  and  C_10
REMARK    6  A    between atoms: C_8  and  C_10
REMARK    7  A    between atoms: C_8  and  C_12
REMARK    8  A    between atoms: C_11  and  C_14
REMARK    9  A    between atoms: C_19  and  O_23
REMARK   10  A    between atoms: C_25  and  C_27
REMARK   11  A    between atoms: C_25  and  C_29
REMARK   12  A    between atoms: C_28  and  C_32
REMARK   13  A    between atoms: C_30  and  C_32
REMARK   14  A    between atoms: C_30  and  C_34
REMARK   15  A    between atoms: C_33  and  C_36
REMARK   16  A    between atoms: C_41  and  O_45
REMARK                            x       y       z     vdW  Elec       q    Type
REMARK                         _______ _______ _______ _____ _____    ______ ____
ROOT
ATOM      1  C   UNL     1       8.736  50.792  19.145  0.00  0.00    +0.000 C 
ATOM      2  C   UNL     1       7.546  50.728  19.283  0.00  0.00    +0.000 C 
ENDROOT
BRANCH   2   3
ATOM      3  C   UNL     1       6.025  50.649  19.461  0.00  0.00    +0.000 C 
BRANCH   3   4
ATOM      4  C   UNL     1       4.739  50.582  19.609  0.00  0.00    +0.000 C 
ATOM      5  C   UNL     1       3.933  51.842  19.706  0.00  0.00    +0.000 C 
BRANCH   4   7
ATOM      6  C   UNL     1       3.571  48.255  19.866  0.00  0.00    +0.000 C 
ATOM      7  C   UNL     1       4.108  49.323  19.748  0.00  0.00    +0.000 C 
BRANCH   6   8
ATOM      8  C   UNL     1       2.885  46.892  20.017  0.00  0.00    +0.000 C 
BRANCH   8   9
ATOM      9  C   UNL     1       2.304  45.740  20.149  0.00  0.00    +0.000 C 
ATOM     10  C   UNL     1       2.028  45.194  21.516  0.00  0.00    +0.000 C 
BRANCH   9  12
ATOM     11  C   UNL     1       1.403  44.482  18.035  0.00  0.00    +0.000 C 
ATOM     12  C   UNL     1       1.821  45.059  19.003  0.00  0.00    +0.000 C 
BRANCH  11  14
ATOM     13  O   UNL     1       1.978  43.313  16.047  0.00  0.00    +0.000 OA
ATOM     14  C   UNL     1       0.876  43.781  16.874  0.00  0.00    +0.000 C 
ATOM     15  C   UNL     1       1.209  42.287  16.672  0.00  0.00    +0.000 C 
ATOM     16  C   UNL     1      -0.364  44.366  16.118  0.00  0.00    +0.000 C 
ATOM     17  C   UNL     1       0.409  41.569  15.734  0.00  0.00    +0.000 C 
ATOM     18  C   UNL     1      -0.838  43.333  15.185  0.00  0.00    +0.000 C 
ATOM     19  C   UNL     1      -0.638  41.971  14.888  0.00  0.00    +0.000 C 
ATOM     20  C   UNL     1       2.004  41.464  17.689  0.00  0.00    +0.000 C 
ATOM     21  C   UNL     1      -1.434  44.640  17.202  0.00  0.00    +0.000 C 
ATOM     22  C   UNL     1       0.117  45.649  15.408  0.00  0.00    +0.000 C 
BRANCH  19  23
ATOM     23  O   UNL     1      -0.775  41.465  13.631  0.00  0.00    +0.000 OA
ATOM     24  H   UNL     1      -0.912  42.156  12.960  0.00  0.00    +0.000 HD
ENDBRANCH  19  23
ENDBRANCH  11  14
ENDBRANCH   9  12
ENDBRANCH   8   9
ENDBRANCH   6   8
ENDBRANCH   4   7
ENDBRANCH   3   4
ENDBRANCH   2   3
BRANCH   1  25
ATOM     25  C   UNL     1      10.257  50.872  18.968  0.00  0.00    +0.000 C 
BRANCH  25  26
ATOM     26  C   UNL     1      11.543  50.939  18.818  0.00  0.00    +0.000 C 
ATOM     27  C   UNL     1      12.425  51.120  20.017  0.00  0.00    +0.000 C 
BRANCH  26  29
ATOM     28  C   UNL     1      12.596  50.710  16.436  0.00  0.00    +0.000 C 
ATOM     29  C   UNL     1      12.113  50.817  17.530  0.00  0.00    +0.000 C 
BRANCH  28  30
ATOM     30  C   UNL     1      13.214  50.565  15.039  0.00  0.00    +0.000 C 
BRANCH  30  31
ATOM     31  C   UNL     1      13.734  50.448  13.858  0.00  0.00    +0.000 C 
ATOM     32  C   UNL     1      14.677  51.496  13.350  0.00  0.00    +0.000 C 
BRANCH  31  34
ATOM     33  C   UNL     1      13.202  48.339  12.397  0.00  0.00    +0.000 C 
ATOM     34  C   UNL     1      13.448  49.306  13.069  0.00  0.00    +0.000 C 
BRANCH  33  36
ATOM     35  O   UNL     1      11.859  46.381  12.214  0.00  0.00    +0.000 OA
ATOM     36  C   UNL     1      12.902  47.174  11.578  0.00  0.00    +0.000 C 
ATOM     37  C   UNL     1      11.489  47.002  10.984  0.00  0.00    +0.000 C 
ATOM     38  C   UNL     1      14.081  46.371  10.921  0.00  0.00    +0.000 C 
ATOM     39  C   UNL     1      11.337  46.056   9.926  0.00  0.00    +0.000 C 
ATOM     40  C   UNL     1      13.487  45.466   9.934  0.00  0.00    +0.000 C 
ATOM     41  C   UNL     1      12.255  45.189   9.311  0.00  0.00    +0.000 C 
ATOM     42  C   UNL     1      10.372  48.037  11.141  0.00  0.00    +0.000 C 
ATOM     43  C   UNL     1      14.803  45.645  12.079  0.00  0.00    +0.000 C 
ATOM     44  C   UNL     1      14.977  47.434  10.232  0.00  0.00    +0.000 C 
BRANCH  41  45
ATOM     45  O   UNL     1      12.187  44.856   7.993  0.00  0.00    +0.000 OA
ATOM     46  H   UNL     1      11.445  44.255   7.799  0.00  0.00    +0.000 HD
ENDBRANCH  41  45
ENDBRANCH  33  36
ENDBRANCH  31  34
ENDBRANCH  30  31
ENDBRANCH  28  30
ENDBRANCH  26  29
ENDBRANCH  25  26
ENDBRANCH   1  25
TORSDOF 16
ENDMDL
MODEL 2
REMARK VINA RESULT:      -6.7     21.451     31.435
REMARK  Name = 448438_Violaxanthin.pdbqt.pdb
REMARK  16 active torsions:
REMARK  status: ('A' for Active; 'I' for Inactive)
REMARK    1  A    between atoms: C_1  and  C_5
REMARK    2  A    between atoms: C_2  and  C_27
REMARK    3  A    between atoms: C_3  and  C_5
REMARK    4  A    between atoms: C_3  and  C_7
REMARK    5  A    between atoms: C_6  and  C_10
REMARK    6  A    between atoms: C_8  and  C_10
REMARK    7  A    between atoms: C_8  and  C_12
REMARK    8  A    between atoms: C_11  and  C_14
REMARK    9  A    between atoms: C_19  and  O_23
REMARK   10  A    between atoms: C_25  and  C_27
REMARK   11  A    between atoms: C_25  and  C_29
REMARK   12  A    between atoms: C_28  and  C_32
REMARK   13  A    between atoms: C_30  and  C_32
REMARK   14  A    between atoms: C_30  and  C_34
REMARK   15  A    between atoms: C_33  and  C_36
REMARK   16  A    between atoms: C_41  and  O_45
REMARK                            x       y       z     vdW  Elec       q    Type
REMARK                         _______ _______ _______ _____ _____    ______ ____
ROOT
ATOM      1  C   UNL     1     -18.473  30.090   9.499  0.00  0.00    +0.000 C 
ATOM      2  C   UNL     1     -17.746  30.609   8.698  0.00  0.00    +0.000 C 
ENDROOT
BRANCH   2   3
ATOM      3  C   UNL     1     -16.819  31.274   7.674  0.00  0.00    +0.000 C 
BRANCH   3   4
ATOM      4  C   UNL     1     -16.037  31.838   6.809  0.00  0.00    +0.000 C 
ATOM      5  C   UNL     1     -15.106  30.998   5.986  0.00  0.00    +0.000 C 
BRANCH   4   7
ATOM      6  C   UNL     1     -15.991  34.444   6.590  0.00  0.00    +0.000 C 
ATOM      7  C   UNL     1     -16.012  33.247   6.690  0.00  0.00    +0.000 C 
BRANCH   6   8
ATOM      8  C   UNL     1     -15.962  35.972   6.462  0.00  0.00    +0.000 C 
BRANCH   8   9
ATOM      9  C   UNL     1     -15.938  37.264   6.352  0.00  0.00    +0.000 C 
ATOM     10  C   UNL     1     -17.071  37.978   5.680  0.00  0.00    +0.000 C 
BRANCH   9  12
ATOM     11  C   UNL     1     -14.030  38.642   7.503  0.00  0.00    +0.000 C 
ATOM     12  C   UNL     1     -14.902  38.006   6.974  0.00  0.00    +0.000 C 
BRANCH  11  14
ATOM     13  O   UNL     1     -11.894  39.643   7.211  0.00  0.00    +0.000 OA
ATOM     14  C   UNL     1     -12.990  39.430   8.145  0.00  0.00    +0.000 C 
ATOM     15  C   UNL     1     -12.622  40.816   7.573  0.00  0.00    +0.000 C 
ATOM     16  C   UNL     1     -12.591  39.119   9.627  0.00  0.00    +0.000 C 
ATOM     17  C   UNL     1     -11.862  41.682   8.414  0.00  0.00    +0.000 C 
ATOM     18  C   UNL     1     -11.738  40.221  10.094  0.00  0.00    +0.000 C 
ATOM     19  C   UNL     1     -11.319  41.507   9.698  0.00  0.00    +0.000 C 
ATOM     20  C   UNL     1     -13.366  41.457   6.398  0.00  0.00    +0.000 C 
ATOM     21  C   UNL     1     -13.915  39.091  10.428  0.00  0.00    +0.000 C 
ATOM     22  C   UNL     1     -11.866  37.756   9.613  0.00  0.00    +0.000 C 
BRANCH  19  23
ATOM     23  O   UNL     1     -10.104  42.020  10.035  0.00  0.00    +0.000 OA
ATOM     24  H   UNL     1      -9.427  41.332  10.166  0.00  0.00    +0.000 HD
ENDBRANCH  19  23
ENDBRANCH  11  14
ENDBRANCH   9  12
ENDBRANCH   8   9
ENDBRANCH   6   8
ENDBRANCH   4   7
ENDBRANCH   3   4
ENDBRANCH   2   3
BRANCH   1  25
ATOM     25  C   UNL     1     -19.402  29.426  10.523  0.00  0.00    +0.000 C 
BRANCH  25  26
ATOM     26  C   UNL     1     -20.186  28.864  11.388  0.00  0.00    +0.000 C 
ATOM     27  C   UNL     1     -21.539  29.450  11.659  0.00  0.00    +0.000 C 
BRANCH  26  29
ATOM     28  C   UNL     1     -19.431  26.687  12.626  0.00  0.00    +0.000 C 
ATOM     29  C   UNL     1     -19.776  27.687  12.056  0.00  0.00    +0.000 C 
BRANCH  28  30
ATOM     30  C   UNL     1     -18.992  25.414  13.359  0.00  0.00    +0.000 C 
BRANCH  30  31
ATOM     31  C   UNL     1     -18.621  24.335  13.975  0.00  0.00    +0.000 C 
ATOM     32  C   UNL     1     -19.346  23.893  15.209  0.00  0.00    +0.000 C 
BRANCH  31  34
ATOM     33  C   UNL     1     -16.667  22.884  13.005  0.00  0.00    +0.000 C 
ATOM     34  C   UNL     1     -17.563  23.551  13.453  0.00  0.00    +0.000 C 
BRANCH  33  36
ATOM     35  O   UNL     1     -16.119  21.139  11.480  0.00  0.00    +0.000 OA
ATOM     36  C   UNL     1     -15.586  22.078  12.458  0.00  0.00    +0.000 C 
ATOM     37  C   UNL     1     -15.267  22.153  10.950  0.00  0.00    +0.000 C 
ATOM     38  C   UNL     1     -14.475  21.524  13.420  0.00  0.00    +0.000 C 
ATOM     39  C   UNL     1     -14.009  21.633  10.523  0.00  0.00    +0.000 C 
ATOM     40  C   UNL     1     -13.386  21.027  12.577  0.00  0.00    +0.000 C 
ATOM     41  C   UNL     1     -12.969  21.009  11.232  0.00  0.00    +0.000 C 
ATOM     42  C   UNL     1     -15.982  23.096   9.978  0.00  0.00    +0.000 C 
ATOM     43  C   UNL     1     -15.154  20.428  14.272  0.00  0.00    +0.000 C 
ATOM     44  C   UNL     1     -14.014  22.738  14.267  0.00  0.00    +0.000 C 
BRANCH  41  45
ATOM     45  O   UNL     1     -11.657  21.152  10.894  0.00  0.00    +0.000 OA
ATOM     46  H   UNL     1     -11.540  21.630  10.053  0.00  0.00    +0.000 HD
ENDBRANCH  41  45
ENDBRANCH  33  36
ENDBRANCH  31  34
ENDBRANCH  30  31
ENDBRANCH  28  30
ENDBRANCH  26  29
ENDBRANCH  25  26
ENDBRANCH   1  25
TORSDOF 16
ENDMDL
MODEL 3
REMARK VINA RESULT:      -6.5      8.168     15.061
REMARK  Name = 448438_Violaxanthin.pdbqt.pdb
REMARK  16 active torsions:
REMARK  status: ('A' for Active; 'I' for Inactive)
REMARK    1  A    between atoms: C_1  and  C_5
REMARK    2  A    between atoms: C_2  and  C_27
REMARK    3  A    between atoms: C_3  and  C_5
REMARK    4  A    between atoms: C_3  and  C_7
REMARK    5  A    between atoms: C_6  and  C_10
REMARK    6  A    between atoms: C_8  and  C_10
REMARK    7  A    between atoms: C_8  and  C_12
REMARK    8  A    between atoms: C_11  and  C_14
REMARK    9  A    between atoms: C_19  and  O_23
REMARK   10  A    between atoms: C_25  and  C_27
REMARK   11  A    between atoms: C_25  and  C_29
REMARK   12  A    between atoms: C_28  and  C_32
REMARK   13  A    between atoms: C_30  and  C_32
REMARK   14  A    between atoms: C_30  and  C_34
REMARK   15  A    between atoms: C_33  and  C_36
REMARK   16  A    between atoms: C_41  and  O_45
REMARK                            x       y       z     vdW  Elec       q    Type
REMARK                         _______ _______ _______ _____ _____    ______ ____
ROOT
ATOM      1  C   UNL     1      10.992  54.882  15.777  0.00  0.00    +0.000 C 
ATOM      2  C   UNL     1      11.501  54.321  14.847  0.00  0.00    +0.000 C 
ENDROOT
BRANCH   2   3
ATOM      3  C   UNL     1      12.153  53.606  13.658  0.00  0.00    +0.000 C 
BRANCH   3   4
ATOM      4  C   UNL     1      12.703  53.000  12.653  0.00  0.00    +0.000 C 
ATOM      5  C   UNL     1      13.516  53.782  11.665  0.00  0.00    +0.000 C 
BRANCH   4   7
ATOM      6  C   UNL     1      12.292  50.444  12.283  0.00  0.00    +0.000 C 
ATOM      7  C   UNL     1      12.481  51.618  12.453  0.00  0.00    +0.000 C 
BRANCH   6   8
ATOM      8  C   UNL     1      12.052  48.944  12.067  0.00  0.00    +0.000 C 
BRANCH   8   9
ATOM      9  C   UNL     1      11.851  47.676  11.888  0.00  0.00    +0.000 C 
ATOM     10  C   UNL     1      10.545  47.062  12.292  0.00  0.00    +0.000 C 
BRANCH   9  12
ATOM     11  C   UNL     1      13.636  46.235  10.623  0.00  0.00    +0.000 C 
ATOM     12  C   UNL     1      12.816  46.899  11.200  0.00  0.00    +0.000 C 
BRANCH  11  14
ATOM     13  O   UNL     1      14.682  44.102  10.564  0.00  0.00    +0.000 OA
ATOM     14  C   UNL     1      14.631  45.418   9.946  0.00  0.00    +0.000 C 
ATOM     15  C   UNL     1      14.191  44.126   9.224  0.00  0.00    +0.000 C 
ATOM     16  C   UNL     1      16.005  46.052   9.543  0.00  0.00    +0.000 C 
ATOM     17  C   UNL     1      15.117  43.554   8.302  0.00  0.00    +0.000 C 
ATOM     18  C   UNL     1      16.684  45.101   8.650  0.00  0.00    +0.000 C 
ATOM     19  C   UNL     1      16.423  43.917   7.933  0.00  0.00    +0.000 C 
ATOM     20  C   UNL     1      12.727  43.695   9.104  0.00  0.00    +0.000 C 
ATOM     21  C   UNL     1      15.666  47.355   8.780  0.00  0.00    +0.000 C 
ATOM     22  C   UNL     1      16.776  46.305  10.856  0.00  0.00    +0.000 C 
BRANCH  19  23
ATOM     23  O   UNL     1      17.381  42.982   7.685  0.00  0.00    +0.000 OA
ATOM     24  H   UNL     1      18.236  43.376   7.435  0.00  0.00    +0.000 HD
ENDBRANCH  19  23
ENDBRANCH  11  14
ENDBRANCH   9  12
ENDBRANCH   8   9
ENDBRANCH   6   8
ENDBRANCH   4   7
ENDBRANCH   3   4
ENDBRANCH   2   3
BRANCH   1  25
ATOM     25  C   UNL     1      10.340  55.598  16.967  0.00  0.00    +0.000 C 
BRANCH  25  26
ATOM     26  C   UNL     1       9.789  56.203  17.972  0.00  0.00    +0.000 C 
ATOM     27  C   UNL     1      10.052  55.721  19.367  0.00  0.00    +0.000 C 
BRANCH  26  29
ATOM     28  C   UNL     1       8.266  58.290  17.567  0.00  0.00    +0.000 C 
ATOM     29  C   UNL     1       8.964  57.330  17.754  0.00  0.00    +0.000 C 
BRANCH  28  30
ATOM     30  C   UNL     1       7.381  59.519  17.328  0.00  0.00    +0.000 C 
BRANCH  30  31
ATOM     31  C   UNL     1       6.636  60.560  17.123  0.00  0.00    +0.000 C 
ATOM     32  C   UNL     1       7.248  61.828  16.611  0.00  0.00    +0.000 C 
BRANCH  31  34
ATOM     33  C   UNL     1       4.049  60.413  17.512  0.00  0.00    +0.000 C 
ATOM     34  C   UNL     1       5.237  60.482  17.336  0.00  0.00    +0.000 C 
BRANCH  33  36
ATOM     35  O   UNL     1       2.027  61.658  17.690  0.00  0.00    +0.000 OA
ATOM     36  C   UNL     1       2.611  60.324  17.721  0.00  0.00    +0.000 C 
ATOM     37  C   UNL     1       1.649  60.802  16.613  0.00  0.00    +0.000 C 
ATOM     38  C   UNL     1       2.051  59.345  18.813  0.00  0.00    +0.000 C 
ATOM     39  C   UNL     1       0.288  60.384  16.708  0.00  0.00    +0.000 C 
ATOM     40  C   UNL     1       0.607  59.240  18.595  0.00  0.00    +0.000 C 
ATOM     41  C   UNL     1      -0.387  59.615  17.671  0.00  0.00    +0.000 C 
ATOM     42  C   UNL     1       2.115  61.309  15.246  0.00  0.00    +0.000 C 
ATOM     43  C   UNL     1       2.432  59.963  20.178  0.00  0.00    +0.000 C 
ATOM     44  C   UNL     1       2.753  57.987  18.556  0.00  0.00    +0.000 C 
BRANCH  41  45
ATOM     45  O   UNL     1      -1.416  58.780  17.358  0.00  0.00    +0.000 OA
ATOM     46  H   UNL     1      -2.057  58.690  18.087  0.00  0.00    +0.000 HD
ENDBRANCH  41  45
ENDBRANCH  33  36
ENDBRANCH  31  34
ENDBRANCH  30  31
ENDBRANCH  28  30
ENDBRANCH  26  29
ENDBRANCH  25  26
ENDBRANCH   1  25
TORSDOF 16
ENDMDL
MODEL 4
REMARK VINA RESULT:      -6.4     28.979     33.070
REMARK  Name = 448438_Violaxanthin.pdbqt.pdb
REMARK  16 active torsions:
REMARK  status: ('A' for Active; 'I' for Inactive)
REMARK    1  A    between atoms: C_1  and  C_5
REMARK    2  A    between atoms: C_2  and  C_27
REMARK    3  A    between atoms: C_3  and  C_5
REMARK    4  A    between atoms: C_3  and  C_7
REMARK    5  A    between atoms: C_6  and  C_10
REMARK    6  A    between atoms: C_8  and  C_10
REMARK    7  A    between atoms: C_8  and  C_12
REMARK    8  A    between atoms: C_11  and  C_14
REMARK    9  A    between atoms: C_19  and  O_23
REMARK   10  A    between atoms: C_25  and  C_27
REMARK   11  A    between atoms: C_25  and  C_29
REMARK   12  A    between atoms: C_28  and  C_32
REMARK   13  A    between atoms: C_30  and  C_32
REMARK   14  A    between atoms: C_30  and  C_34
REMARK   15  A    between atoms: C_33  and  C_36
REMARK   16  A    between atoms: C_41  and  O_45
REMARK                            x       y       z     vdW  Elec       q    Type
REMARK                         _______ _______ _______ _____ _____    ______ ____
ROOT
ATOM      1  C   UNL     1      -3.736  13.970  11.846  0.00  0.00    +0.000 C 
ATOM      2  C   UNL     1      -4.450  14.856  12.227  0.00  0.00    +0.000 C 
ENDROOT
BRANCH   2   3
ATOM      3  C   UNL     1      -5.360  15.990  12.713  0.00  0.00    +0.000 C 
BRANCH   3   4
ATOM      4  C   UNL     1      -6.127  16.951  13.123  0.00  0.00    +0.000 C 
ATOM      5  C   UNL     1      -5.658  17.867  14.213  0.00  0.00    +0.000 C 
BRANCH   4   7
ATOM      6  C   UNL     1      -8.537  17.210  12.139  0.00  0.00    +0.000 C 
ATOM      7  C   UNL     1      -7.430  17.091  12.591  0.00  0.00    +0.000 C 
BRANCH   6   8
ATOM      8  C   UNL     1      -9.950  17.364  11.563  0.00  0.00    +0.000 C 
BRANCH   8   9
ATOM      9  C   UNL     1     -11.146  17.495  11.080  0.00  0.00    +0.000 C 
ATOM     10  C   UNL     1     -11.622  16.568  10.004  0.00  0.00    +0.000 C 
BRANCH   9  12
ATOM     11  C   UNL     1     -12.806  19.224  12.138  0.00  0.00    +0.000 C 
ATOM     12  C   UNL     1     -12.041  18.432  11.655  0.00  0.00    +0.000 C 
BRANCH  11  14
ATOM     13  O   UNL     1     -14.710  19.474  13.537  0.00  0.00    +0.000 OA
ATOM     14  C   UNL     1     -13.748  20.178  12.704  0.00  0.00    +0.000 C 
ATOM     15  C   UNL     1     -13.828  20.351  14.236  0.00  0.00    +0.000 C 
ATOM     16  C   UNL     1     -14.315  21.328  11.805  0.00  0.00    +0.000 C 
ATOM     17  C   UNL     1     -14.497  21.513  14.720  0.00  0.00    +0.000 C 
ATOM     18  C   UNL     1     -15.005  22.278  12.689  0.00  0.00    +0.000 C 
ATOM     19  C   UNL     1     -15.166  22.557  14.060  0.00  0.00    +0.000 C 
ATOM     20  C   UNL     1     -12.892  19.626  15.207  0.00  0.00    +0.000 C 
ATOM     21  C   UNL     1     -13.084  22.002  11.150  0.00  0.00    +0.000 C 
ATOM     22  C   UNL     1     -15.255  20.663  10.778  0.00  0.00    +0.000 C 
BRANCH  19  23
ATOM     23  O   UNL     1     -16.301  23.112  14.569  0.00  0.00    +0.000 OA
ATOM     24  H   UNL     1     -16.146  23.591  15.402  0.00  0.00    +0.000 HD
ENDBRANCH  19  23
ENDBRANCH  11  14
ENDBRANCH   9  12
ENDBRANCH   8   9
ENDBRANCH   6   8
ENDBRANCH   4   7
ENDBRANCH   3   4
ENDBRANCH   2   3
BRANCH   1  25
ATOM     25  C   UNL     1      -2.825  12.836  11.359  0.00  0.00    +0.000 C 
BRANCH  25  26
ATOM     26  C   UNL     1      -2.056  11.878  10.949  0.00  0.00    +0.000 C 
ATOM     27  C   UNL     1      -2.591  10.481  10.850  0.00  0.00    +0.000 C 
BRANCH  26  29
ATOM     28  C   UNL     1       0.412  12.385  10.248  0.00  0.00    +0.000 C 
ATOM     29  C   UNL     1      -0.722  12.154  10.570  0.00  0.00    +0.000 C 
BRANCH  28  30
ATOM     30  C   UNL     1       1.862  12.674   9.837  0.00  0.00    +0.000 C 
BRANCH  30  31
ATOM     31  C   UNL     1       3.086  12.922   9.492  0.00  0.00    +0.000 C 
ATOM     32  C   UNL     1       4.024  11.791   9.200  0.00  0.00    +0.000 C 
BRANCH  31  34
ATOM     33  C   UNL     1       3.897  15.399   9.221  0.00  0.00    +0.000 C 
ATOM     34  C   UNL     1       3.522  14.262   9.345  0.00  0.00    +0.000 C 
BRANCH  33  36
ATOM     35  O   UNL     1       5.324  16.849   7.983  0.00  0.00    +0.000 OA
ATOM     36  C   UNL     1       4.357  16.771   9.070  0.00  0.00    +0.000 C 
ATOM     37  C   UNL     1       4.089  17.524   7.750  0.00  0.00    +0.000 C 
ATOM     38  C   UNL     1       4.681  17.620  10.350  0.00  0.00    +0.000 C 
ATOM     39  C   UNL     1       4.238  18.943   7.767  0.00  0.00    +0.000 C 
ATOM     40  C   UNL     1       4.819  19.013   9.919  0.00  0.00    +0.000 C 
ATOM     41  C   UNL     1       4.628  19.828   8.786  0.00  0.00    +0.000 C 
ATOM     42  C   UNL     1       3.288  16.935   6.585  0.00  0.00    +0.000 C 
ATOM     43  C   UNL     1       5.976  17.021  10.946  0.00  0.00    +0.000 C 
ATOM     44  C   UNL     1       3.458  17.447  11.287  0.00  0.00    +0.000 C 
BRANCH  41  45
ATOM     45  O   UNL     1       4.130  21.091   8.897  0.00  0.00    +0.000 OA
ATOM     46  H   UNL     1       4.832  21.767   8.911  0.00  0.00    +0.000 HD
ENDBRANCH  41  45
ENDBRANCH  33  36
ENDBRANCH  31  34
ENDBRANCH  30  31
ENDBRANCH  28  30
ENDBRANCH  26  29
ENDBRANCH  25  26
ENDBRANCH   1  25
TORSDOF 16
ENDMDL
MODEL 5
REMARK VINA RESULT:      -6.4     13.163     18.438
REMARK  Name = 448438_Violaxanthin.pdbqt.pdb
REMARK  16 active torsions:
REMARK  status: ('A' for Active; 'I' for Inactive)
REMARK    1  A    between atoms: C_1  and  C_5
REMARK    2  A    between atoms: C_2  and  C_27
REMARK    3  A    between atoms: C_3  and  C_5
REMARK    4  A    between atoms: C_3  and  C_7
REMARK    5  A    between atoms: C_6  and  C_10
REMARK    6  A    between atoms: C_8  and  C_10
REMARK    7  A    between atoms: C_8  and  C_12
REMARK    8  A    between atoms: C_11  and  C_14
REMARK    9  A    between atoms: C_19  and  O_23
REMARK   10  A    between atoms: C_25  and  C_27
REMARK   11  A    between atoms: C_25  and  C_29
REMARK   12  A    between atoms: C_28  and  C_32
REMARK   13  A    between atoms: C_30  and  C_32
REMARK   14  A    between atoms: C_30  and  C_34
REMARK   15  A    between atoms: C_33  and  C_36
REMARK   16  A    between atoms: C_41  and  O_45
REMARK                            x       y       z     vdW  Elec       q    Type
REMARK                         _______ _______ _______ _____ _____    ______ ____
ROOT
ATOM      1  C   UNL     1      -2.721  56.858  16.377  0.00  0.00    +0.000 C 
ATOM      2  C   UNL     1      -3.328  57.298  15.440  0.00  0.00    +0.000 C 
ENDROOT
BRANCH   2   3
ATOM      3  C   UNL     1      -4.105  57.863  14.246  0.00  0.00    +0.000 C 
BRANCH   3   4
ATOM      4  C   UNL     1      -4.761  58.343  13.236  0.00  0.00    +0.000 C 
ATOM      5  C   UNL     1      -6.203  57.983  13.044  0.00  0.00    +0.000 C 
BRANCH   4   7
ATOM      6  C   UNL     1      -3.536  59.835  11.470  0.00  0.00    +0.000 C 
ATOM      7  C   UNL     1      -4.099  59.150  12.281  0.00  0.00    +0.000 C 
BRANCH   6   8
ATOM      8  C   UNL     1      -2.819  60.711  10.436  0.00  0.00    +0.000 C 
BRANCH   8   9
ATOM      9  C   UNL     1      -2.214  61.450   9.558  0.00  0.00    +0.000 C 
ATOM     10  C   UNL     1      -2.570  61.330   8.108  0.00  0.00    +0.000 C 
BRANCH   9  12
ATOM     11  C   UNL     1      -0.549  63.309  10.353  0.00  0.00    +0.000 C 
ATOM     12  C   UNL     1      -1.310  62.454   9.985  0.00  0.00    +0.000 C 
BRANCH  11  14
ATOM     13  O   UNL     1       1.648  64.195  10.167  0.00  0.00    +0.000 OA
ATOM     14  C   UNL     1       0.354  64.354  10.812  0.00  0.00    +0.000 C 
ATOM     15  C   UNL     1       0.923  65.367   9.796  0.00  0.00    +0.000 C 
ATOM     16  C   UNL     1       0.375  64.744  12.329  0.00  0.00    +0.000 C 
ATOM     17  C   UNL     1       1.511  66.553  10.328  0.00  0.00    +0.000 C 
ATOM     18  C   UNL     1       1.155  65.984  12.453  0.00  0.00    +0.000 C 
ATOM     19  C   UNL     1       1.726  66.987  11.646  0.00  0.00    +0.000 C 
ATOM     20  C   UNL     1       0.514  65.389   8.321  0.00  0.00    +0.000 C 
ATOM     21  C   UNL     1      -1.101  64.997  12.723  0.00  0.00    +0.000 C 
ATOM     22  C   UNL     1       1.005  63.553  13.082  0.00  0.00    +0.000 C 
BRANCH  19  23
ATOM     23  O   UNL     1       2.855  67.660  12.001  0.00  0.00    +0.000 OA
ATOM     24  H   UNL     1       2.974  67.715  12.967  0.00  0.00    +0.000 HD
ENDBRANCH  19  23
ENDBRANCH  11  14
ENDBRANCH   9  12
ENDBRANCH   8   9
ENDBRANCH   6   8
ENDBRANCH   4   7
ENDBRANCH   3   4
ENDBRANCH   2   3
BRANCH   1  25
ATOM     25  C   UNL     1      -1.944  56.293  17.573  0.00  0.00    +0.000 C 
BRANCH  25  26
ATOM     26  C   UNL     1      -1.288  55.816  18.583  0.00  0.00    +0.000 C 
ATOM     27  C   UNL     1      -1.961  54.866  19.527  0.00  0.00    +0.000 C 
BRANCH  26  29
ATOM     28  C   UNL     1       1.217  56.474  18.947  0.00  0.00    +0.000 C 
ATOM     29  C   UNL     1       0.067  56.170  18.778  0.00  0.00    +0.000 C 
BRANCH  28  30
ATOM     30  C   UNL     1       2.683  56.867  19.167  0.00  0.00    +0.000 C 
BRANCH  30  31
ATOM     31  C   UNL     1       3.923  57.200  19.348  0.00  0.00    +0.000 C 
ATOM     32  C   UNL     1       4.851  56.264  20.061  0.00  0.00    +0.000 C 
BRANCH  31  34
ATOM     33  C   UNL     1       4.817  59.467  18.386  0.00  0.00    +0.000 C 
ATOM     34  C   UNL     1       4.409  58.426  18.830  0.00  0.00    +0.000 C 
BRANCH  33  36
ATOM     35  O   UNL     1       4.643  61.011  16.581  0.00  0.00    +0.000 OA
ATOM     36  C   UNL     1       5.305  60.727  17.847  0.00  0.00    +0.000 C 
ATOM     37  C   UNL     1       4.325  61.903  17.648  0.00  0.00    +0.000 C 
ATOM     38  C   UNL     1       6.841  61.050  17.915  0.00  0.00    +0.000 C 
ATOM     39  C   UNL     1       4.892  63.198  17.456  0.00  0.00    +0.000 C 
ATOM     40  C   UNL     1       6.995  62.470  17.590  0.00  0.00    +0.000 C 
ATOM     41  C   UNL     1       6.226  63.630  17.377  0.00  0.00    +0.000 C 
ATOM     42  C   UNL     1       2.851  61.855  18.058  0.00  0.00    +0.000 C 
ATOM     43  C   UNL     1       7.523  60.102  16.903  0.00  0.00    +0.000 C 
ATOM     44  C   UNL     1       7.263  60.765  19.379  0.00  0.00    +0.000 C 
BRANCH  41  45
ATOM     45  O   UNL     1       6.636  64.846  17.832  0.00  0.00    +0.000 OA
ATOM     46  H   UNL     1       6.330  65.578  17.265  0.00  0.00    +0.000 HD
ENDBRANCH  41  45
ENDBRANCH  33  36
ENDBRANCH  31  34
ENDBRANCH  30  31
ENDBRANCH  28  30
ENDBRANCH  26  29
ENDBRANCH  25  26
ENDBRANCH   1  25
TORSDOF 16
ENDMDL
MODEL 6
REMARK VINA RESULT:      -6.3     13.172     17.439
REMARK  Name = 448438_Violaxanthin.pdbqt.pdb
REMARK  16 active torsions:
REMARK  status: ('A' for Active; 'I' for Inactive)
REMARK    1  A    between atoms: C_1  and  C_5
REMARK    2  A    between atoms: C_2  and  C_27
REMARK    3  A    between atoms: C_3  and  C_5
REMARK    4  A    between atoms: C_3  and  C_7
REMARK    5  A    between atoms: C_6  and  C_10
REMARK    6  A    between atoms: C_8  and  C_10
REMARK    7  A    between atoms: C_8  and  C_12
REMARK    8  A    between atoms: C_11  and  C_14
REMARK    9  A    between atoms: C_19  and  O_23
REMARK   10  A    between atoms: C_25  and  C_27
REMARK   11  A    between atoms: C_25  and  C_29
REMARK   12  A    between atoms: C_28  and  C_32
REMARK   13  A    between atoms: C_30  and  C_32
REMARK   14  A    between atoms: C_30  and  C_34
REMARK   15  A    between atoms: C_33  and  C_36
REMARK   16  A    between atoms: C_41  and  O_45
REMARK                            x       y       z     vdW  Elec       q    Type
REMARK                         _______ _______ _______ _____ _____    ______ ____
ROOT
ATOM      1  C   UNL     1       2.825  60.801  16.778  0.00  0.00    +0.000 C 
ATOM      2  C   UNL     1       2.017  61.417  16.140  0.00  0.00    +0.000 C 
ENDROOT
BRANCH   2   3
ATOM      3  C   UNL     1       0.987  62.206  15.323  0.00  0.00    +0.000 C 
BRANCH   3   4
ATOM      4  C   UNL     1       0.117  62.872  14.630  0.00  0.00    +0.000 C 
ATOM      5  C   UNL     1      -1.297  62.982  15.116  0.00  0.00    +0.000 C 
BRANCH   4   7
ATOM      6  C   UNL     1       0.799  63.914  12.330  0.00  0.00    +0.000 C 
ATOM      7  C   UNL     1       0.486  63.435  13.386  0.00  0.00    +0.000 C 
BRANCH   6   8
ATOM      8  C   UNL     1       1.197  64.527  10.981  0.00  0.00    +0.000 C 
BRANCH   8   9
ATOM      9  C   UNL     1       1.536  65.043   9.841  0.00  0.00    +0.000 C 
ATOM     10  C   UNL     1       2.865  65.719   9.692  0.00  0.00    +0.000 C 
BRANCH   9  12
ATOM     11  C   UNL     1       0.005  64.706   7.743  0.00  0.00    +0.000 C 
ATOM     12  C   UNL     1       0.704  64.858   8.708  0.00  0.00    +0.000 C 
BRANCH  11  14
ATOM     13  O   UNL     1      -0.632  63.195   6.021  0.00  0.00    +0.000 OA
ATOM     14  C   UNL     1      -0.825  64.533   6.560  0.00  0.00    +0.000 C 
ATOM     15  C   UNL     1      -1.929  63.454   6.556  0.00  0.00    +0.000 C 
ATOM     16  C   UNL     1      -0.932  65.695   5.516  0.00  0.00    +0.000 C 
ATOM     17  C   UNL     1      -2.922  63.548   5.537  0.00  0.00    +0.000 C 
ATOM     18  C   UNL     1      -2.027  65.360   4.595  0.00  0.00    +0.000 C 
ATOM     19  C   UNL     1      -3.083  64.437   4.461  0.00  0.00    +0.000 C 
ATOM     20  C   UNL     1      -2.264  62.598   7.782  0.00  0.00    +0.000 C 
ATOM     21  C   UNL     1      -1.285  66.965   6.328  0.00  0.00    +0.000 C 
ATOM     22  C   UNL     1       0.441  65.789   4.817  0.00  0.00    +0.000 C 
BRANCH  19  23
ATOM     23  O   UNL     1      -3.542  64.017   3.250  0.00  0.00    +0.000 OA
ATOM     24  H   UNL     1      -4.078  63.206   3.311  0.00  0.00    +0.000 HD
ENDBRANCH  19  23
ENDBRANCH  11  14
ENDBRANCH   9  12
ENDBRANCH   8   9
ENDBRANCH   6   8
ENDBRANCH   4   7
ENDBRANCH   3   4
ENDBRANCH   2   3
BRANCH   1  25
ATOM     25  C   UNL     1       3.857  60.014  17.595  0.00  0.00    +0.000 C 
BRANCH  25  26
ATOM     26  C   UNL     1       4.728  59.348  18.285  0.00  0.00    +0.000 C 
ATOM     27  C   UNL     1       6.138  59.848  18.387  0.00  0.00    +0.000 C 
BRANCH  26  29
ATOM     28  C   UNL     1       4.018  57.161  19.531  0.00  0.00    +0.000 C 
ATOM     29  C   UNL     1       4.344  58.167  18.960  0.00  0.00    +0.000 C 
BRANCH  28  30
ATOM     30  C   UNL     1       3.601  55.874  20.254  0.00  0.00    +0.000 C 
BRANCH  30  31
ATOM     31  C   UNL     1       3.249  54.784  20.860  0.00  0.00    +0.000 C 
ATOM     32  C   UNL     1       2.201  54.830  21.931  0.00  0.00    +0.000 C 
BRANCH  31  34
ATOM     33  C   UNL     1       4.308  52.496  20.150  0.00  0.00    +0.000 C 
ATOM     34  C   UNL     1       3.819  53.545  20.477  0.00  0.00    +0.000 C 
BRANCH  33  36
ATOM     35  O   UNL     1       4.892  51.109  18.304  0.00  0.00    +0.000 OA
ATOM     36  C   UNL     1       4.906  51.229  19.755  0.00  0.00    +0.000 C 
ATOM     37  C   UNL     1       6.186  51.225  18.892  0.00  0.00    +0.000 C 
ATOM     38  C   UNL     1       4.557  49.928  20.563  0.00  0.00    +0.000 C 
ATOM     39  C   UNL     1       6.921  50.004  18.824  0.00  0.00    +0.000 C 
ATOM     40  C   UNL     1       5.510  48.897  20.149  0.00  0.00    +0.000 C 
ATOM     41  C   UNL     1       6.683  48.739  19.386  0.00  0.00    +0.000 C 
ATOM     42  C   UNL     1       6.929  52.495  18.474  0.00  0.00    +0.000 C 
ATOM     43  C   UNL     1       3.087  49.592  20.221  0.00  0.00    +0.000 C 
ATOM     44  C   UNL     1       4.752  50.299  22.056  0.00  0.00    +0.000 C 
BRANCH  41  45
ATOM     45  O   UNL     1       7.687  47.911  19.791  0.00  0.00    +0.000 OA
ATOM     46  H   UNL     1       8.116  48.221  20.609  0.00  0.00    +0.000 HD
ENDBRANCH  41  45
ENDBRANCH  33  36
ENDBRANCH  31  34
ENDBRANCH  30  31
ENDBRANCH  28  30
ENDBRANCH  26  29
ENDBRANCH  25  26
ENDBRANCH   1  25
TORSDOF 16
ENDMDL
MODEL 7
REMARK VINA RESULT:      -6.3     11.797     19.072
REMARK  Name = 448438_Violaxanthin.pdbqt.pdb
REMARK  16 active torsions:
REMARK  status: ('A' for Active; 'I' for Inactive)
REMARK    1  A    between atoms: C_1  and  C_5
REMARK    2  A    between atoms: C_2  and  C_27
REMARK    3  A    between atoms: C_3  and  C_5
REMARK    4  A    between atoms: C_3  and  C_7
REMARK    5  A    between atoms: C_6  and  C_10
REMARK    6  A    between atoms: C_8  and  C_10
REMARK    7  A    between atoms: C_8  and  C_12
REMARK    8  A    between atoms: C_11  and  C_14
REMARK    9  A    between atoms: C_19  and  O_23
REMARK   10  A    between atoms: C_25  and  C_27
REMARK   11  A    between atoms: C_25  and  C_29
REMARK   12  A    between atoms: C_28  and  C_32
REMARK   13  A    between atoms: C_30  and  C_32
REMARK   14  A    between atoms: C_30  and  C_34
REMARK   15  A    between atoms: C_33  and  C_36
REMARK   16  A    between atoms: C_41  and  O_45
REMARK                            x       y       z     vdW  Elec       q    Type
REMARK                         _______ _______ _______ _____ _____    ______ ____
ROOT
ATOM      1  C   UNL     1       4.164  37.441  28.205  0.00  0.00    +0.000 C 
ATOM      2  C   UNL     1       5.188  37.575  27.594  0.00  0.00    +0.000 C 
ENDROOT
BRANCH   2   3
ATOM      3  C   UNL     1       6.494  37.746  26.811  0.00  0.00    +0.000 C 
BRANCH   3   4
ATOM      4  C   UNL     1       7.599  37.894  26.149  0.00  0.00    +0.000 C 
ATOM      5  C   UNL     1       8.470  39.086  26.408  0.00  0.00    +0.000 C 
BRANCH   4   7
ATOM      6  C   UNL     1       8.240  36.183  24.277  0.00  0.00    +0.000 C 
ATOM      7  C   UNL     1       7.945  36.969  25.136  0.00  0.00    +0.000 C 
BRANCH   6   8
ATOM      8  C   UNL     1       8.619  35.181  23.179  0.00  0.00    +0.000 C 
BRANCH   8   9
ATOM      9  C   UNL     1       8.935  34.333  22.250  0.00  0.00    +0.000 C 
ATOM     10  C   UNL     1       9.135  32.889  22.593  0.00  0.00    +0.000 C 
BRANCH   9  12
ATOM     11  C   UNL     1       8.995  35.114  19.750  0.00  0.00    +0.000 C 
ATOM     12  C   UNL     1       8.970  34.752  20.896  0.00  0.00    +0.000 C 
BRANCH  11  14
ATOM     13  O   UNL     1       8.267  36.818  18.262  0.00  0.00    +0.000 OA
ATOM     14  C   UNL     1       9.009  35.571  18.369  0.00  0.00    +0.000 C 
ATOM     15  C   UNL     1       9.670  36.922  18.021  0.00  0.00    +0.000 C 
ATOM     16  C   UNL     1       8.802  34.536  17.212  0.00  0.00    +0.000 C 
ATOM     17  C   UNL     1       9.963  37.163  16.646  0.00  0.00    +0.000 C 
ATOM     18  C   UNL     1       9.135  35.213  15.951  0.00  0.00    +0.000 C 
ATOM     19  C   UNL     1       9.723  36.406  15.487  0.00  0.00    +0.000 C 
ATOM     20  C   UNL     1      10.403  37.783  19.054  0.00  0.00    +0.000 C 
ATOM     21  C   UNL     1       9.804  33.387  17.484  0.00  0.00    +0.000 C 
ATOM     22  C   UNL     1       7.329  34.081  17.285  0.00  0.00    +0.000 C 
BRANCH  19  23
ATOM     23  O   UNL     1       9.363  36.994  14.312  0.00  0.00    +0.000 OA
ATOM     24  H   UNL     1      10.125  37.350  13.820  0.00  0.00    +0.000 HD
ENDBRANCH  19  23
ENDBRANCH  11  14
ENDBRANCH   9  12
ENDBRANCH   8   9
ENDBRANCH   6   8
ENDBRANCH   4   7
ENDBRANCH   3   4
ENDBRANCH   2   3
BRANCH   1  25
ATOM     25  C   UNL     1       2.856  37.269  28.987  0.00  0.00    +0.000 C 
BRANCH  25  26
ATOM     26  C   UNL     1       1.751  37.124  29.649  0.00  0.00    +0.000 C 
ATOM     27  C   UNL     1       1.226  35.748  29.930  0.00  0.00    +0.000 C 
BRANCH  26  29
ATOM     28  C   UNL     1       0.469  39.224  30.534  0.00  0.00    +0.000 C 
ATOM     29  C   UNL     1       1.057  38.259  30.125  0.00  0.00    +0.000 C 
BRANCH  28  30
ATOM     30  C   UNL     1      -0.278  40.455  31.062  0.00  0.00    +0.000 C 
BRANCH  30  31
ATOM     31  C   UNL     1      -0.906  41.498  31.506  0.00  0.00    +0.000 C 
ATOM     32  C   UNL     1      -0.552  42.070  32.844  0.00  0.00    +0.000 C 
BRANCH  31  34
ATOM     33  C   UNL     1      -2.727  42.657  30.020  0.00  0.00    +0.000 C 
ATOM     34  C   UNL     1      -1.893  42.124  30.704  0.00  0.00    +0.000 C 
BRANCH  33  36
ATOM     35  O   UNL     1      -4.024  44.629  29.707  0.00  0.00    +0.000 OA
ATOM     36  C   UNL     1      -3.731  43.301  29.186  0.00  0.00    +0.000 C 
ATOM     37  C   UNL     1      -3.380  44.602  28.435  0.00  0.00    +0.000 C 
ATOM     38  C   UNL     1      -4.962  42.466  28.681  0.00  0.00    +0.000 C 
ATOM     39  C   UNL     1      -4.252  45.000  27.378  0.00  0.00    +0.000 C 
ATOM     40  C   UNL     1      -5.623  43.261  27.644  0.00  0.00    +0.000 C 
ATOM     41  C   UNL     1      -5.440  44.433  26.885  0.00  0.00    +0.000 C 
ATOM     42  C   UNL     1      -1.988  45.239  28.448  0.00  0.00    +0.000 C 
ATOM     43  C   UNL     1      -5.843  42.205  29.923  0.00  0.00    +0.000 C 
ATOM     44  C   UNL     1      -4.366  41.163  28.087  0.00  0.00    +0.000 C 
BRANCH  41  45
ATOM     45  O   UNL     1      -5.794  44.491  25.572  0.00  0.00    +0.000 OA
ATOM     46  H   UNL     1      -6.721  44.229  25.425  0.00  0.00    +0.000 HD
ENDBRANCH  41  45
ENDBRANCH  33  36
ENDBRANCH  31  34
ENDBRANCH  30  31
ENDBRANCH  28  30
ENDBRANCH  26  29
ENDBRANCH  25  26
ENDBRANCH   1  25
TORSDOF 16
ENDMDL
MODEL 8
REMARK VINA RESULT:      -6.1     21.423     24.355
REMARK  Name = 448438_Violaxanthin.pdbqt.pdb
REMARK  16 active torsions:
REMARK  status: ('A' for Active; 'I' for Inactive)
REMARK    1  A    between atoms: C_1  and  C_5
REMARK    2  A    between atoms: C_2  and  C_27
REMARK    3  A    between atoms: C_3  and  C_5
REMARK    4  A    between atoms: C_3  and  C_7
REMARK    5  A    between atoms: C_6  and  C_10
REMARK    6  A    between atoms: C_8  and  C_10
REMARK    7  A    between atoms: C_8  and  C_12
REMARK    8  A    between atoms: C_11  and  C_14
REMARK    9  A    between atoms: C_19  and  O_23
REMARK   10  A    between atoms: C_25  and  C_27
REMARK   11  A    between atoms: C_25  and  C_29
REMARK   12  A    between atoms: C_28  and  C_32
REMARK   13  A    between atoms: C_30  and  C_32
REMARK   14  A    between atoms: C_30  and  C_34
REMARK   15  A    between atoms: C_33  and  C_36
REMARK   16  A    between atoms: C_41  and  O_45
REMARK                            x       y       z     vdW  Elec       q    Type
REMARK                         _______ _______ _______ _____ _____    ______ ____
ROOT
ATOM      1  C   UNL     1      -0.991  62.272  -3.509  0.00  0.00    +0.000 C 
ATOM      2  C   UNL     1      -1.441  63.033  -2.699  0.00  0.00    +0.000 C 
ENDROOT
BRANCH   2   3
ATOM      3  C   UNL     1      -2.017  64.003  -1.661  0.00  0.00    +0.000 C 
BRANCH   3   4
ATOM      4  C   UNL     1      -2.506  64.822  -0.783  0.00  0.00    +0.000 C 
ATOM      5  C   UNL     1      -3.848  65.449  -1.014  0.00  0.00    +0.000 C 
BRANCH   4   7
ATOM      6  C   UNL     1      -1.100  65.474   1.324  0.00  0.00    +0.000 C 
ATOM      7  C   UNL     1      -1.746  65.174   0.357  0.00  0.00    +0.000 C 
BRANCH   6   8
ATOM      8  C   UNL     1      -0.274  65.857   2.558  0.00  0.00    +0.000 C 
BRANCH   8   9
ATOM      9  C   UNL     1       0.426  66.178   3.602  0.00  0.00    +0.000 C 
ATOM     10  C   UNL     1       1.399  67.314   3.528  0.00  0.00    +0.000 C 
BRANCH   9  12
ATOM     11  C   UNL     1      -0.036  64.985   5.888  0.00  0.00    +0.000 C 
ATOM     12  C   UNL     1       0.180  65.535   4.841  0.00  0.00    +0.000 C 
BRANCH  11  14
ATOM     13  O   UNL     1       0.875  63.614   7.602  0.00  0.00    +0.000 OA
ATOM     14  C   UNL     1      -0.319  64.311   7.146  0.00  0.00    +0.000 C 
ATOM     15  C   UNL     1       0.462  64.711   8.416  0.00  0.00    +0.000 C 
ATOM     16  C   UNL     1      -1.678  63.555   7.328  0.00  0.00    +0.000 C 
ATOM     17  C   UNL     1      -0.074  64.282   9.666  0.00  0.00    +0.000 C 
ATOM     18  C   UNL     1      -1.807  63.217   8.752  0.00  0.00    +0.000 C 
ATOM     19  C   UNL     1      -1.193  63.497   9.989  0.00  0.00    +0.000 C 
ATOM     20  C   UNL     1       1.473  65.861   8.446  0.00  0.00    +0.000 C 
ATOM     21  C   UNL     1      -2.782  64.559   6.914  0.00  0.00    +0.000 C 
ATOM     22  C   UNL     1      -1.619  62.313   6.413  0.00  0.00    +0.000 C 
BRANCH  19  23
ATOM     23  O   UNL     1      -1.165  62.601  11.014  0.00  0.00    +0.000 OA
ATOM     24  H   UNL     1      -1.945  62.018  11.027  0.00  0.00    +0.000 HD
ENDBRANCH  19  23
ENDBRANCH  11  14
ENDBRANCH   9  12
ENDBRANCH   8   9
ENDBRANCH   6   8
ENDBRANCH   4   7
ENDBRANCH   3   4
ENDBRANCH   2   3
BRANCH   1  25
ATOM     25  C   UNL     1      -0.414  61.301  -4.547  0.00  0.00    +0.000 C 
BRANCH  25  26
ATOM     26  C   UNL     1       0.072  60.480  -5.424  0.00  0.00    +0.000 C 
ATOM     27  C   UNL     1      -0.853  59.654  -6.267  0.00  0.00    +0.000 C 
BRANCH  26  29
ATOM     28  C   UNL     1       2.660  60.304  -5.754  0.00  0.00    +0.000 C 
ATOM     29  C   UNL     1       1.471  60.383  -5.603  0.00  0.00    +0.000 C 
BRANCH  28  30
ATOM     30  C   UNL     1       4.179  60.210  -5.948  0.00  0.00    +0.000 C 
BRANCH  30  31
ATOM     31  C   UNL     1       5.462  60.135  -6.115  0.00  0.00    +0.000 C 
ATOM     32  C   UNL     1       6.359  61.149  -5.472  0.00  0.00    +0.000 C 
BRANCH  31  34
ATOM     33  C   UNL     1       6.483  58.161  -7.501  0.00  0.00    +0.000 C 
ATOM     34  C   UNL     1       6.017  59.068  -6.863  0.00  0.00    +0.000 C 
BRANCH  33  36
ATOM     35  O   UNL     1       6.126  55.932  -8.259  0.00  0.00    +0.000 OA
ATOM     36  C   UNL     1       7.042  57.063  -8.277  0.00  0.00    +0.000 C 
ATOM     37  C   UNL     1       6.297  56.557  -9.530  0.00  0.00    +0.000 C 
ATOM     38  C   UNL     1       8.569  56.723  -8.139  0.00  0.00    +0.000 C 
ATOM     39  C   UNL     1       7.032  55.740 -10.439  0.00  0.00    +0.000 C 
ATOM     40  C   UNL     1       8.905  55.807  -9.231  0.00  0.00    +0.000 C 
ATOM     41  C   UNL     1       8.351  55.257 -10.403  0.00  0.00    +0.000 C 
ATOM     42  C   UNL     1       5.013  57.195 -10.068  0.00  0.00    +0.000 C 
ATOM     43  C   UNL     1       8.746  56.108  -6.732  0.00  0.00    +0.000 C 
ATOM     44  C   UNL     1       9.314  58.074  -8.298  0.00  0.00    +0.000 C 
BRANCH  41  45
ATOM     45  O   UNL     1       9.101  55.077 -11.525  0.00  0.00    +0.000 OA
ATOM     46  H   UNL     1       8.892  54.241 -11.982  0.00  0.00    +0.000 HD
ENDBRANCH  41  45
ENDBRANCH  33  36
ENDBRANCH  31  34
ENDBRANCH  30  31
ENDBRANCH  28  30
ENDBRANCH  26  29
ENDBRANCH  25  26
ENDBRANCH   1  25
TORSDOF 16
ENDMDL
MODEL 9
REMARK VINA RESULT:      -6.0     28.496     34.912
REMARK  Name = 448438_Violaxanthin.pdbqt.pdb
REMARK  16 active torsions:
REMARK  status: ('A' for Active; 'I' for Inactive)
REMARK    1  A    between atoms: C_1  and  C_5
REMARK    2  A    between atoms: C_2  and  C_27
REMARK    3  A    between atoms: C_3  and  C_5
REMARK    4  A    between atoms: C_3  and  C_7
REMARK    5  A    between atoms: C_6  and  C_10
REMARK    6  A    between atoms: C_8  and  C_10
REMARK    7  A    between atoms: C_8  and  C_12
REMARK    8  A    between atoms: C_11  and  C_14
REMARK    9  A    between atoms: C_19  and  O_23
REMARK   10  A    between atoms: C_25  and  C_27
REMARK   11  A    between atoms: C_25  and  C_29
REMARK   12  A    between atoms: C_28  and  C_32
REMARK   13  A    between atoms: C_30  and  C_32
REMARK   14  A    between atoms: C_30  and  C_34
REMARK   15  A    between atoms: C_33  and  C_36
REMARK   16  A    between atoms: C_41  and  O_45
REMARK                            x       y       z     vdW  Elec       q    Type
REMARK                         _______ _______ _______ _____ _____    ______ ____
ROOT
ATOM      1  C   UNL     1     -16.341  22.142  23.921  0.00  0.00    +0.000 C 
ATOM      2  C   UNL     1     -15.959  21.491  24.854  0.00  0.00    +0.000 C 
ENDROOT
BRANCH   2   3
ATOM      3  C   UNL     1     -15.474  20.661  26.047  0.00  0.00    +0.000 C 
BRANCH   3   4
ATOM      4  C   UNL     1     -15.061  19.960  27.057  0.00  0.00    +0.000 C 
ATOM      5  C   UNL     1     -16.018  19.061  27.781  0.00  0.00    +0.000 C 
BRANCH   4   7
ATOM      6  C   UNL     1     -12.600  20.212  27.905  0.00  0.00    +0.000 C 
ATOM      7  C   UNL     1     -13.730  20.096  27.515  0.00  0.00    +0.000 C 
BRANCH   6   8
ATOM      8  C   UNL     1     -11.156  20.361  28.401  0.00  0.00    +0.000 C 
BRANCH   8   9
ATOM      9  C   UNL     1      -9.934  20.489  28.817  0.00  0.00    +0.000 C 
ATOM     10  C   UNL     1      -9.006  21.440  28.127  0.00  0.00    +0.000 C 
BRANCH   9  12
ATOM     11  C   UNL     1      -9.157  19.257  30.994  0.00  0.00    +0.000 C 
ATOM     12  C   UNL     1      -9.518  19.822  29.996  0.00  0.00    +0.000 C 
BRANCH  11  14
ATOM     13  O   UNL     1      -9.698  18.702  33.241  0.00  0.00    +0.000 OA
ATOM     14  C   UNL     1      -8.696  18.575  32.194  0.00  0.00    +0.000 C 
ATOM     15  C   UNL     1      -9.501  17.378  32.745  0.00  0.00    +0.000 C 
ATOM     16  C   UNL     1      -7.202  18.722  32.639  0.00  0.00    +0.000 C 
ATOM     17  C   UNL     1      -8.844  16.541  33.695  0.00  0.00    +0.000 C 
ATOM     18  C   UNL     1      -6.957  17.728  33.694  0.00  0.00    +0.000 C 
ATOM     19  C   UNL     1      -7.574  16.611  34.291  0.00  0.00    +0.000 C 
ATOM     20  C   UNL     1     -10.731  16.803  32.037  0.00  0.00    +0.000 C 
ATOM     21  C   UNL     1      -6.351  18.396  31.387  0.00  0.00    +0.000 C 
ATOM     22  C   UNL     1      -7.027  20.176  33.124  0.00  0.00    +0.000 C 
BRANCH  19  23
ATOM     23  O   UNL     1      -7.377  16.274  35.596  0.00  0.00    +0.000 OA
ATOM     24  H   UNL     1      -7.945  15.536  35.884  0.00  0.00    +0.000 HD
ENDBRANCH  19  23
ENDBRANCH  11  14
ENDBRANCH   9  12
ENDBRANCH   8   9
ENDBRANCH   6   8
ENDBRANCH   4   7
ENDBRANCH   3   4
ENDBRANCH   2   3
BRANCH   1  25
ATOM     25  C   UNL     1     -16.827  22.973  22.727  0.00  0.00    +0.000 C 
BRANCH  25  26
ATOM     26  C   UNL     1     -17.238  23.676  21.719  0.00  0.00    +0.000 C 
ATOM     27  C   UNL     1     -18.236  23.095  20.762  0.00  0.00    +0.000 C 
BRANCH  26  29
ATOM     28  C   UNL     1     -16.364  26.117  21.384  0.00  0.00    +0.000 C 
ATOM     29  C   UNL     1     -16.765  24.995  21.536  0.00  0.00    +0.000 C 
BRANCH  28  30
ATOM     30  C   UNL     1     -15.854  27.552  21.197  0.00  0.00    +0.000 C 
BRANCH  30  31
ATOM     31  C   UNL     1     -15.428  28.766  21.037  0.00  0.00    +0.000 C 
ATOM     32  C   UNL     1     -14.550  29.101  19.870  0.00  0.00    +0.000 C 
BRANCH  31  34
ATOM     33  C   UNL     1     -16.170  30.645  22.705  0.00  0.00    +0.000 C 
ATOM     34  C   UNL     1     -15.832  29.782  21.937  0.00  0.00    +0.000 C 
BRANCH  33  36
ATOM     35  O   UNL     1     -18.004  31.929  23.516  0.00  0.00    +0.000 OA
ATOM     36  C   UNL     1     -16.572  31.690  23.635  0.00  0.00    +0.000 C 
ATOM     37  C   UNL     1     -17.581  31.366  24.756  0.00  0.00    +0.000 C 
ATOM     38  C   UNL     1     -15.667  32.962  23.801  0.00  0.00    +0.000 C 
ATOM     39  C   UNL     1     -17.679  32.297  25.833  0.00  0.00    +0.000 C 
ATOM     40  C   UNL     1     -16.142  33.675  24.989  0.00  0.00    +0.000 C 
ATOM     41  C   UNL     1     -17.032  33.522  26.069  0.00  0.00    +0.000 C 
ATOM     42  C   UNL     1     -18.146  29.966  25.010  0.00  0.00    +0.000 C 
ATOM     43  C   UNL     1     -15.814  33.767  22.490  0.00  0.00    +0.000 C 
ATOM     44  C   UNL     1     -14.228  32.425  24.013  0.00  0.00    +0.000 C 
BRANCH  41  45
ATOM     45  O   UNL     1     -16.711  33.957  27.319  0.00  0.00    +0.000 OA
ATOM     46  H   UNL     1     -16.729  34.929  27.390  0.00  0.00    +0.000 HD
ENDBRANCH  41  45
ENDBRANCH  33  36
ENDBRANCH  31  34
ENDBRANCH  30  31
ENDBRANCH  28  30
ENDBRANCH  26  29
ENDBRANCH  25  26
ENDBRANCH   1  25
TORSDOF 16
ENDMDL
