REMARK  Name = 448438_Violaxanthin.pdbqt.pdb
REMARK  16 active torsions:
REMARK  status: ('A' for Active; 'I' for Inactive)
REMARK    1  A    between atoms: C_1  and  C_5
REMARK    2  A    between atoms: C_2  and  C_27
REMARK    3  A    between atoms: C_3  and  C_5
REMARK    4  A    between atoms: C_3  and  C_7
REMARK    5  A    between atoms: C_6  and  C_10
REMARK    6  A    between atoms: C_8  and  C_10
REMARK    7  A    between atoms: C_8  and  C_12
REMARK    8  A    between atoms: C_11  and  C_14
REMARK    9  A    between atoms: C_19  and  O_23
REMARK   10  A    between atoms: C_25  and  C_27
REMARK   11  A    between atoms: C_25  and  C_29
REMARK   12  A    between atoms: C_28  and  C_32
REMARK   13  A    between atoms: C_30  and  C_32
REMARK   14  A    between atoms: C_30  and  C_34
REMARK   15  A    between atoms: C_33  and  C_36
REMARK   16  A    between atoms: C_41  and  O_45
REMARK                            x       y       z     vdW  Elec       q    Type
REMARK                         _______ _______ _______ _____ _____    ______ ____
ROOT
ATOM      1  C   UNL     1       0.220   0.174  -0.151  0.00  0.00    +0.000 C 
ATOM      2  C   UNL     1      -0.664   0.985  -0.140  0.00  0.00    +0.000 C 
ENDROOT
BRANCH   2   3
ATOM      3  C   UNL     1      -1.792   2.023  -0.124  0.00  0.00    +0.000 C 
BRANCH   3   4
ATOM      4  C   UNL     1      -2.746   2.900  -0.108  0.00  0.00    +0.000 C 
ATOM      5  C   UNL     1      -2.542   4.211   0.590  0.00  0.00    +0.000 C 
BRANCH   4   7
ATOM      6  C   UNL     1      -5.063   2.332  -1.181  0.00  0.00    +0.000 C 
ATOM      7  C   UNL     1      -3.999   2.593  -0.688  0.00  0.00    +0.000 C 
BRANCH   6   8
ATOM      8  C   UNL     1      -6.421   2.000  -1.812  0.00  0.00    +0.000 C 
BRANCH   8   9
ATOM      9  C   UNL     1      -7.570   1.717  -2.343  0.00  0.00    +0.000 C 
ATOM     10  C   UNL     1      -7.819   2.018  -3.789  0.00  0.00    +0.000 C 
BRANCH   9  12
ATOM     11  C   UNL     1      -9.361   0.419  -0.940  0.00  0.00    +0.000 C 
ATOM     12  C   UNL     1      -8.541   1.013  -1.588  0.00  0.00    +0.000 C 
BRANCH  11  14
ATOM     13  O   UNL     1      -9.871  -0.382   1.239  0.00  0.00    +0.000 OA
ATOM     14  C   UNL     1     -10.342  -0.293  -0.135  0.00  0.00    +0.000 C 
ATOM     15  C   UNL     1     -11.028   0.430   1.044  0.00  0.00    +0.000 C 
ATOM     16  C   UNL     1     -11.037  -1.570  -0.717  0.00  0.00    +0.000 C 
ATOM     17  C   UNL     1     -12.205  -0.175   1.576  0.00  0.00    +0.000 C 
ATOM     18  C   UNL     1     -12.153  -1.910   0.177  0.00  0.00    +0.000 C 
ATOM     19  C   UNL     1     -12.873  -1.370   1.261  0.00  0.00    +0.000 C 
ATOM     20  C   UNL     1     -10.795   1.909   1.365  0.00  0.00    +0.000 C 
ATOM     21  C   UNL     1     -11.572  -1.165  -2.112  0.00  0.00    +0.000 C 
ATOM     22  C   UNL     1      -9.956  -2.670  -0.782  0.00  0.00    +0.000 C 
BRANCH  19  23
ATOM     23  O   UNL     1     -13.441  -2.146   2.225  0.00  0.00    +0.000 OA
ATOM     24  H   UNL     1     -13.670  -3.037   1.905  0.00  0.00    +0.000 HD
ENDBRANCH  19  23
ENDBRANCH  11  14
ENDBRANCH   9  12
ENDBRANCH   8   9
ENDBRANCH   6   8
ENDBRANCH   4   7
ENDBRANCH   3   4
ENDBRANCH   2   3
BRANCH   1  25
ATOM     25  C   UNL     1       1.349  -0.864  -0.166  0.00  0.00    +0.000 C 
BRANCH  25  26
ATOM     26  C   UNL     1       2.303  -1.741  -0.179  0.00  0.00    +0.000 C 
ATOM     27  C   UNL     1       2.113  -3.039  -0.905  0.00  0.00    +0.000 C 
BRANCH  26  29
ATOM     28  C   UNL     1       4.570  -1.230   1.020  0.00  0.00    +0.000 C 
ATOM     29  C   UNL     1       3.529  -1.463   0.468  0.00  0.00    +0.000 C 
BRANCH  28  30
ATOM     30  C   UNL     1       5.898  -0.937   1.730  0.00  0.00    +0.000 C 
BRANCH  30  31
ATOM     31  C   UNL     1       7.020  -0.694   2.332  0.00  0.00    +0.000 C 
ATOM     32  C   UNL     1       7.077  -0.683   3.829  0.00  0.00    +0.000 C 
BRANCH  31  34
ATOM     33  C   UNL     1       9.201  -0.317   0.930  0.00  0.00    +0.000 C 
ATOM     34  C   UNL     1       8.199  -0.487   1.574  0.00  0.00    +0.000 C 
BRANCH  33  36
ATOM     35  O   UNL     1      10.501   1.274  -0.274  0.00  0.00    +0.000 OA
ATOM     36  C   UNL     1      10.412  -0.117   0.148  0.00  0.00    +0.000 C 
ATOM     37  C   UNL     1      11.497   0.855   0.657  0.00  0.00    +0.000 C 
ATOM     38  C   UNL     1      10.827  -1.194  -0.917  0.00  0.00    +0.000 C 
ATOM     39  C   UNL     1      12.789   0.760   0.059  0.00  0.00    +0.000 C 
ATOM     40  C   UNL     1      12.203  -0.893  -1.318  0.00  0.00    +0.000 C 
ATOM     41  C   UNL     1      13.283  -0.059  -0.970  0.00  0.00    +0.000 C 
ATOM     42  C   UNL     1      11.417   1.587   1.999  0.00  0.00    +0.000 C 
ATOM     43  C   UNL     1       9.802  -1.076  -2.068  0.00  0.00    +0.000 C 
ATOM     44  C   UNL     1      10.747  -2.558  -0.184  0.00  0.00    +0.000 C 
BRANCH  41  45
ATOM     45  O   UNL     1      14.567  -0.512  -1.000  0.00  0.00    +0.000 OA
ATOM     46  H   UNL     1      15.180   0.076  -0.522  0.00  0.00    +0.000 HD
ENDBRANCH  41  45
ENDBRANCH  33  36
ENDBRANCH  31  34
ENDBRANCH  30  31
ENDBRANCH  28  30
ENDBRANCH  26  29
ENDBRANCH  25  26
ENDBRANCH   1  25
TORSDOF 16
