MODEL 1
REMARK VINA RESULT:      -9.1      0.000      0.000
REMARK  Name = 490561_Nocardiopsis.pdbqt.pdb
REMARK  3 active torsions:
REMARK  status: ('A' for Active; 'I' for Inactive)
REMARK    1  A    between atoms: C_7  and  O_32
REMARK    2  A    between atoms: C_7  and  C_35
REMARK    3  A    between atoms: C_35  and  O_36
REMARK                            x       y       z     vdW  Elec       q    Type
REMARK                         _______ _______ _______ _____ _____    ______ ____
ROOT
ATOM      1  O   UNL     1       8.436  33.845  17.815  0.00  0.00    +0.000 OA
ATOM      2  O   UNL     1       5.164  27.849  14.642  0.00  0.00    +0.000 OA
ATOM      3  N   UNL     1       9.798  32.326  16.620  0.00  0.00    +0.000 N 
ATOM      4  N   UNL     1       6.856  32.877  16.398  0.00  0.00    +0.000 N 
ATOM      5  N   UNL     1       7.393  27.200  14.707  0.00  0.00    +0.000 N 
ATOM      6  C   UNL     1       9.708  33.725  17.087  0.00  0.00    +0.000 C 
ATOM      7  C   UNL     1       9.576  34.776  15.902  0.00  0.00    +0.000 C 
ATOM      8  C   UNL     1       7.478  34.045  16.805  0.00  0.00    +0.000 C 
ATOM      9  C   UNL     1       8.119  34.809  15.801  0.00  0.00    +0.000 C 
ATOM     10  C   UNL     1       8.817  31.425  16.290  0.00  0.00    +0.000 A 
ATOM     11  C   UNL     1       7.446  31.667  16.199  0.00  0.00    +0.000 A 
ATOM     12  C   UNL     1       9.182  30.129  15.912  0.00  0.00    +0.000 A 
ATOM     13  C   UNL     1       6.673  30.591  15.747  0.00  0.00    +0.000 A 
ATOM     14  C   UNL     1      10.816  34.068  18.138  0.00  0.00    +0.000 C 
ATOM     15  C   UNL     1      10.945  31.540  16.349  0.00  0.00    +0.000 A 
ATOM     16  C   UNL     1       5.542  32.588  15.984  0.00  0.00    +0.000 A 
ATOM     17  C   UNL     1      10.586  30.198  15.950  0.00  0.00    +0.000 A 
ATOM     18  C   UNL     1       8.426  29.032  15.480  0.00  0.00    +0.000 A 
ATOM     19  C   UNL     1       7.023  29.275  15.382  0.00  0.00    +0.000 A 
ATOM     20  C   UNL     1       5.405  31.198  15.610  0.00  0.00    +0.000 A 
ATOM     21  C   UNL     1       8.633  27.636  15.018  0.00  0.00    +0.000 C 
ATOM     22  C   UNL     1      12.299  31.910  16.416  0.00  0.00    +0.000 A 
ATOM     23  C   UNL     1       6.335  28.104  14.884  0.00  0.00    +0.000 C 
ATOM     24  C   UNL     1       4.446  33.461  15.924  0.00  0.00    +0.000 A 
ATOM     25  C   UNL     1      11.619  29.285  15.653  0.00  0.00    +0.000 A 
ATOM     26  C   UNL     1       4.139  30.755  15.177  0.00  0.00    +0.000 A 
ATOM     27  C   UNL     1      13.284  30.971  16.114  0.00  0.00    +0.000 A 
ATOM     28  C   UNL     1      12.954  29.677  15.745  0.00  0.00    +0.000 A 
ATOM     29  C   UNL     1       3.215  32.966  15.494  0.00  0.00    +0.000 A 
ATOM     30  C   UNL     1       3.061  31.637  15.127  0.00  0.00    +0.000 A 
ATOM     31  H   UNL     1       7.215  26.270  14.359  0.00  0.00    +0.000 HD
ENDROOT
BRANCH   7  32
ATOM     32  O   UNL     1      10.119  34.341  14.647  0.00  0.00    +0.000 OA
ATOM     33  H   UNL     1      10.291  35.145  14.109  0.00  0.00    +0.000 HD
ENDBRANCH   7  32
BRANCH   7  35
ATOM     34  O   UNL     1       9.502  36.904  17.009  0.00  0.00    +0.000 OA
ATOM     35  C   UNL     1      10.144  36.140  16.286  0.00  0.00    +0.000 C 
BRANCH  35  36
ATOM     36  O   UNL     1      11.402  36.324  15.782  0.00  0.00    +0.000 OA
ATOM     37  C   UNL     1      11.628  37.463  14.996  0.00  0.00    +0.000 C 
ENDBRANCH  35  36
ENDBRANCH   7  35
TORSDOF 3
ENDMDL
MODEL 2
REMARK VINA RESULT:      -8.9      1.374      5.252
REMARK  Name = 490561_Nocardiopsis.pdbqt.pdb
REMARK  3 active torsions:
REMARK  status: ('A' for Active; 'I' for Inactive)
REMARK    1  A    between atoms: C_7  and  O_32
REMARK    2  A    between atoms: C_7  and  C_35
REMARK    3  A    between atoms: C_35  and  O_36
REMARK                            x       y       z     vdW  Elec       q    Type
REMARK                         _______ _______ _______ _____ _____    ______ ____
ROOT
ATOM      1  O   UNL     1       9.546  34.137  15.604  0.00  0.00    +0.000 OA
ATOM      2  O   UNL     1      10.007  26.662  14.798  0.00  0.00    +0.000 OA
ATOM      3  N   UNL     1       7.618  32.841  16.043  0.00  0.00    +0.000 N 
ATOM      4  N   UNL     1      10.519  32.074  16.094  0.00  0.00    +0.000 N 
ATOM      5  N   UNL     1       7.712  27.011  14.731  0.00  0.00    +0.000 N 
ATOM      6  C   UNL     1       8.274  34.130  16.342  0.00  0.00    +0.000 C 
ATOM      7  C   UNL     1       8.710  34.275  17.864  0.00  0.00    +0.000 C 
ATOM      8  C   UNL     1      10.427  33.414  16.427  0.00  0.00    +0.000 C 
ATOM      9  C   UNL     1      10.055  33.716  17.760  0.00  0.00    +0.000 C 
ATOM     10  C   UNL     1       8.148  31.615  15.728  0.00  0.00    +0.000 A 
ATOM     11  C   UNL     1       9.495  31.253  15.733  0.00  0.00    +0.000 A 
ATOM     12  C   UNL     1       7.285  30.552  15.444  0.00  0.00    +0.000 A 
ATOM     13  C   UNL     1       9.758  29.905  15.463  0.00  0.00    +0.000 A 
ATOM     14  C   UNL     1       7.467  35.347  15.780  0.00  0.00    +0.000 C 
ATOM     15  C   UNL     1       6.239  32.512  16.038  0.00  0.00    +0.000 A 
ATOM     16  C   UNL     1      11.585  31.155  16.113  0.00  0.00    +0.000 A 
ATOM     17  C   UNL     1       6.022  31.138  15.646  0.00  0.00    +0.000 A 
ATOM     18  C   UNL     1       7.526  29.204  15.148  0.00  0.00    +0.000 A 
ATOM     19  C   UNL     1       8.902  28.828  15.156  0.00  0.00    +0.000 A 
ATOM     20  C   UNL     1      11.148  29.838  15.706  0.00  0.00    +0.000 A 
ATOM     21  C   UNL     1       6.763  27.962  14.863  0.00  0.00    +0.000 C 
ATOM     22  C   UNL     1       5.142  33.328  16.361  0.00  0.00    +0.000 A 
ATOM     23  C   UNL     1       9.046  27.413  14.888  0.00  0.00    +0.000 C 
ATOM     24  C   UNL     1      12.925  31.397  16.451  0.00  0.00    +0.000 A 
ATOM     25  C   UNL     1       4.699  30.658  15.582  0.00  0.00    +0.000 A 
ATOM     26  C   UNL     1      12.109  28.808  15.671  0.00  0.00    +0.000 A 
ATOM     27  C   UNL     1       3.851  32.807  16.281  0.00  0.00    +0.000 A 
ATOM     28  C   UNL     1       3.628  31.495  15.893  0.00  0.00    +0.000 A 
ATOM     29  C   UNL     1      13.834  30.341  16.391  0.00  0.00    +0.000 A 
ATOM     30  C   UNL     1      13.436  29.068  16.008  0.00  0.00    +0.000 A 
ATOM     31  H   UNL     1       7.491  26.047  14.530  0.00  0.00    +0.000 HD
ENDROOT
BRANCH   7  32
ATOM     32  O   UNL     1       7.948  33.484  18.788  0.00  0.00    +0.000 OA
ATOM     33  H   UNL     1       7.539  34.103  19.433  0.00  0.00    +0.000 HD
ENDBRANCH   7  32
BRANCH   7  35
ATOM     34  O   UNL     1       7.770  36.235  18.881  0.00  0.00    +0.000 OA
ATOM     35  C   UNL     1       8.741  35.736  18.309  0.00  0.00    +0.000 C 
BRANCH  35  36
ATOM     36  O   UNL     1       9.947  36.321  18.040  0.00  0.00    +0.000 OA
ATOM     37  C   UNL     1       9.938  37.552  17.369  0.00  0.00    +0.000 C 
ENDBRANCH  35  36
ENDBRANCH   7  35
TORSDOF 3
ENDMDL
MODEL 3
REMARK VINA RESULT:      -8.8     13.300     17.285
REMARK  Name = 490561_Nocardiopsis.pdbqt.pdb
REMARK  3 active torsions:
REMARK  status: ('A' for Active; 'I' for Inactive)
REMARK    1  A    between atoms: C_7  and  O_32
REMARK    2  A    between atoms: C_7  and  C_35
REMARK    3  A    between atoms: C_35  and  O_36
REMARK                            x       y       z     vdW  Elec       q    Type
REMARK                         _______ _______ _______ _____ _____    ______ ____
ROOT
ATOM      1  O   UNL     1      -3.535  42.728  14.123  0.00  0.00    +0.000 OA
ATOM      2  O   UNL     1     -10.774  40.649  14.099  0.00  0.00    +0.000 OA
ATOM      3  N   UNL     1      -4.457  41.855  16.118  0.00  0.00    +0.000 N 
ATOM      4  N   UNL     1      -5.312  41.484  13.264  0.00  0.00    +0.000 N 
ATOM      5  N   UNL     1     -10.346  40.871  16.371  0.00  0.00    +0.000 N 
ATOM      6  C   UNL     1      -3.190  42.057  15.386  0.00  0.00    +0.000 C 
ATOM      7  C   UNL     1      -2.507  40.697  14.926  0.00  0.00    +0.000 C 
ATOM      8  C   UNL     1      -3.942  41.682  13.276  0.00  0.00    +0.000 C 
ATOM      9  C   UNL     1      -3.140  40.566  13.617  0.00  0.00    +0.000 C 
ATOM     10  C   UNL     1      -5.739  41.679  15.662  0.00  0.00    +0.000 A 
ATOM     11  C   UNL     1      -6.149  41.521  14.338  0.00  0.00    +0.000 A 
ATOM     12  C   UNL     1      -6.780  41.551  16.587  0.00  0.00    +0.000 A 
ATOM     13  C   UNL     1      -7.511  41.260  14.155  0.00  0.00    +0.000 A 
ATOM     14  C   UNL     1      -2.231  43.046  16.128  0.00  0.00    +0.000 C 
ATOM     15  C   UNL     1      -4.684  41.753  17.513  0.00  0.00    +0.000 A 
ATOM     16  C   UNL     1      -6.214  41.107  12.253  0.00  0.00    +0.000 A 
ATOM     17  C   UNL     1      -6.090  41.600  17.812  0.00  0.00    +0.000 A 
ATOM     18  C   UNL     1      -8.151  41.314  16.427  0.00  0.00    +0.000 A 
ATOM     19  C   UNL     1      -8.574  41.148  15.074  0.00  0.00    +0.000 A 
ATOM     20  C   UNL     1      -7.561  40.992  12.769  0.00  0.00    +0.000 A 
ATOM     21  C   UNL     1      -9.364  41.119  17.262  0.00  0.00    +0.000 C 
ATOM     22  C   UNL     1      -3.746  41.775  18.558  0.00  0.00    +0.000 A 
ATOM     23  C   UNL     1      -9.991  40.861  15.014  0.00  0.00    +0.000 C 
ATOM     24  C   UNL     1      -5.940  40.869  10.898  0.00  0.00    +0.000 A 
ATOM     25  C   UNL     1      -6.483  41.494  19.161  0.00  0.00    +0.000 A 
ATOM     26  C   UNL     1      -8.581  40.625  11.869  0.00  0.00    +0.000 A 
ATOM     27  C   UNL     1      -4.185  41.668  19.878  0.00  0.00    +0.000 A 
ATOM     28  C   UNL     1      -5.531  41.536  20.179  0.00  0.00    +0.000 A 
ATOM     29  C   UNL     1      -6.991  40.515  10.052  0.00  0.00    +0.000 A 
ATOM     30  C   UNL     1      -8.289  40.395  10.525  0.00  0.00    +0.000 A 
ATOM     31  H   UNL     1     -11.301  40.696  16.648  0.00  0.00    +0.000 HD
ENDROOT
BRANCH   7  32
ATOM     32  O   UNL     1      -2.846  39.552  15.723  0.00  0.00    +0.000 OA
ATOM     33  H   UNL     1      -2.702  38.756  15.166  0.00  0.00    +0.000 HD
ENDBRANCH   7  32
BRANCH   7  35
ATOM     34  O   UNL     1      -0.493  41.502  13.898  0.00  0.00    +0.000 OA
ATOM     35  C   UNL     1      -0.990  40.835  14.807  0.00  0.00    +0.000 C 
BRANCH  35  36
ATOM     36  O   UNL     1      -0.343  40.195  15.827  0.00  0.00    +0.000 OA
ATOM     37  C   UNL     1       0.865  40.744  16.278  0.00  0.00    +0.000 C 
ENDBRANCH  35  36
ENDBRANCH   7  35
TORSDOF 3
ENDMDL
MODEL 4
REMARK VINA RESULT:      -8.1     18.807     22.312
REMARK  Name = 490561_Nocardiopsis.pdbqt.pdb
REMARK  3 active torsions:
REMARK  status: ('A' for Active; 'I' for Inactive)
REMARK    1  A    between atoms: C_7  and  O_32
REMARK    2  A    between atoms: C_7  and  C_35
REMARK    3  A    between atoms: C_35  and  O_36
REMARK                            x       y       z     vdW  Elec       q    Type
REMARK                         _______ _______ _______ _____ _____    ______ ____
ROOT
ATOM      1  O   UNL     1     -10.131  39.068  10.167  0.00  0.00    +0.000 OA
ATOM      2  O   UNL     1      -7.650  42.226  16.539  0.00  0.00    +0.000 OA
ATOM      3  N   UNL     1     -11.712  39.608  11.841  0.00  0.00    +0.000 N 
ATOM      4  N   UNL     1      -8.981  40.740  11.319  0.00  0.00    +0.000 N 
ATOM      5  N   UNL     1      -9.739  41.436  17.177  0.00  0.00    +0.000 N 
ATOM      6  C   UNL     1     -11.552  39.376  10.390  0.00  0.00    +0.000 C 
ATOM      7  C   UNL     1     -11.808  40.677   9.514  0.00  0.00    +0.000 C 
ATOM      8  C   UNL     1      -9.510  40.328  10.108  0.00  0.00    +0.000 C 
ATOM      9  C   UNL     1     -10.443  41.197   9.492  0.00  0.00    +0.000 C 
ATOM     10  C   UNL     1     -10.829  40.084  12.777  0.00  0.00    +0.000 A 
ATOM     11  C   UNL     1      -9.552  40.598  12.547  0.00  0.00    +0.000 A 
ATOM     12  C   UNL     1     -11.231  40.165  14.113  0.00  0.00    +0.000 A 
ATOM     13  C   UNL     1      -8.896  41.106  13.673  0.00  0.00    +0.000 A 
ATOM     14  C   UNL     1     -12.327  38.106   9.907  0.00  0.00    +0.000 C 
ATOM     15  C   UNL     1     -12.855  39.429  12.660  0.00  0.00    +0.000 A 
ATOM     16  C   UNL     1      -7.830  41.473  11.660  0.00  0.00    +0.000 A 
ATOM     17  C   UNL     1     -12.568  39.734  14.043  0.00  0.00    +0.000 A 
ATOM     18  C   UNL     1     -10.584  40.648  15.258  0.00  0.00    +0.000 A 
ATOM     19  C   UNL     1      -9.279  41.178  15.027  0.00  0.00    +0.000 A 
ATOM     20  C   UNL     1      -7.745  41.682  13.088  0.00  0.00    +0.000 A 
ATOM     21  C   UNL     1     -10.855  40.841  16.706  0.00  0.00    +0.000 C 
ATOM     22  C   UNL     1     -14.147  39.025  12.286  0.00  0.00    +0.000 A 
ATOM     23  C   UNL     1      -8.713  41.693  16.255  0.00  0.00    +0.000 C 
ATOM     24  C   UNL     1      -6.834  41.961  10.800  0.00  0.00    +0.000 A 
ATOM     25  C   UNL     1     -13.603  39.596  14.990  0.00  0.00    +0.000 A 
ATOM     26  C   UNL     1      -6.639  42.400  13.584  0.00  0.00    +0.000 A 
ATOM     27  C   UNL     1     -15.137  38.902  13.261  0.00  0.00    +0.000 A 
ATOM     28  C   UNL     1     -14.872  39.177  14.593  0.00  0.00    +0.000 A 
ATOM     29  C   UNL     1      -5.757  42.658  11.348  0.00  0.00    +0.000 A 
ATOM     30  C   UNL     1      -5.658  42.875  12.714  0.00  0.00    +0.000 A 
ATOM     31  H   UNL     1      -9.628  41.695  18.146  0.00  0.00    +0.000 HD
ENDROOT
BRANCH   7  32
ATOM     32  O   UNL     1     -12.667  41.653  10.121  0.00  0.00    +0.000 OA
ATOM     33  H   UNL     1     -12.643  42.455   9.554  0.00  0.00    +0.000 HD
ENDBRANCH   7  32
BRANCH   7  35
ATOM     34  O   UNL     1     -11.587  39.685   7.339  0.00  0.00    +0.000 OA
ATOM     35  C   UNL     1     -12.300  40.330   8.111  0.00  0.00    +0.000 C 
BRANCH  35  36
ATOM     36  O   UNL     1     -13.578  40.768   7.900  0.00  0.00    +0.000 OA
ATOM     37  C   UNL     1     -14.454  39.917   7.212  0.00  0.00    +0.000 C 
ENDBRANCH  35  36
ENDBRANCH   7  35
TORSDOF 3
ENDMDL
MODEL 5
REMARK VINA RESULT:      -7.9     24.192     27.973
REMARK  Name = 490561_Nocardiopsis.pdbqt.pdb
REMARK  3 active torsions:
REMARK  status: ('A' for Active; 'I' for Inactive)
REMARK    1  A    between atoms: C_7  and  O_32
REMARK    2  A    between atoms: C_7  and  C_35
REMARK    3  A    between atoms: C_35  and  O_36
REMARK                            x       y       z     vdW  Elec       q    Type
REMARK                         _______ _______ _______ _____ _____    ______ ____
ROOT
ATOM      1  O   UNL     1      -0.365  57.821  19.094  0.00  0.00    +0.000 OA
ATOM      2  O   UNL     1       7.133  58.539  19.135  0.00  0.00    +0.000 OA
ATOM      3  N   UNL     1       0.644  59.152  17.419  0.00  0.00    +0.000 N 
ATOM      4  N   UNL     1       1.785  56.917  19.066  0.00  0.00    +0.000 N 
ATOM      5  N   UNL     1       6.486  60.343  17.824  0.00  0.00    +0.000 N 
ATOM      6  C   UNL     1      -0.560  58.355  17.737  0.00  0.00    +0.000 C 
ATOM      7  C   UNL     1      -0.711  57.058  16.831  0.00  0.00    +0.000 C 
ATOM      8  C   UNL     1       0.431  56.678  18.905  0.00  0.00    +0.000 C 
ATOM      9  C   UNL     1       0.026  56.117  17.669  0.00  0.00    +0.000 C 
ATOM     10  C   UNL     1       1.941  59.029  17.848  0.00  0.00    +0.000 A 
ATOM     11  C   UNL     1       2.479  58.003  18.626  0.00  0.00    +0.000 A 
ATOM     12  C   UNL     1       2.892  59.959  17.418  0.00  0.00    +0.000 A 
ATOM     13  C   UNL     1       3.860  58.070  18.841  0.00  0.00    +0.000 A 
ATOM     14  C   UNL     1      -1.847  59.240  17.825  0.00  0.00    +0.000 C 
ATOM     15  C   UNL     1       0.786  60.256  16.542  0.00  0.00    +0.000 A 
ATOM     16  C   UNL     1       2.836  56.145  19.596  0.00  0.00    +0.000 A 
ATOM     17  C   UNL     1       2.135  60.774  16.556  0.00  0.00    +0.000 A 
ATOM     18  C   UNL     1       4.271  60.060  17.640  0.00  0.00    +0.000 A 
ATOM     19  C   UNL     1       4.826  59.011  18.432  0.00  0.00    +0.000 A 
ATOM     20  C   UNL     1       4.100  56.840  19.493  0.00  0.00    +0.000 A 
ATOM     21  C   UNL     1       5.413  60.928  17.252  0.00  0.00    +0.000 C 
ATOM     22  C   UNL     1      -0.182  60.848  15.713  0.00  0.00    +0.000 A 
ATOM     23  C   UNL     1       6.258  59.173  18.565  0.00  0.00    +0.000 C 
ATOM     24  C   UNL     1       2.759  54.872  20.180  0.00  0.00    +0.000 A 
ATOM     25  C   UNL     1       2.438  61.882  15.740  0.00  0.00    +0.000 A 
ATOM     26  C   UNL     1       5.249  56.192  19.989  0.00  0.00    +0.000 A 
ATOM     27  C   UNL     1       0.167  61.944  14.924  0.00  0.00    +0.000 A 
ATOM     28  C   UNL     1       1.453  62.460  14.940  0.00  0.00    +0.000 A 
ATOM     29  C   UNL     1       3.928  54.282  20.660  0.00  0.00    +0.000 A 
ATOM     30  C   UNL     1       5.153  54.927  20.568  0.00  0.00    +0.000 A 
ATOM     31  H   UNL     1       7.420  60.714  17.734  0.00  0.00    +0.000 HD
ENDROOT
BRANCH   7  32
ATOM     32  O   UNL     1      -0.070  57.139  15.549  0.00  0.00    +0.000 OA
ATOM     33  H   UNL     1       0.817  56.726  15.640  0.00  0.00    +0.000 HD
ENDBRANCH   7  32
BRANCH   7  35
ATOM     34  O   UNL     1      -2.760  56.060  17.584  0.00  0.00    +0.000 OA
ATOM     35  C   UNL     1      -2.173  56.645  16.671  0.00  0.00    +0.000 C 
BRANCH  35  36
ATOM     36  O   UNL     1      -2.685  57.051  15.471  0.00  0.00    +0.000 OA
ATOM     37  C   UNL     1      -3.889  56.471  15.046  0.00  0.00    +0.000 C 
ENDBRANCH  35  36
ENDBRANCH   7  35
TORSDOF 3
ENDMDL
MODEL 6
REMARK VINA RESULT:      -7.8     33.400     36.169
REMARK  Name = 490561_Nocardiopsis.pdbqt.pdb
REMARK  3 active torsions:
REMARK  status: ('A' for Active; 'I' for Inactive)
REMARK    1  A    between atoms: C_7  and  O_32
REMARK    2  A    between atoms: C_7  and  C_35
REMARK    3  A    between atoms: C_35  and  O_36
REMARK                            x       y       z     vdW  Elec       q    Type
REMARK                         _______ _______ _______ _____ _____    ______ ____
ROOT
ATOM      1  O   UNL     1       6.354  61.952  -7.235  0.00  0.00    +0.000 OA
ATOM      2  O   UNL     1       4.672  54.617  -7.549  0.00  0.00    +0.000 OA
ATOM      3  N   UNL     1       4.290  61.235  -6.333  0.00  0.00    +0.000 N 
ATOM      4  N   UNL     1       6.836  59.713  -6.790  0.00  0.00    +0.000 N 
ATOM      5  N   UNL     1       2.585  55.573  -7.194  0.00  0.00    +0.000 N 
ATOM      6  C   UNL     1       5.307  62.305  -6.265  0.00  0.00    +0.000 C 
ATOM      7  C   UNL     1       6.072  62.357  -4.873  0.00  0.00    +0.000 C 
ATOM      8  C   UNL     1       7.168  61.035  -6.547  0.00  0.00    +0.000 C 
ATOM      9  C   UNL     1       7.172  61.453  -5.194  0.00  0.00    +0.000 C 
ATOM     10  C   UNL     1       4.404  59.906  -6.652  0.00  0.00    +0.000 A 
ATOM     11  C   UNL     1       5.581  59.193  -6.881  0.00  0.00    +0.000 A 
ATOM     12  C   UNL     1       3.255  59.111  -6.681  0.00  0.00    +0.000 A 
ATOM     13  C   UNL     1       5.422  57.819  -7.096  0.00  0.00    +0.000 A 
ATOM     14  C   UNL     1       4.746  63.683  -6.750  0.00  0.00    +0.000 C 
ATOM     15  C   UNL     1       2.903  61.293  -6.045  0.00  0.00    +0.000 A 
ATOM     16  C   UNL     1       7.605  58.541  -6.909  0.00  0.00    +0.000 A 
ATOM     17  C   UNL     1       2.259  60.021  -6.282  0.00  0.00    +0.000 A 
ATOM     18  C   UNL     1       3.069  57.742  -6.916  0.00  0.00    +0.000 A 
ATOM     19  C   UNL     1       4.270  57.008  -7.147  0.00  0.00    +0.000 A 
ATOM     20  C   UNL     1       6.765  57.383  -7.123  0.00  0.00    +0.000 A 
ATOM     21  C   UNL     1       1.966  56.747  -6.953  0.00  0.00    +0.000 C 
ATOM     22  C   UNL     1       2.149  62.382  -5.577  0.00  0.00    +0.000 A 
ATOM     23  C   UNL     1       3.981  55.602  -7.331  0.00  0.00    +0.000 C 
ATOM     24  C   UNL     1       9.001  58.418  -6.858  0.00  0.00    +0.000 A 
ATOM     25  C   UNL     1       0.873  59.915  -6.051  0.00  0.00    +0.000 A 
ATOM     26  C   UNL     1       7.395  56.131  -7.266  0.00  0.00    +0.000 A 
ATOM     27  C   UNL     1       0.779  62.228  -5.364  0.00  0.00    +0.000 A 
ATOM     28  C   UNL     1       0.147  61.018  -5.602  0.00  0.00    +0.000 A 
ATOM     29  C   UNL     1       9.570  57.154  -7.014  0.00  0.00    +0.000 A 
ATOM     30  C   UNL     1       8.784  56.029  -7.215  0.00  0.00    +0.000 A 
ATOM     31  H   UNL     1       2.084  54.700  -7.275  0.00  0.00    +0.000 HD
ENDROOT
BRANCH   7  32
ATOM     32  O   UNL     1       5.339  61.822  -3.761  0.00  0.00    +0.000 OA
ATOM     33  H   UNL     1       4.425  61.643  -4.074  0.00  0.00    +0.000 HD
ENDBRANCH   7  32
BRANCH   7  35
ATOM     34  O   UNL     1       7.588  64.205  -5.100  0.00  0.00    +0.000 OA
ATOM     35  C   UNL     1       6.575  63.764  -4.554  0.00  0.00    +0.000 C 
BRANCH  35  36
ATOM     36  O   UNL     1       5.747  64.410  -3.679  0.00  0.00    +0.000 OA
ATOM     37  C   UNL     1       5.639  65.803  -3.793  0.00  0.00    +0.000 C 
ENDBRANCH  35  36
ENDBRANCH   7  35
TORSDOF 3
ENDMDL
MODEL 7
REMARK VINA RESULT:      -7.6     30.521     33.030
REMARK  Name = 490561_Nocardiopsis.pdbqt.pdb
REMARK  3 active torsions:
REMARK  status: ('A' for Active; 'I' for Inactive)
REMARK    1  A    between atoms: C_7  and  O_32
REMARK    2  A    between atoms: C_7  and  C_35
REMARK    3  A    between atoms: C_35  and  O_36
REMARK                            x       y       z     vdW  Elec       q    Type
REMARK                         _______ _______ _______ _____ _____    ______ ____
ROOT
ATOM      1  O   UNL     1      -1.222  64.692  13.894  0.00  0.00    +0.000 OA
ATOM      2  O   UNL     1       0.127  63.569   6.569  0.00  0.00    +0.000 OA
ATOM      3  N   UNL     1      -1.738  62.578  12.970  0.00  0.00    +0.000 N 
ATOM      4  N   UNL     1       0.204  64.672  12.048  0.00  0.00    +0.000 N 
ATOM      5  N   UNL     1      -1.371  61.860   7.049  0.00  0.00    +0.000 N 
ATOM      6  C   UNL     1      -1.409  63.272  14.232  0.00  0.00    +0.000 C 
ATOM      7  C   UNL     1      -0.010  62.834  14.844  0.00  0.00    +0.000 C 
ATOM      8  C   UNL     1       0.102  64.764  13.425  0.00  0.00    +0.000 C 
ATOM      9  C   UNL     1       0.838  63.821  14.182  0.00  0.00    +0.000 C 
ATOM     10  C   UNL     1      -1.387  62.856  11.673  0.00  0.00    +0.000 A 
ATOM     11  C   UNL     1      -0.498  63.837  11.233  0.00  0.00    +0.000 A 
ATOM     12  C   UNL     1      -1.879  62.046  10.646  0.00  0.00    +0.000 A 
ATOM     13  C   UNL     1      -0.245  63.846   9.857  0.00  0.00    +0.000 A 
ATOM     14  C   UNL     1      -2.599  63.246  15.247  0.00  0.00    +0.000 C 
ATOM     15  C   UNL     1      -2.489  61.393  12.765  0.00  0.00    +0.000 A 
ATOM     16  C   UNL     1       1.061  65.277  11.110  0.00  0.00    +0.000 A 
ATOM     17  C   UNL     1      -2.608  61.078  11.359  0.00  0.00    +0.000 A 
ATOM     18  C   UNL     1      -1.658  62.051   9.262  0.00  0.00    +0.000 A 
ATOM     19  C   UNL     1      -0.747  63.050   8.807  0.00  0.00    +0.000 A 
ATOM     20  C   UNL     1       0.786  64.808   9.770  0.00  0.00    +0.000 A 
ATOM     21  C   UNL     1      -2.050  61.275   8.058  0.00  0.00    +0.000 C 
ATOM     22  C   UNL     1      -3.079  60.551  13.722  0.00  0.00    +0.000 A 
ATOM     23  C   UNL     1      -0.546  62.946   7.378  0.00  0.00    +0.000 C 
ATOM     24  C   UNL     1       2.065  66.228  11.348  0.00  0.00    +0.000 A 
ATOM     25  C   UNL     1      -3.337  59.930  10.987  0.00  0.00    +0.000 A 
ATOM     26  C   UNL     1       1.565  65.330   8.718  0.00  0.00    +0.000 A 
ATOM     27  C   UNL     1      -3.791  59.428  13.304  0.00  0.00    +0.000 A 
ATOM     28  C   UNL     1      -3.925  59.122  11.959  0.00  0.00    +0.000 A 
ATOM     29  C   UNL     1       2.800  66.715  10.267  0.00  0.00    +0.000 A 
ATOM     30  C   UNL     1       2.556  66.276   8.974  0.00  0.00    +0.000 A 
ATOM     31  H   UNL     1      -1.439  61.544   6.093  0.00  0.00    +0.000 HD
ENDROOT
BRANCH   7  32
ATOM     32  O   UNL     1       0.428  61.519  14.469  0.00  0.00    +0.000 OA
ATOM     33  H   UNL     1       0.119  61.360  13.550  0.00  0.00    +0.000 HD
ENDBRANCH   7  32
BRANCH   7  35
ATOM     34  O   UNL     1       0.149  64.109  16.872  0.00  0.00    +0.000 OA
ATOM     35  C   UNL     1       0.021  62.994  16.363  0.00  0.00    +0.000 C 
BRANCH  35  36
ATOM     36  O   UNL     1      -0.160  61.798  17.001  0.00  0.00    +0.000 OA
ATOM     37  C   UNL     1       0.746  61.457  18.015  0.00  0.00    +0.000 C 
ENDBRANCH  35  36
ENDBRANCH   7  35
TORSDOF 3
ENDMDL
MODEL 8
REMARK VINA RESULT:      -7.3      2.735      7.011
REMARK  Name = 490561_Nocardiopsis.pdbqt.pdb
REMARK  3 active torsions:
REMARK  status: ('A' for Active; 'I' for Inactive)
REMARK    1  A    between atoms: C_7  and  O_32
REMARK    2  A    between atoms: C_7  and  C_35
REMARK    3  A    between atoms: C_35  and  O_36
REMARK                            x       y       z     vdW  Elec       q    Type
REMARK                         _______ _______ _______ _____ _____    ______ ____
ROOT
ATOM      1  O   UNL     1      10.016  33.135  14.488  0.00  0.00    +0.000 OA
ATOM      2  O   UNL     1      12.441  39.812  16.992  0.00  0.00    +0.000 OA
ATOM      3  N   UNL     1      11.649  33.166  16.197  0.00  0.00    +0.000 N 
ATOM      4  N   UNL     1       9.636  35.246  15.405  0.00  0.00    +0.000 N 
ATOM      5  N   UNL     1      14.128  38.388  17.712  0.00  0.00    +0.000 N 
ATOM      6  C   UNL     1      10.577  32.346  15.595  0.00  0.00    +0.000 C 
ATOM      7  C   UNL     1       9.342  32.115  16.569  0.00  0.00    +0.000 C 
ATOM      8  C   UNL     1       9.102  34.004  15.110  0.00  0.00    +0.000 C 
ATOM      9  C   UNL     1       8.544  33.278  16.191  0.00  0.00    +0.000 C 
ATOM     10  C   UNL     1      11.801  34.527  16.278  0.00  0.00    +0.000 A 
ATOM     11  C   UNL     1      10.879  35.502  15.898  0.00  0.00    +0.000 A 
ATOM     12  C   UNL     1      12.952  35.050  16.875  0.00  0.00    +0.000 A 
ATOM     13  C   UNL     1      11.249  36.823  16.176  0.00  0.00    +0.000 A 
ATOM     14  C   UNL     1      11.133  31.044  14.931  0.00  0.00    +0.000 C 
ATOM     15  C   UNL     1      12.810  32.754  16.898  0.00  0.00    +0.000 A 
ATOM     16  C   UNL     1       9.095  36.545  15.398  0.00  0.00    +0.000 A 
ATOM     17  C   UNL     1      13.624  33.884  17.286  0.00  0.00    +0.000 A 
ATOM     18  C   UNL     1      13.354  36.365  17.142  0.00  0.00    +0.000 A 
ATOM     19  C   UNL     1      12.412  37.366  16.759  0.00  0.00    +0.000 A 
ATOM     20  C   UNL     1      10.068  37.521  15.838  0.00  0.00    +0.000 A 
ATOM     21  C   UNL     1      14.485  37.088  17.777  0.00  0.00    +0.000 C 
ATOM     22  C   UNL     1      13.215  31.452  17.236  0.00  0.00    +0.000 A 
ATOM     23  C   UNL     1      12.892  38.683  17.118  0.00  0.00    +0.000 C 
ATOM     24  C   UNL     1       7.803  36.939  15.017  0.00  0.00    +0.000 A 
ATOM     25  C   UNL     1      14.823  33.641  17.985  0.00  0.00    +0.000 A 
ATOM     26  C   UNL     1       9.672  38.872  15.880  0.00  0.00    +0.000 A 
ATOM     27  C   UNL     1      14.411  31.263  17.928  0.00  0.00    +0.000 A 
ATOM     28  C   UNL     1      15.208  32.336  18.293  0.00  0.00    +0.000 A 
ATOM     29  C   UNL     1       7.469  38.292  15.072  0.00  0.00    +0.000 A 
ATOM     30  C   UNL     1       8.385  39.244  15.495  0.00  0.00    +0.000 A 
ATOM     31  H   UNL     1      14.710  39.131  18.071  0.00  0.00    +0.000 HD
ENDROOT
BRANCH   7  32
ATOM     32  O   UNL     1       9.652  32.198  17.968  0.00  0.00    +0.000 OA
ATOM     33  H   UNL     1      10.487  31.701  18.111  0.00  0.00    +0.000 HD
ENDBRANCH   7  32
BRANCH   7  35
ATOM     34  O   UNL     1       8.869  29.784  16.898  0.00  0.00    +0.000 OA
ATOM     35  C   UNL     1       8.613  30.808  16.260  0.00  0.00    +0.000 C 
BRANCH  35  36
ATOM     36  O   UNL     1       7.671  30.973  15.283  0.00  0.00    +0.000 OA
ATOM     37  C   UNL     1       6.478  30.246  15.399  0.00  0.00    +0.000 C 
ENDBRANCH  35  36
ENDBRANCH   7  35
TORSDOF 3
ENDMDL
MODEL 9
REMARK VINA RESULT:      -7.2      2.737      6.904
REMARK  Name = 490561_Nocardiopsis.pdbqt.pdb
REMARK  3 active torsions:
REMARK  status: ('A' for Active; 'I' for Inactive)
REMARK    1  A    between atoms: C_7  and  O_32
REMARK    2  A    between atoms: C_7  and  C_35
REMARK    3  A    between atoms: C_35  and  O_36
REMARK                            x       y       z     vdW  Elec       q    Type
REMARK                         _______ _______ _______ _____ _____    ______ ____
ROOT
ATOM      1  O   UNL     1      11.818  29.521  17.465  0.00  0.00    +0.000 OA
ATOM      2  O   UNL     1       8.174  36.068  16.702  0.00  0.00    +0.000 OA
ATOM      3  N   UNL     1       9.833  29.556  16.181  0.00  0.00    +0.000 N 
ATOM      4  N   UNL     1      11.744  31.771  16.855  0.00  0.00    +0.000 N 
ATOM      5  N   UNL     1       6.525  34.534  16.138  0.00  0.00    +0.000 N 
ATOM      6  C   UNL     1      11.098  28.822  16.390  0.00  0.00    +0.000 C 
ATOM      7  C   UNL     1      12.085  28.905  15.147  0.00  0.00    +0.000 C 
ATOM      8  C   UNL     1      12.461  30.588  16.814  0.00  0.00    +0.000 C 
ATOM      9  C   UNL     1      12.821  30.105  15.532  0.00  0.00    +0.000 C 
ATOM     10  C   UNL     1       9.522  30.880  16.365  0.00  0.00    +0.000 A 
ATOM     11  C   UNL     1      10.399  31.914  16.693  0.00  0.00    +0.000 A 
ATOM     12  C   UNL     1       8.214  31.312  16.129  0.00  0.00    +0.000 A 
ATOM     13  C   UNL     1       9.836  33.195  16.727  0.00  0.00    +0.000 A 
ATOM     14  C   UNL     1      10.856  27.374  16.932  0.00  0.00    +0.000 C 
ATOM     15  C   UNL     1       8.589  29.085  15.691  0.00  0.00    +0.000 A 
ATOM     16  C   UNL     1      12.130  33.120  16.961  0.00  0.00    +0.000 A 
ATOM     17  C   UNL     1       7.592  30.131  15.684  0.00  0.00    +0.000 A 
ATOM     18  C   UNL     1       7.623  32.581  16.179  0.00  0.00    +0.000 A 
ATOM     19  C   UNL     1       8.517  33.643  16.510  0.00  0.00    +0.000 A 
ATOM     20  C   UNL     1      10.982  33.999  16.913  0.00  0.00    +0.000 A 
ATOM     21  C   UNL     1       6.303  33.218  15.935  0.00  0.00    +0.000 C 
ATOM     22  C   UNL     1       8.256  27.799  15.235  0.00  0.00    +0.000 A 
ATOM     23  C   UNL     1       7.829  34.915  16.490  0.00  0.00    +0.000 C 
ATOM     24  C   UNL     1      13.426  33.636  17.113  0.00  0.00    +0.000 A 
ATOM     25  C   UNL     1       6.294  29.820  15.231  0.00  0.00    +0.000 A 
ATOM     26  C   UNL     1      11.211  35.386  17.013  0.00  0.00    +0.000 A 
ATOM     27  C   UNL     1       6.958  27.539  14.798  0.00  0.00    +0.000 A 
ATOM     28  C   UNL     1       5.988  28.529  14.800  0.00  0.00    +0.000 A 
ATOM     29  C   UNL     1      13.591  35.017  17.214  0.00  0.00    +0.000 A 
ATOM     30  C   UNL     1      12.506  35.879  17.166  0.00  0.00    +0.000 A 
ATOM     31  H   UNL     1       5.800  35.228  16.043  0.00  0.00    +0.000 HD
ENDROOT
BRANCH   7  32
ATOM     32  O   UNL     1      11.446  29.137  13.883  0.00  0.00    +0.000 OA
ATOM     33  H   UNL     1      10.484  28.984  14.011  0.00  0.00    +0.000 HD
ENDBRANCH   7  32
BRANCH   7  35
ATOM     34  O   UNL     1      13.951  27.564  15.842  0.00  0.00    +0.000 OA
ATOM     35  C   UNL     1      13.001  27.685  15.066  0.00  0.00    +0.000 C 
BRANCH  35  36
ATOM     36  O   UNL     1      12.584  26.802  14.109  0.00  0.00    +0.000 OA
ATOM     37  C   UNL     1      12.761  25.435  14.363  0.00  0.00    +0.000 C 
ENDBRANCH  35  36
ENDBRANCH   7  35
TORSDOF 3
ENDMDL
