MODEL 1
REMARK VINA RESULT:      -7.6      0.000      0.000
REMARK  Name = 50922675_Encorafenib.pdbqt.pdb
REMARK  8 active torsions:
REMARK  status: ('A' for Active; 'I' for Inactive)
REMARK    1  A    between atoms: N_1  and  C_37
REMARK    2  A    between atoms: C_3  and  C_23
REMARK    3  A    between atoms: C_4  and  C_8
REMARK    4  A    between atoms: C_11  and  N_14
REMARK    5  A    between atoms: N_14  and  S_16
REMARK    6  A    between atoms: N_20  and  C_28
REMARK    7  A    between atoms: C_28  and  C_29
REMARK    8  A    between atoms: C_33  and  O_35
REMARK                            x       y       z     vdW  Elec       q    Type
REMARK                         _______ _______ _______ _____ _____    ______ ____
ROOT
ATOM      1  N   UNL     1      -4.401  45.670   9.676  0.00  0.00    +0.000 N 
ATOM      2  N   UNL     1      -5.636  45.057   9.729  0.00  0.00    +0.000 NA
ATOM      3  C   UNL     1      -4.892  45.388  11.861  0.00  0.00    +0.000 A 
ATOM      4  C   UNL     1      -5.942  44.914  11.028  0.00  0.00    +0.000 A 
ATOM      5  C   UNL     1      -3.948  45.850  10.976  0.00  0.00    +0.000 A 
ENDROOT
BRANCH   4   8
ATOM      6 CL   UNL     1     -10.900  45.498  12.294  0.00  0.00    +0.000 Cl
ATOM      7  F   UNL     1      -6.276  42.090  11.323  0.00  0.00    +0.000 F 
ATOM      8  C   UNL     1      -7.207  44.287  11.390  0.00  0.00    +0.000 A 
ATOM      9  C   UNL     1      -7.324  42.900  11.545  0.00  0.00    +0.000 A 
ATOM     10  C   UNL     1      -8.322  45.087  11.646  0.00  0.00    +0.000 A 
ATOM     11  C   UNL     1      -8.538  42.318  11.926  0.00  0.00    +0.000 A 
ATOM     12  C   UNL     1      -9.527  44.509  12.029  0.00  0.00    +0.000 A 
ATOM     13  C   UNL     1      -9.637  43.133  12.186  0.00  0.00    +0.000 A 
BRANCH  11  14
ATOM     14  N   UNL     1      -8.605  40.906  12.176  0.00  0.00    +0.000 N 
ATOM     15  H   UNL     1      -7.820  40.558  12.735  0.00  0.00    +0.000 HD
BRANCH  14  16
ATOM     16  S   UNL     1      -8.792  39.884  10.862  0.00  0.00    +0.000 S 
ATOM     17  O   UNL     1      -8.957  40.623   9.639  0.00  0.00    +0.000 OA
ATOM     18  O   UNL     1      -8.114  38.613  10.998  0.00  0.00    +0.000 OA
ATOM     19  C   UNL     1     -10.446  39.271  10.981  0.00  0.00    +0.000 C 
ENDBRANCH  14  16
ENDBRANCH  11  14
ENDBRANCH   4   8
BRANCH   3  23
ATOM     20  N   UNL     1      -3.143  43.508  15.862  0.00  0.00    +0.000 N 
ATOM     21  N   UNL     1      -4.031  44.471  13.882  0.00  0.00    +0.000 NA
ATOM     22  N   UNL     1      -4.349  45.490  15.988  0.00  0.00    +0.000 NA
ATOM     23  C   UNL     1      -4.727  45.467  13.304  0.00  0.00    +0.000 A 
ATOM     24  C   UNL     1      -3.862  44.514  15.215  0.00  0.00    +0.000 A 
ATOM     25  C   UNL     1      -5.271  46.512  14.016  0.00  0.00    +0.000 A 
ATOM     26  C   UNL     1      -5.041  46.462  15.368  0.00  0.00    +0.000 A 
ATOM     27  H   UNL     1      -3.322  43.577  16.857  0.00  0.00    +0.000 HD
BRANCH  20  28
ATOM     28  C   UNL     1      -3.150  42.189  15.241  0.00  0.00    +0.000 C 
BRANCH  28  29
ATOM     29  C   UNL     1      -3.241  40.953  14.552  0.00  0.00    +0.000 C 
ATOM     30  C   UNL     1      -3.330  40.991  13.056  0.00  0.00    +0.000 C 
ATOM     31  O   UNL     1      -3.027  40.279  17.339  0.00  0.00    +0.000 OA
ATOM     32  N   UNL     1      -3.043  39.736  15.109  0.00  0.00    +0.000 N 
ATOM     33  C   UNL     1      -2.907  39.451  16.443  0.00  0.00    +0.000 C 
ATOM     34  H   UNL     1      -2.953  38.970  14.447  0.00  0.00    +0.000 HD
BRANCH  33  35
ATOM     35  O   UNL     1      -2.634  38.113  16.606  0.00  0.00    +0.000 OA
ATOM     36  C   UNL     1      -1.541  37.567  15.912  0.00  0.00    +0.000 C 
ENDBRANCH  33  35
ENDBRANCH  28  29
ENDBRANCH  20  28
ENDBRANCH   3  23
BRANCH   1  37
ATOM     37  C   UNL     1      -3.668  46.059   8.527  0.00  0.00    +0.000 C 
ATOM     38  C   UNL     1      -2.152  46.162   8.535  0.00  0.00    +0.000 C 
ATOM     39  C   UNL     1      -4.343  46.381   7.209  0.00  0.00    +0.000 C 
ENDBRANCH   1  37
TORSDOF 8
ENDMDL
MODEL 2
REMARK VINA RESULT:      -7.1      3.286      5.903
REMARK  Name = 50922675_Encorafenib.pdbqt.pdb
REMARK  8 active torsions:
REMARK  status: ('A' for Active; 'I' for Inactive)
REMARK    1  A    between atoms: N_1  and  C_37
REMARK    2  A    between atoms: C_3  and  C_23
REMARK    3  A    between atoms: C_4  and  C_8
REMARK    4  A    between atoms: C_11  and  N_14
REMARK    5  A    between atoms: N_14  and  S_16
REMARK    6  A    between atoms: N_20  and  C_28
REMARK    7  A    between atoms: C_28  and  C_29
REMARK    8  A    between atoms: C_33  and  O_35
REMARK                            x       y       z     vdW  Elec       q    Type
REMARK                         _______ _______ _______ _____ _____    ______ ____
ROOT
ATOM      1  N   UNL     1      -4.652  45.256  10.006  0.00  0.00    +0.000 N 
ATOM      2  N   UNL     1      -4.276  45.385  11.328  0.00  0.00    +0.000 NA
ATOM      3  C   UNL     1      -5.671  43.589  11.138  0.00  0.00    +0.000 A 
ATOM      4  C   UNL     1      -4.858  44.378  11.997  0.00  0.00    +0.000 A 
ATOM      5  C   UNL     1      -5.514  44.172   9.903  0.00  0.00    +0.000 A 
ENDROOT
BRANCH   4   8
ATOM      6 CL   UNL     1      -5.369  46.471  16.675  0.00  0.00    +0.000 Cl
ATOM      7  F   UNL     1      -3.532  42.158  13.217  0.00  0.00    +0.000 F 
ATOM      8  C   UNL     1      -4.636  44.263  13.433  0.00  0.00    +0.000 A 
ATOM      9  C   UNL     1      -3.962  43.168  13.989  0.00  0.00    +0.000 A 
ATOM     10  C   UNL     1      -5.050  45.296  14.277  0.00  0.00    +0.000 A 
ATOM     11  C   UNL     1      -3.727  43.092  15.366  0.00  0.00    +0.000 A 
ATOM     12  C   UNL     1      -4.813  45.221  15.645  0.00  0.00    +0.000 A 
ATOM     13  C   UNL     1      -4.140  44.135  16.192  0.00  0.00    +0.000 A 
BRANCH  11  14
ATOM     14  N   UNL     1      -2.947  42.010  15.898  0.00  0.00    +0.000 N 
ATOM     15  H   UNL     1      -2.436  41.490  15.179  0.00  0.00    +0.000 HD
BRANCH  14  16
ATOM     16  S   UNL     1      -3.719  40.897  16.885  0.00  0.00    +0.000 S 
ATOM     17  O   UNL     1      -5.145  41.082  16.871  0.00  0.00    +0.000 OA
ATOM     18  O   UNL     1      -3.031  39.631  17.002  0.00  0.00    +0.000 OA
ATOM     19  C   UNL     1      -3.433  41.463  18.535  0.00  0.00    +0.000 C 
ENDBRANCH  14  16
ENDBRANCH  11  14
ENDBRANCH   4   8
BRANCH   3  23
ATOM     20  N   UNL     1      -9.141  41.440  13.574  0.00  0.00    +0.000 N 
ATOM     21  N   UNL     1      -7.403  42.484  12.340  0.00  0.00    +0.000 NA
ATOM     22  N   UNL     1      -8.081  40.273  11.867  0.00  0.00    +0.000 NA
ATOM     23  C   UNL     1      -6.490  42.407  11.354  0.00  0.00    +0.000 A 
ATOM     24  C   UNL     1      -8.176  41.407  12.566  0.00  0.00    +0.000 A 
ATOM     25  C   UNL     1      -6.315  41.281  10.582  0.00  0.00    +0.000 A 
ATOM     26  C   UNL     1      -7.153  40.240  10.893  0.00  0.00    +0.000 A 
ATOM     27  H   UNL     1      -9.448  40.490  13.752  0.00  0.00    +0.000 HD
BRANCH  20  28
ATOM     28  C   UNL     1      -8.879  42.314  14.711  0.00  0.00    +0.000 C 
BRANCH  28  29
ATOM     29  C   UNL     1      -8.501  43.163  15.782  0.00  0.00    +0.000 C 
ATOM     30  C   UNL     1      -8.410  44.634  15.510  0.00  0.00    +0.000 C 
ATOM     31  O   UNL     1      -8.579  40.506  16.881  0.00  0.00    +0.000 OA
ATOM     32  N   UNL     1      -8.419  42.788  17.080  0.00  0.00    +0.000 N 
ATOM     33  C   UNL     1      -8.498  41.513  17.577  0.00  0.00    +0.000 C 
ATOM     34  H   UNL     1      -8.324  43.553  17.742  0.00  0.00    +0.000 HD
BRANCH  33  35
ATOM     35  O   UNL     1      -8.458  41.547  18.951  0.00  0.00    +0.000 OA
ATOM     36  C   UNL     1      -8.948  42.692  19.603  0.00  0.00    +0.000 C 
ENDBRANCH  33  35
ENDBRANCH  28  29
ENDBRANCH  20  28
ENDBRANCH   3  23
BRANCH   1  37
ATOM     37  C   UNL     1      -4.268  46.062   8.906  0.00  0.00    +0.000 C 
ATOM     38  C   UNL     1      -4.900  45.907   7.534  0.00  0.00    +0.000 C 
ATOM     39  C   UNL     1      -3.216  47.146   9.028  0.00  0.00    +0.000 C 
ENDBRANCH   1  37
TORSDOF 8
ENDMDL
MODEL 3
REMARK VINA RESULT:      -7.0      3.120      5.331
REMARK  Name = 50922675_Encorafenib.pdbqt.pdb
REMARK  8 active torsions:
REMARK  status: ('A' for Active; 'I' for Inactive)
REMARK    1  A    between atoms: N_1  and  C_37
REMARK    2  A    between atoms: C_3  and  C_23
REMARK    3  A    between atoms: C_4  and  C_8
REMARK    4  A    between atoms: C_11  and  N_14
REMARK    5  A    between atoms: N_14  and  S_16
REMARK    6  A    between atoms: N_20  and  C_28
REMARK    7  A    between atoms: C_28  and  C_29
REMARK    8  A    between atoms: C_33  and  O_35
REMARK                            x       y       z     vdW  Elec       q    Type
REMARK                         _______ _______ _______ _____ _____    ______ ____
ROOT
ATOM      1  N   UNL     1      -5.756  42.430  17.392  0.00  0.00    +0.000 N 
ATOM      2  N   UNL     1      -6.065  42.327  16.050  0.00  0.00    +0.000 NA
ATOM      3  C   UNL     1      -4.275  43.724  16.283  0.00  0.00    +0.000 A 
ATOM      4  C   UNL     1      -5.168  43.074  15.388  0.00  0.00    +0.000 A 
ATOM      5  C   UNL     1      -4.678  43.296  17.525  0.00  0.00    +0.000 A 
ENDROOT
BRANCH   4   8
ATOM      6 CL   UNL     1      -5.198  46.034  11.173  0.00  0.00    +0.000 Cl
ATOM      7  F   UNL     1      -5.523  40.793  13.699  0.00  0.00    +0.000 F 
ATOM      8  C   UNL     1      -5.254  43.154  13.935  0.00  0.00    +0.000 A 
ATOM      9  C   UNL     1      -5.449  42.015  13.144  0.00  0.00    +0.000 A 
ATOM     10  C   UNL     1      -5.199  44.402  13.312  0.00  0.00    +0.000 A 
ATOM     11  C   UNL     1      -5.563  42.114  11.754  0.00  0.00    +0.000 A 
ATOM     12  C   UNL     1      -5.316  44.501  11.930  0.00  0.00    +0.000 A 
ATOM     13  C   UNL     1      -5.514  43.369  11.150  0.00  0.00    +0.000 A 
BRANCH  11  14
ATOM     14  N   UNL     1      -5.864  40.946  10.976  0.00  0.00    +0.000 N 
ATOM     15  H   UNL     1      -5.251  40.835  10.162  0.00  0.00    +0.000 HD
BRANCH  14  16
ATOM     16  S   UNL     1      -7.444  40.730  10.462  0.00  0.00    +0.000 S 
ATOM     17  O   UNL     1      -8.337  41.659  11.101  0.00  0.00    +0.000 OA
ATOM     18  O   UNL     1      -7.565  40.235   9.108  0.00  0.00    +0.000 OA
ATOM     19  C   UNL     1      -8.005  39.271  11.287  0.00  0.00    +0.000 C 
ENDBRANCH  14  16
ENDBRANCH  11  14
ENDBRANCH   4   8
BRANCH   3  23
ATOM     20  N   UNL     1       0.350  44.276  15.338  0.00  0.00    +0.000 N 
ATOM     21  N   UNL     1      -1.962  44.034  15.814  0.00  0.00    +0.000 NA
ATOM     22  N   UNL     1      -0.954  46.165  15.696  0.00  0.00    +0.000 NA
ATOM     23  C   UNL     1      -3.145  44.617  16.084  0.00  0.00    +0.000 A 
ATOM     24  C   UNL     1      -0.897  44.832  15.626  0.00  0.00    +0.000 A 
ATOM     25  C   UNL     1      -3.302  45.981  16.181  0.00  0.00    +0.000 A 
ATOM     26  C   UNL     1      -2.155  46.704  15.972  0.00  0.00    +0.000 A 
ATOM     27  H   UNL     1       1.056  44.992  15.465  0.00  0.00    +0.000 HD
BRANCH  20  28
ATOM     28  C   UNL     1       0.612  42.938  15.854  0.00  0.00    +0.000 C 
BRANCH  28  29
ATOM     29  C   UNL     1       0.902  41.693  16.468  0.00  0.00    +0.000 C 
ATOM     30  C   UNL     1       1.770  41.701  17.690  0.00  0.00    +0.000 C 
ATOM     31  O   UNL     1      -0.831  41.088  14.254  0.00  0.00    +0.000 OA
ATOM     32  N   UNL     1       0.293  40.521  16.173  0.00  0.00    +0.000 N 
ATOM     33  C   UNL     1      -0.560  40.274  15.129  0.00  0.00    +0.000 C 
ATOM     34  H   UNL     1       0.474  39.766  16.830  0.00  0.00    +0.000 HD
BRANCH  33  35
ATOM     35  O   UNL     1      -1.038  38.987  15.216  0.00  0.00    +0.000 OA
ATOM     36  C   UNL     1      -1.614  38.413  14.069  0.00  0.00    +0.000 C 
ENDBRANCH  33  35
ENDBRANCH  28  29
ENDBRANCH  20  28
ENDBRANCH   3  23
BRANCH   1  37
ATOM     37  C   UNL     1      -6.396  41.798  18.486  0.00  0.00    +0.000 C 
ATOM     38  C   UNL     1      -7.734  41.094  18.340  0.00  0.00    +0.000 C 
ATOM     39  C   UNL     1      -5.783  41.765  19.871  0.00  0.00    +0.000 C 
ENDBRANCH   1  37
TORSDOF 8
ENDMDL
MODEL 4
REMARK VINA RESULT:      -6.9      3.324      5.567
REMARK  Name = 50922675_Encorafenib.pdbqt.pdb
REMARK  8 active torsions:
REMARK  status: ('A' for Active; 'I' for Inactive)
REMARK    1  A    between atoms: N_1  and  C_37
REMARK    2  A    between atoms: C_3  and  C_23
REMARK    3  A    between atoms: C_4  and  C_8
REMARK    4  A    between atoms: C_11  and  N_14
REMARK    5  A    between atoms: N_14  and  S_16
REMARK    6  A    between atoms: N_20  and  C_28
REMARK    7  A    between atoms: C_28  and  C_29
REMARK    8  A    between atoms: C_33  and  O_35
REMARK                            x       y       z     vdW  Elec       q    Type
REMARK                         _______ _______ _______ _____ _____    ______ ____
ROOT
ATOM      1  N   UNL     1      -4.618  45.634   9.308  0.00  0.00    +0.000 N 
ATOM      2  N   UNL     1      -4.713  46.378  10.467  0.00  0.00    +0.000 NA
ATOM      3  C   UNL     1      -5.838  44.415  10.765  0.00  0.00    +0.000 A 
ATOM      4  C   UNL     1      -5.414  45.643  11.344  0.00  0.00    +0.000 A 
ATOM      5  C   UNL     1      -5.320  44.450   9.493  0.00  0.00    +0.000 A 
ENDROOT
BRANCH   4   8
ATOM      6 CL   UNL     1      -8.178  48.841  14.286  0.00  0.00    +0.000 Cl
ATOM      7  F   UNL     1      -3.923  44.909  13.671  0.00  0.00    +0.000 F 
ATOM      8  C   UNL     1      -5.675  46.186  12.671  0.00  0.00    +0.000 A 
ATOM      9  C   UNL     1      -4.907  45.817  13.782  0.00  0.00    +0.000 A 
ATOM     10  C   UNL     1      -6.676  47.145  12.835  0.00  0.00    +0.000 A 
ATOM     11  C   UNL     1      -5.149  46.375  15.042  0.00  0.00    +0.000 A 
ATOM     12  C   UNL     1      -6.914  47.702  14.087  0.00  0.00    +0.000 A 
ATOM     13  C   UNL     1      -6.147  47.336  15.186  0.00  0.00    +0.000 A 
BRANCH  11  14
ATOM     14  N   UNL     1      -4.284  46.056  16.143  0.00  0.00    +0.000 N 
ATOM     15  H   UNL     1      -4.792  45.858  17.010  0.00  0.00    +0.000 HD
BRANCH  14  16
ATOM     16  S   UNL     1      -3.049  47.128  16.506  0.00  0.00    +0.000 S 
ATOM     17  O   UNL     1      -1.896  46.904  15.676  0.00  0.00    +0.000 OA
ATOM     18  O   UNL     1      -3.501  48.410  16.997  0.00  0.00    +0.000 OA
ATOM     19  C   UNL     1      -2.354  46.539  18.021  0.00  0.00    +0.000 C 
ENDBRANCH  14  16
ENDBRANCH  11  14
ENDBRANCH   4   8
BRANCH   3  23
ATOM     20  N   UNL     1      -6.214  40.844  13.881  0.00  0.00    +0.000 N 
ATOM     21  N   UNL     1      -6.055  42.617  12.310  0.00  0.00    +0.000 NA
ATOM     22  N   UNL     1      -7.910  41.158  12.325  0.00  0.00    +0.000 NA
ATOM     23  C   UNL     1      -6.598  43.286  11.277  0.00  0.00    +0.000 A 
ATOM     24  C   UNL     1      -6.733  41.567  12.806  0.00  0.00    +0.000 A 
ATOM     25  C   UNL     1      -7.804  42.938  10.711  0.00  0.00    +0.000 A 
ATOM     26  C   UNL     1      -8.414  41.854  11.290  0.00  0.00    +0.000 A 
ATOM     27  H   UNL     1      -6.726  39.973  13.956  0.00  0.00    +0.000 HD
BRANCH  20  28
ATOM     28  C   UNL     1      -4.762  40.815  14.017  0.00  0.00    +0.000 C 
BRANCH  28  29
ATOM     29  C   UNL     1      -3.358  40.910  14.186  0.00  0.00    +0.000 C 
ATOM     30  C   UNL     1      -2.488  40.074  13.297  0.00  0.00    +0.000 C 
ATOM     31  O   UNL     1      -4.499  42.756  16.073  0.00  0.00    +0.000 OA
ATOM     32  N   UNL     1      -2.726  41.845  14.933  0.00  0.00    +0.000 N 
ATOM     33  C   UNL     1      -3.304  42.738  15.798  0.00  0.00    +0.000 C 
ATOM     34  H   UNL     1      -1.721  41.897  14.797  0.00  0.00    +0.000 HD
BRANCH  33  35
ATOM     35  O   UNL     1      -2.343  43.582  16.304  0.00  0.00    +0.000 OA
ATOM     36  C   UNL     1      -1.029  43.460  15.822  0.00  0.00    +0.000 C 
ENDBRANCH  33  35
ENDBRANCH  28  29
ENDBRANCH  20  28
ENDBRANCH   3  23
BRANCH   1  37
ATOM     37  C   UNL     1      -3.947  45.971   8.107  0.00  0.00    +0.000 C 
ATOM     38  C   UNL     1      -4.699  46.343   6.841  0.00  0.00    +0.000 C 
ATOM     39  C   UNL     1      -2.435  46.001   8.007  0.00  0.00    +0.000 C 
ENDBRANCH   1  37
TORSDOF 8
ENDMDL
MODEL 5
REMARK VINA RESULT:      -6.8      3.865      5.063
REMARK  Name = 50922675_Encorafenib.pdbqt.pdb
REMARK  8 active torsions:
REMARK  status: ('A' for Active; 'I' for Inactive)
REMARK    1  A    between atoms: N_1  and  C_37
REMARK    2  A    between atoms: C_3  and  C_23
REMARK    3  A    between atoms: C_4  and  C_8
REMARK    4  A    between atoms: C_11  and  N_14
REMARK    5  A    between atoms: N_14  and  S_16
REMARK    6  A    between atoms: N_20  and  C_28
REMARK    7  A    between atoms: C_28  and  C_29
REMARK    8  A    between atoms: C_33  and  O_35
REMARK                            x       y       z     vdW  Elec       q    Type
REMARK                         _______ _______ _______ _____ _____    ______ ____
ROOT
ATOM      1  N   UNL     1      -5.015  46.232   8.916  0.00  0.00    +0.000 N 
ATOM      2  N   UNL     1      -5.500  46.956   9.987  0.00  0.00    +0.000 NA
ATOM      3  C   UNL     1      -5.544  44.738  10.524  0.00  0.00    +0.000 A 
ATOM      4  C   UNL     1      -5.788  46.071  10.954  0.00  0.00    +0.000 A 
ATOM      5  C   UNL     1      -5.062  44.884   9.245  0.00  0.00    +0.000 A 
ENDROOT
BRANCH   4   8
ATOM      6 CL   UNL     1      -4.882  47.588  15.792  0.00  0.00    +0.000 Cl
ATOM      7  F   UNL     1      -8.578  46.489  11.424  0.00  0.00    +0.000 F 
ATOM      8  C   UNL     1      -6.327  46.559  12.217  0.00  0.00    +0.000 A 
ATOM      9  C   UNL     1      -7.703  46.730  12.414  0.00  0.00    +0.000 A 
ATOM     10  C   UNL     1      -5.461  46.809  13.283  0.00  0.00    +0.000 A 
ATOM     11  C   UNL     1      -8.205  47.166  13.645  0.00  0.00    +0.000 A 
ATOM     12  C   UNL     1      -5.960  47.239  14.507  0.00  0.00    +0.000 A 
ATOM     13  C   UNL     1      -7.327  47.403  14.700  0.00  0.00    +0.000 A 
BRANCH  11  14
ATOM     14  N   UNL     1      -9.624  47.237  13.853  0.00  0.00    +0.000 N 
ATOM     15  H   UNL     1     -10.126  46.425  13.482  0.00  0.00    +0.000 HD
BRANCH  14  16
ATOM     16  S   UNL     1     -10.426  48.615  13.338  0.00  0.00    +0.000 S 
ATOM     17  O   UNL     1      -9.698  49.807  13.681  0.00  0.00    +0.000 OA
ATOM     18  O   UNL     1     -11.227  48.426  12.149  0.00  0.00    +0.000 OA
ATOM     19  C   UNL     1     -11.760  48.829  14.477  0.00  0.00    +0.000 C 
ENDBRANCH  14  16
ENDBRANCH  11  14
ENDBRANCH   4   8
BRANCH   3  23
ATOM     20  N   UNL     1      -4.654  41.959  14.276  0.00  0.00    +0.000 N 
ATOM     21  N   UNL     1      -5.113  43.320  12.387  0.00  0.00    +0.000 NA
ATOM     22  N   UNL     1      -5.859  41.083  12.493  0.00  0.00    +0.000 NA
ATOM     23  C   UNL     1      -5.681  43.444  11.174  0.00  0.00    +0.000 A 
ATOM     24  C   UNL     1      -5.221  42.136  13.014  0.00  0.00    +0.000 A 
ATOM     25  C   UNL     1      -6.356  42.417  10.554  0.00  0.00    +0.000 A 
ATOM     26  C   UNL     1      -6.409  41.252  11.277  0.00  0.00    +0.000 A 
ATOM     27  H   UNL     1      -4.627  40.965  14.478  0.00  0.00    +0.000 HD
BRANCH  20  28
ATOM     28  C   UNL     1      -3.482  42.766  14.593  0.00  0.00    +0.000 C 
BRANCH  28  29
ATOM     29  C   UNL     1      -2.280  43.441  14.924  0.00  0.00    +0.000 C 
ATOM     30  C   UNL     1      -2.387  44.829  15.479  0.00  0.00    +0.000 C 
ATOM     31  O   UNL     1      -1.485  40.839  13.991  0.00  0.00    +0.000 OA
ATOM     32  N   UNL     1      -1.056  42.866  14.981  0.00  0.00    +0.000 N 
ATOM     33  C   UNL     1      -0.716  41.606  14.561  0.00  0.00    +0.000 C 
ATOM     34  H   UNL     1      -0.335  43.433  15.417  0.00  0.00    +0.000 HD
BRANCH  33  35
ATOM     35  O   UNL     1       0.602  41.355  14.865  0.00  0.00    +0.000 OA
ATOM     36  C   UNL     1       0.886  40.559  15.987  0.00  0.00    +0.000 C 
ENDBRANCH  33  35
ENDBRANCH  28  29
ENDBRANCH  20  28
ENDBRANCH   3  23
BRANCH   1  37
ATOM     37  C   UNL     1      -4.548  46.721   7.671  0.00  0.00    +0.000 C 
ATOM     38  C   UNL     1      -4.882  46.033   6.359  0.00  0.00    +0.000 C 
ATOM     39  C   UNL     1      -3.699  47.972   7.562  0.00  0.00    +0.000 C 
ENDBRANCH   1  37
TORSDOF 8
ENDMDL
MODEL 6
REMARK VINA RESULT:      -6.6      9.330     13.052
REMARK  Name = 50922675_Encorafenib.pdbqt.pdb
REMARK  8 active torsions:
REMARK  status: ('A' for Active; 'I' for Inactive)
REMARK    1  A    between atoms: N_1  and  C_37
REMARK    2  A    between atoms: C_3  and  C_23
REMARK    3  A    between atoms: C_4  and  C_8
REMARK    4  A    between atoms: C_11  and  N_14
REMARK    5  A    between atoms: N_14  and  S_16
REMARK    6  A    between atoms: N_20  and  C_28
REMARK    7  A    between atoms: C_28  and  C_29
REMARK    8  A    between atoms: C_33  and  O_35
REMARK                            x       y       z     vdW  Elec       q    Type
REMARK                         _______ _______ _______ _____ _____    ______ ____
ROOT
ATOM      1  N   UNL     1       1.003  44.331  20.851  0.00  0.00    +0.000 N 
ATOM      2  N   UNL     1       1.926  45.227  21.350  0.00  0.00    +0.000 NA
ATOM      3  C   UNL     1       2.181  45.100  19.085  0.00  0.00    +0.000 A 
ATOM      4  C   UNL     1       2.609  45.706  20.299  0.00  0.00    +0.000 A 
ATOM      5  C   UNL     1       1.177  44.246  19.476  0.00  0.00    +0.000 A 
ENDROOT
BRANCH   4   8
ATOM      6 CL   UNL     1       7.559  46.611  21.396  0.00  0.00    +0.000 Cl
ATOM      7  F   UNL     1       2.178  48.533  20.259  0.00  0.00    +0.000 F 
ATOM      8  C   UNL     1       3.664  46.684  20.530  0.00  0.00    +0.000 A 
ATOM      9  C   UNL     1       3.407  48.061  20.522  0.00  0.00    +0.000 A 
ATOM     10  C   UNL     1       4.956  46.244  20.824  0.00  0.00    +0.000 A 
ATOM     11  C   UNL     1       4.426  48.985  20.780  0.00  0.00    +0.000 A 
ATOM     12  C   UNL     1       5.967  47.162  21.084  0.00  0.00    +0.000 A 
ATOM     13  C   UNL     1       5.707  48.527  21.080  0.00  0.00    +0.000 A 
BRANCH  11  14
ATOM     14  N   UNL     1       4.116  50.384  20.867  0.00  0.00    +0.000 N 
ATOM     15  H   UNL     1       3.169  50.566  21.212  0.00  0.00    +0.000 HD
BRANCH  14  16
ATOM     16  S   UNL     1       4.355  51.327  19.502  0.00  0.00    +0.000 S 
ATOM     17  O   UNL     1       4.834  50.541  18.397  0.00  0.00    +0.000 OA
ATOM     18  O   UNL     1       3.473  52.469  19.409  0.00  0.00    +0.000 OA
ATOM     19  C   UNL     1       5.849  52.219  19.810  0.00  0.00    +0.000 C 
ENDBRANCH  14  16
ENDBRANCH  11  14
ENDBRANCH   4   8
BRANCH   3  23
ATOM     20  N   UNL     1       0.938  45.880  14.564  0.00  0.00    +0.000 N 
ATOM     21  N   UNL     1       1.591  45.487  16.812  0.00  0.00    +0.000 NA
ATOM     22  N   UNL     1       3.186  45.590  15.075  0.00  0.00    +0.000 NA
ATOM     23  C   UNL     1       2.581  45.266  17.697  0.00  0.00    +0.000 A 
ATOM     24  C   UNL     1       1.927  45.643  15.520  0.00  0.00    +0.000 A 
ATOM     25  C   UNL     1       3.906  45.191  17.334  0.00  0.00    +0.000 A 
ATOM     26  C   UNL     1       4.142  45.365  15.994  0.00  0.00    +0.000 A 
ATOM     27  H   UNL     1       1.341  45.733  13.645  0.00  0.00    +0.000 HD
BRANCH  20  28
ATOM     28  C   UNL     1      -0.388  45.339  14.839  0.00  0.00    +0.000 C 
BRANCH  28  29
ATOM     29  C   UNL     1      -1.680  44.773  14.983  0.00  0.00    +0.000 C 
ATOM     30  C   UNL     1      -2.857  45.701  14.955  0.00  0.00    +0.000 C 
ATOM     31  O   UNL     1       0.153  42.558  15.035  0.00  0.00    +0.000 OA
ATOM     32  N   UNL     1      -1.960  43.450  14.931  0.00  0.00    +0.000 N 
ATOM     33  C   UNL     1      -1.059  42.417  14.919  0.00  0.00    +0.000 C 
ATOM     34  H   UNL     1      -2.947  43.223  14.857  0.00  0.00    +0.000 HD
BRANCH  33  35
ATOM     35  O   UNL     1      -1.726  41.222  14.774  0.00  0.00    +0.000 OA
ATOM     36  C   UNL     1      -0.991  40.031  14.898  0.00  0.00    +0.000 C 
ENDBRANCH  33  35
ENDBRANCH  28  29
ENDBRANCH  20  28
ENDBRANCH   3  23
BRANCH   1  37
ATOM     37  C   UNL     1       0.031  43.588  21.567  0.00  0.00    +0.000 C 
ATOM     38  C   UNL     1      -0.080  43.656  23.080  0.00  0.00    +0.000 C 
ATOM     39  C   UNL     1      -0.973  42.691  20.873  0.00  0.00    +0.000 C 
ENDBRANCH   1  37
TORSDOF 8
ENDMDL
MODEL 7
REMARK VINA RESULT:      -6.5      4.080      7.810
REMARK  Name = 50922675_Encorafenib.pdbqt.pdb
REMARK  8 active torsions:
REMARK  status: ('A' for Active; 'I' for Inactive)
REMARK    1  A    between atoms: N_1  and  C_37
REMARK    2  A    between atoms: C_3  and  C_23
REMARK    3  A    between atoms: C_4  and  C_8
REMARK    4  A    between atoms: C_11  and  N_14
REMARK    5  A    between atoms: N_14  and  S_16
REMARK    6  A    between atoms: N_20  and  C_28
REMARK    7  A    between atoms: C_28  and  C_29
REMARK    8  A    between atoms: C_33  and  O_35
REMARK                            x       y       z     vdW  Elec       q    Type
REMARK                         _______ _______ _______ _____ _____    ______ ____
ROOT
ATOM      1  N   UNL     1      -7.570  43.145  19.183  0.00  0.00    +0.000 N 
ATOM      2  N   UNL     1      -7.305  44.341  18.547  0.00  0.00    +0.000 NA
ATOM      3  C   UNL     1      -6.233  42.665  17.429  0.00  0.00    +0.000 A 
ATOM      4  C   UNL     1      -6.533  44.054  17.487  0.00  0.00    +0.000 A 
ATOM      5  C   UNL     1      -6.899  42.135  18.507  0.00  0.00    +0.000 A 
ENDROOT
BRANCH   4   8
ATOM      6 CL   UNL     1      -3.658  48.288  16.915  0.00  0.00    +0.000 Cl
ATOM      7  F   UNL     1      -7.460  44.410  14.806  0.00  0.00    +0.000 F 
ATOM      8  C   UNL     1      -6.092  45.140  16.621  0.00  0.00    +0.000 A 
ATOM      9  C   UNL     1      -6.586  45.291  15.320  0.00  0.00    +0.000 A 
ATOM     10  C   UNL     1      -5.197  46.091  17.114  0.00  0.00    +0.000 A 
ATOM     11  C   UNL     1      -6.177  46.359  14.514  0.00  0.00    +0.000 A 
ATOM     12  C   UNL     1      -4.793  47.155  16.315  0.00  0.00    +0.000 A 
ATOM     13  C   UNL     1      -5.290  47.304  15.026  0.00  0.00    +0.000 A 
BRANCH  11  14
ATOM     14  N   UNL     1      -6.775  46.550  13.222  0.00  0.00    +0.000 N 
ATOM     15  H   UNL     1      -7.746  46.227  13.177  0.00  0.00    +0.000 HD
BRANCH  14  16
ATOM     16  S   UNL     1      -5.968  45.939  11.887  0.00  0.00    +0.000 S 
ATOM     17  O   UNL     1      -6.332  46.640  10.685  0.00  0.00    +0.000 OA
ATOM     18  O   UNL     1      -4.664  45.388  12.182  0.00  0.00    +0.000 OA
ATOM     19  C   UNL     1      -6.778  44.413  11.513  0.00  0.00    +0.000 C 
ENDBRANCH  14  16
ENDBRANCH  11  14
ENDBRANCH   4   8
BRANCH   3  23
ATOM     20  N   UNL     1      -5.955  40.440  13.238  0.00  0.00    +0.000 N 
ATOM     21  N   UNL     1      -6.063  41.539  15.339  0.00  0.00    +0.000 NA
ATOM     22  N   UNL     1      -4.137  40.343  14.681  0.00  0.00    +0.000 NA
ATOM     23  C   UNL     1      -5.461  41.854  16.500  0.00  0.00    +0.000 A 
ATOM     24  C   UNL     1      -5.377  40.788  14.459  0.00  0.00    +0.000 A 
ATOM     25  C   UNL     1      -4.189  41.438  16.822  0.00  0.00    +0.000 A 
ATOM     26  C   UNL     1      -3.576  40.679  15.857  0.00  0.00    +0.000 A 
ATOM     27  H   UNL     1      -5.403  39.696  12.824  0.00  0.00    +0.000 HD
BRANCH  20  28
ATOM     28  C   UNL     1      -7.408  40.333  13.202  0.00  0.00    +0.000 C 
BRANCH  28  29
ATOM     29  C   UNL     1      -8.826  40.357  13.183  0.00  0.00    +0.000 C 
ATOM     30  C   UNL     1      -9.526  41.149  14.245  0.00  0.00    +0.000 C 
ATOM     31  O   UNL     1      -8.041  38.776  10.913  0.00  0.00    +0.000 OA
ATOM     32  N   UNL     1      -9.598  39.903  12.168  0.00  0.00    +0.000 N 
ATOM     33  C   UNL     1      -9.186  39.182  11.078  0.00  0.00    +0.000 C 
ATOM     34  H   UNL     1     -10.578  40.167  12.223  0.00  0.00    +0.000 HD
BRANCH  33  35
ATOM     35  O   UNL     1     -10.248  38.982  10.226  0.00  0.00    +0.000 OA
ATOM     36  C   UNL     1     -11.537  38.890  10.779  0.00  0.00    +0.000 C 
ENDBRANCH  33  35
ENDBRANCH  28  29
ENDBRANCH  20  28
ENDBRANCH   3  23
BRANCH   1  37
ATOM     37  C   UNL     1      -8.368  42.927  20.334  0.00  0.00    +0.000 C 
ATOM     38  C   UNL     1      -9.847  42.595  20.237  0.00  0.00    +0.000 C 
ATOM     39  C   UNL     1      -7.798  42.991  21.736  0.00  0.00    +0.000 C 
ENDBRANCH   1  37
TORSDOF 8
ENDMDL
MODEL 8
REMARK VINA RESULT:      -6.4      5.527      8.992
REMARK  Name = 50922675_Encorafenib.pdbqt.pdb
REMARK  8 active torsions:
REMARK  status: ('A' for Active; 'I' for Inactive)
REMARK    1  A    between atoms: N_1  and  C_37
REMARK    2  A    between atoms: C_3  and  C_23
REMARK    3  A    between atoms: C_4  and  C_8
REMARK    4  A    between atoms: C_11  and  N_14
REMARK    5  A    between atoms: N_14  and  S_16
REMARK    6  A    between atoms: N_20  and  C_28
REMARK    7  A    between atoms: C_28  and  C_29
REMARK    8  A    between atoms: C_33  and  O_35
REMARK                            x       y       z     vdW  Elec       q    Type
REMARK                         _______ _______ _______ _____ _____    ______ ____
ROOT
ATOM      1  N   UNL     1      -6.430  42.566  18.558  0.00  0.00    +0.000 N 
ATOM      2  N   UNL     1      -5.164  43.014  18.876  0.00  0.00    +0.000 NA
ATOM      3  C   UNL     1      -5.188  42.386  16.682  0.00  0.00    +0.000 A 
ATOM      4  C   UNL     1      -4.432  42.934  17.755  0.00  0.00    +0.000 A 
ATOM      5  C   UNL     1      -6.430  42.169  17.228  0.00  0.00    +0.000 A 
ENDROOT
BRANCH   4   8
ATOM      6 CL   UNL     1      -0.568  45.488  15.503  0.00  0.00    +0.000 Cl
ATOM      7  F   UNL     1      -2.621  42.174  19.833  0.00  0.00    +0.000 F 
ATOM      8  C   UNL     1      -3.034  43.346  17.794  0.00  0.00    +0.000 A 
ATOM      9  C   UNL     1      -2.174  42.935  18.820  0.00  0.00    +0.000 A 
ATOM     10  C   UNL     1      -2.518  44.123  16.756  0.00  0.00    +0.000 A 
ATOM     11  C   UNL     1      -0.827  43.311  18.823  0.00  0.00    +0.000 A 
ATOM     12  C   UNL     1      -1.178  44.494  16.757  0.00  0.00    +0.000 A 
ATOM     13  C   UNL     1      -0.326  44.080  17.775  0.00  0.00    +0.000 A 
BRANCH  11  14
ATOM     14  N   UNL     1       0.057  42.794  19.829  0.00  0.00    +0.000 N 
ATOM     15  H   UNL     1      -0.178  41.840  20.119  0.00  0.00    +0.000 HD
BRANCH  14  16
ATOM     16  S   UNL     1       0.291  43.708  21.214  0.00  0.00    +0.000 S 
ATOM     17  O   UNL     1       1.483  44.508  21.122  0.00  0.00    +0.000 OA
ATOM     18  O   UNL     1      -0.931  44.085  21.889  0.00  0.00    +0.000 OA
ATOM     19  C   UNL     1       0.877  42.567  22.430  0.00  0.00    +0.000 C 
ENDBRANCH  14  16
ENDBRANCH  11  14
ENDBRANCH   4   8
BRANCH   3  23
ATOM     20  N   UNL     1      -2.804  39.781  13.501  0.00  0.00    +0.000 N 
ATOM     21  N   UNL     1      -4.006  41.101  15.064  0.00  0.00    +0.000 NA
ATOM     22  N   UNL     1      -4.204  41.471  12.741  0.00  0.00    +0.000 NA
ATOM     23  C   UNL     1      -4.876  42.102  15.290  0.00  0.00    +0.000 A 
ATOM     24  C   UNL     1      -3.696  40.814  13.788  0.00  0.00    +0.000 A 
ATOM     25  C   UNL     1      -5.449  42.839  14.279  0.00  0.00    +0.000 A 
ATOM     26  C   UNL     1      -5.067  42.467  13.015  0.00  0.00    +0.000 A 
ATOM     27  H   UNL     1      -2.515  39.868  12.532  0.00  0.00    +0.000 HD
BRANCH  20  28
ATOM     28  C   UNL     1      -1.791  39.484  14.507  0.00  0.00    +0.000 C 
BRANCH  28  29
ATOM     29  C   UNL     1      -0.903  39.180  15.570  0.00  0.00    +0.000 C 
ATOM     30  C   UNL     1      -1.027  37.837  16.223  0.00  0.00    +0.000 C 
ATOM     31  O   UNL     1      -0.171  41.811  14.667  0.00  0.00    +0.000 OA
ATOM     32  N   UNL     1       0.184  39.912  15.908  0.00  0.00    +0.000 N 
ATOM     33  C   UNL     1       0.526  41.151  15.430  0.00  0.00    +0.000 C 
ATOM     34  H   UNL     1       0.820  39.461  16.560  0.00  0.00    +0.000 HD
BRANCH  33  35
ATOM     35  O   UNL     1       1.744  41.527  15.946  0.00  0.00    +0.000 OA
ATOM     36  C   UNL     1       2.058  41.140  17.260  0.00  0.00    +0.000 C 
ENDBRANCH  33  35
ENDBRANCH  28  29
ENDBRANCH  20  28
ENDBRANCH   3  23
BRANCH   1  37
ATOM     37  C   UNL     1      -7.567  42.489  19.402  0.00  0.00    +0.000 C 
ATOM     38  C   UNL     1      -8.930  42.070  18.879  0.00  0.00    +0.000 C 
ATOM     39  C   UNL     1      -7.496  42.802  20.882  0.00  0.00    +0.000 C 
ENDBRANCH   1  37
TORSDOF 8
ENDMDL
MODEL 9
REMARK VINA RESULT:      -6.4     18.216     21.032
REMARK  Name = 50922675_Encorafenib.pdbqt.pdb
REMARK  8 active torsions:
REMARK  status: ('A' for Active; 'I' for Inactive)
REMARK    1  A    between atoms: N_1  and  C_37
REMARK    2  A    between atoms: C_3  and  C_23
REMARK    3  A    between atoms: C_4  and  C_8
REMARK    4  A    between atoms: C_11  and  N_14
REMARK    5  A    between atoms: N_14  and  S_16
REMARK    6  A    between atoms: N_20  and  C_28
REMARK    7  A    between atoms: C_28  and  C_29
REMARK    8  A    between atoms: C_33  and  O_35
REMARK                            x       y       z     vdW  Elec       q    Type
REMARK                         _______ _______ _______ _____ _____    ______ ____
ROOT
ATOM      1  N   UNL     1       9.773  33.668  16.024  0.00  0.00    +0.000 N 
ATOM      2  N   UNL     1       9.381  32.569  15.286  0.00  0.00    +0.000 NA
ATOM      3  C   UNL     1      10.018  31.866  17.362  0.00  0.00    +0.000 A 
ATOM      4  C   UNL     1       9.499  31.501  16.089  0.00  0.00    +0.000 A 
ATOM      5  C   UNL     1      10.176  33.229  17.278  0.00  0.00    +0.000 A 
ENDROOT
BRANCH   4   8
ATOM      6 CL   UNL     1       5.815  28.066  15.014  0.00  0.00    +0.000 Cl
ATOM      7  F   UNL     1      11.431  29.609  15.161  0.00  0.00    +0.000 F 
ATOM      8  C   UNL     1       9.151  30.185  15.568  0.00  0.00    +0.000 A 
ATOM      9  C   UNL     1      10.129  29.278  15.142  0.00  0.00    +0.000 A 
ATOM     10  C   UNL     1       7.812  29.789  15.544  0.00  0.00    +0.000 A 
ATOM     11  C   UNL     1       9.779  28.007  14.677  0.00  0.00    +0.000 A 
ATOM     12  C   UNL     1       7.464  28.523  15.085  0.00  0.00    +0.000 A 
ATOM     13  C   UNL     1       8.439  27.625  14.668  0.00  0.00    +0.000 A 
BRANCH  11  14
ATOM     14  N   UNL     1      10.806  27.060  14.342  0.00  0.00    +0.000 N 
ATOM     15  H   UNL     1      10.526  26.407  13.605  0.00  0.00    +0.000 HD
BRANCH  14  16
ATOM     16  S   UNL     1      11.487  26.169  15.587  0.00  0.00    +0.000 S 
ATOM     17  O   UNL     1      12.702  26.773  16.064  0.00  0.00    +0.000 OA
ATOM     18  O   UNL     1      10.528  25.446  16.393  0.00  0.00    +0.000 OA
ATOM     19  C   UNL     1      12.225  24.767  14.803  0.00  0.00    +0.000 C 
ENDBRANCH  14  16
ENDBRANCH  11  14
ENDBRANCH   4   8
BRANCH   3  23
ATOM     20  N   UNL     1       9.887  31.544  22.102  0.00  0.00    +0.000 N 
ATOM     21  N   UNL     1       9.969  31.675  19.734  0.00  0.00    +0.000 NA
ATOM     22  N   UNL     1      10.834  29.805  20.886  0.00  0.00    +0.000 NA
ATOM     23  C   UNL     1      10.321  31.109  18.566  0.00  0.00    +0.000 A 
ATOM     24  C   UNL     1      10.238  31.001  20.866  0.00  0.00    +0.000 A 
ATOM     25  C   UNL     1      10.943  29.883  18.485  0.00  0.00    +0.000 A 
ATOM     26  C   UNL     1      11.171  29.278  19.695  0.00  0.00    +0.000 A 
ATOM     27  H   UNL     1      10.370  31.024  22.827  0.00  0.00    +0.000 HD
BRANCH  20  28
ATOM     28  C   UNL     1       9.844  32.998  22.197  0.00  0.00    +0.000 C 
BRANCH  28  29
ATOM     29  C   UNL     1       9.678  34.401  22.322  0.00  0.00    +0.000 C 
ATOM     30  C   UNL     1       8.501  34.899  23.105  0.00  0.00    +0.000 C 
ATOM     31  O   UNL     1      12.096  34.032  20.809  0.00  0.00    +0.000 OA
ATOM     32  N   UNL     1      10.602  35.327  21.977  0.00  0.00    +0.000 N 
ATOM     33  C   UNL     1      11.767  35.113  21.286  0.00  0.00    +0.000 C 
ATOM     34  H   UNL     1      10.410  36.269  22.305  0.00  0.00    +0.000 HD
BRANCH  33  35
ATOM     35  O   UNL     1      12.481  36.286  21.205  0.00  0.00    +0.000 OA
ATOM     36  C   UNL     1      12.243  37.277  22.172  0.00  0.00    +0.000 C 
ENDBRANCH  33  35
ENDBRANCH  28  29
ENDBRANCH  20  28
ENDBRANCH   3  23
BRANCH   1  37
ATOM     37  C   UNL     1       9.794  35.027  15.623  0.00  0.00    +0.000 C 
ATOM     38  C   UNL     1       8.576  35.925  15.754  0.00  0.00    +0.000 C 
ATOM     39  C   UNL     1      11.036  35.681  15.053  0.00  0.00    +0.000 C 
ENDBRANCH   1  37
TORSDOF 8
ENDMDL
