MODEL 1
REMARK VINA RESULT:      -7.9      0.000      0.000
REMARK  Name = 5109870_Ethoxyphenyl.pdbqt.pdb
REMARK  6 active torsions:
REMARK  status: ('A' for Active; 'I' for Inactive)
REMARK    1  A    between atoms: N_2  and  C_22
REMARK    2  A    between atoms: C_3  and  O_11
REMARK    3  A    between atoms: C_3  and  C_13
REMARK    4  A    between atoms: C_16  and  N_19
REMARK    5  A    between atoms: C_25  and  O_28
REMARK    6  A    between atoms: O_28  and  C_29
REMARK                            x       y       z     vdW  Elec       q    Type
REMARK                         _______ _______ _______ _____ _____    ______ ____
ROOT
ATOM      1  N   UNL     1       5.265  31.208  15.469  0.00  0.00    +0.000 N 
ATOM      2  N   UNL     1       6.313  33.229  16.226  0.00  0.00    +0.000 N 
ATOM      3  C   UNL     1       4.341  31.744  16.497  0.00  0.00    +0.000 C 
ATOM      4  C   UNL     1       6.491  32.066  15.503  0.00  0.00    +0.000 C 
ATOM      5  C   UNL     1       5.006  33.016  16.789  0.00  0.00    +0.000 C 
ATOM      6  C   UNL     1       5.582  29.781  15.498  0.00  0.00    +0.000 C 
ATOM      7  C   UNL     1       7.777  31.507  15.243  0.00  0.00    +0.000 C 
ATOM      8  C   UNL     1       6.600  28.633  15.386  0.00  0.00    +0.000 C 
ATOM      9  C   UNL     1       8.633  30.239  15.091  0.00  0.00    +0.000 C 
ATOM     10  C   UNL     1       8.099  28.812  15.172  0.00  0.00    +0.000 C 
ENDROOT
BRANCH   3  11
ATOM     11  C   UNL     1       2.932  31.873  15.966  0.00  0.00    +0.000 A 
ATOM     12  C   UNL     1       1.873  31.136  16.515  0.00  0.00    +0.000 A 
ATOM     13  C   UNL     1       0.570  31.292  16.049  0.00  0.00    +0.000 A 
ATOM     14  C   UNL     1       0.325  32.207  15.030  0.00  0.00    +0.000 A 
ATOM     15  C   UNL     1       1.350  32.966  14.473  0.00  0.00    +0.000 A 
ATOM     16  C   UNL     1       2.646  32.798  14.951  0.00  0.00    +0.000 A 
BRANCH  14  17
ATOM     17  N   UNL     1      -1.029  32.374  14.538  0.00  0.00    +0.000 N 
ATOM     18  O   UNL     1      -1.637  31.358  14.175  0.00  0.00    +0.000 OA
ATOM     19  O   UNL     1      -1.494  33.522  14.512  0.00  0.00    +0.000 OA
ENDBRANCH  14  17
ENDBRANCH   3  11
BRANCH   2  20
ATOM     20  C   UNL     1       7.220  34.188  16.704  0.00  0.00    +0.000 A 
ATOM     21  C   UNL     1       7.755  34.126  17.995  0.00  0.00    +0.000 A 
ATOM     22  C   UNL     1       8.673  35.071  18.452  0.00  0.00    +0.000 A 
ATOM     23  C   UNL     1       9.087  36.105  17.616  0.00  0.00    +0.000 A 
ATOM     24  C   UNL     1       8.577  36.182  16.324  0.00  0.00    +0.000 A 
ATOM     25  C   UNL     1       7.659  35.232  15.877  0.00  0.00    +0.000 A 
BRANCH  23  26
ATOM     26  O   UNL     1       9.983  37.082  17.967  0.00  0.00    +0.000 OA
BRANCH  26  27
ATOM     27  C   UNL     1       9.777  38.264  17.391  0.00  0.00    +0.000 C 
ATOM     28  C   UNL     1       9.535  39.618  16.713  0.00  0.00    +0.000 C 
ENDBRANCH  26  27
ENDBRANCH  23  26
ENDBRANCH   2  20
BRANCH   3  29
ATOM     29  O   UNL     1       4.329  30.976  17.693  0.00  0.00    +0.000 OA
ATOM     30  H   UNL     1       3.489  31.197  18.128  0.00  0.00    +0.000 HD
ENDBRANCH   3  29
TORSDOF 6
ENDMDL
MODEL 2
REMARK VINA RESULT:      -7.8      3.286      8.418
REMARK  Name = 5109870_Ethoxyphenyl.pdbqt.pdb
REMARK  6 active torsions:
REMARK  status: ('A' for Active; 'I' for Inactive)
REMARK    1  A    between atoms: N_2  and  C_22
REMARK    2  A    between atoms: C_3  and  O_11
REMARK    3  A    between atoms: C_3  and  C_13
REMARK    4  A    between atoms: C_16  and  N_19
REMARK    5  A    between atoms: C_25  and  O_28
REMARK    6  A    between atoms: O_28  and  C_29
REMARK                            x       y       z     vdW  Elec       q    Type
REMARK                         _______ _______ _______ _____ _____    ______ ____
ROOT
ATOM      1  N   UNL     1      10.041  31.847  16.393  0.00  0.00    +0.000 N 
ATOM      2  N   UNL     1       7.836  31.054  15.876  0.00  0.00    +0.000 N 
ATOM      3  C   UNL     1       9.624  32.647  15.217  0.00  0.00    +0.000 C 
ATOM      4  C   UNL     1       8.984  30.807  16.603  0.00  0.00    +0.000 C 
ATOM      5  C   UNL     1       8.244  32.177  15.074  0.00  0.00    +0.000 C 
ATOM      6  C   UNL     1      11.389  31.281  16.404  0.00  0.00    +0.000 C 
ATOM      7  C   UNL     1       9.325  29.512  17.093  0.00  0.00    +0.000 C 
ATOM      8  C   UNL     1      12.349  30.113  16.689  0.00  0.00    +0.000 C 
ATOM      9  C   UNL     1      10.433  28.487  17.385  0.00  0.00    +0.000 C 
ATOM     10  C   UNL     1      11.925  28.734  17.185  0.00  0.00    +0.000 C 
ENDROOT
BRANCH   3  11
ATOM     11  C   UNL     1       9.765  34.129  15.475  0.00  0.00    +0.000 A 
ATOM     12  C   UNL     1      10.910  34.835  15.081  0.00  0.00    +0.000 A 
ATOM     13  C   UNL     1      11.014  36.209  15.282  0.00  0.00    +0.000 A 
ATOM     14  C   UNL     1       9.951  36.885  15.875  0.00  0.00    +0.000 A 
ATOM     15  C   UNL     1       8.793  36.218  16.264  0.00  0.00    +0.000 A 
ATOM     16  C   UNL     1       8.706  34.845  16.054  0.00  0.00    +0.000 A 
BRANCH  14  17
ATOM     17  N   UNL     1      10.053  38.315  16.090  0.00  0.00    +0.000 N 
ATOM     18  O   UNL     1       9.047  39.002  15.863  0.00  0.00    +0.000 OA
ATOM     19  O   UNL     1      11.138  38.762  16.488  0.00  0.00    +0.000 OA
ENDBRANCH  14  17
ENDBRANCH   3  11
BRANCH   2  20
ATOM     20  C   UNL     1       6.714  30.260  15.591  0.00  0.00    +0.000 A 
ATOM     21  C   UNL     1       6.784  29.155  14.737  0.00  0.00    +0.000 A 
ATOM     22  C   UNL     1       5.668  28.359  14.479  0.00  0.00    +0.000 A 
ATOM     23  C   UNL     1       4.447  28.649  15.083  0.00  0.00    +0.000 A 
ATOM     24  C   UNL     1       4.355  29.738  15.945  0.00  0.00    +0.000 A 
ATOM     25  C   UNL     1       5.477  30.527  16.196  0.00  0.00    +0.000 A 
BRANCH  23  26
ATOM     26  O   UNL     1       3.293  27.932  14.897  0.00  0.00    +0.000 OA
BRANCH  26  27
ATOM     27  C   UNL     1       2.169  28.618  15.093  0.00  0.00    +0.000 C 
ATOM     28  C   UNL     1       0.866  29.393  15.320  0.00  0.00    +0.000 C 
ENDBRANCH  26  27
ENDBRANCH  23  26
ENDBRANCH   2  20
BRANCH   3  29
ATOM     29  O   UNL     1      10.325  32.303  14.029  0.00  0.00    +0.000 OA
ATOM     30  H   UNL     1      11.187  31.971  14.331  0.00  0.00    +0.000 HD
ENDBRANCH   3  29
TORSDOF 6
ENDMDL
MODEL 3
REMARK VINA RESULT:      -7.8      2.469      8.042
REMARK  Name = 5109870_Ethoxyphenyl.pdbqt.pdb
REMARK  6 active torsions:
REMARK  status: ('A' for Active; 'I' for Inactive)
REMARK    1  A    between atoms: N_2  and  C_22
REMARK    2  A    between atoms: C_3  and  O_11
REMARK    3  A    between atoms: C_3  and  C_13
REMARK    4  A    between atoms: C_16  and  N_19
REMARK    5  A    between atoms: C_25  and  O_28
REMARK    6  A    between atoms: O_28  and  C_29
REMARK                            x       y       z     vdW  Elec       q    Type
REMARK                         _______ _______ _______ _____ _____    ______ ____
ROOT
ATOM      1  N   UNL     1       6.202  30.770  16.100  0.00  0.00    +0.000 N 
ATOM      2  N   UNL     1       4.303  32.233  15.979  0.00  0.00    +0.000 N 
ATOM      3  C   UNL     1       6.762  32.072  15.664  0.00  0.00    +0.000 C 
ATOM      4  C   UNL     1       4.712  30.918  16.093  0.00  0.00    +0.000 C 
ATOM      5  C   UNL     1       5.557  32.900  15.748  0.00  0.00    +0.000 C 
ATOM      6  C   UNL     1       6.645  29.559  15.411  0.00  0.00    +0.000 C 
ATOM      7  C   UNL     1       3.874  29.816  15.751  0.00  0.00    +0.000 C 
ATOM      8  C   UNL     1       6.338  28.194  14.772  0.00  0.00    +0.000 C 
ATOM      9  C   UNL     1       3.766  28.409  15.142  0.00  0.00    +0.000 C 
ATOM     10  C   UNL     1       4.946  27.586  14.634  0.00  0.00    +0.000 C 
ENDROOT
BRANCH   3  11
ATOM     11  C   UNL     1       7.899  32.514  16.554  0.00  0.00    +0.000 A 
ATOM     12  C   UNL     1       9.113  31.814  16.594  0.00  0.00    +0.000 A 
ATOM     13  C   UNL     1      10.172  32.253  17.384  0.00  0.00    +0.000 A 
ATOM     14  C   UNL     1      10.016  33.415  18.134  0.00  0.00    +0.000 A 
ATOM     15  C   UNL     1       8.830  34.144  18.107  0.00  0.00    +0.000 A 
ATOM     16  C   UNL     1       7.782  33.691  17.311  0.00  0.00    +0.000 A 
BRANCH  14  17
ATOM     17  N   UNL     1      11.113  33.878  18.961  0.00  0.00    +0.000 N 
ATOM     18  O   UNL     1      10.849  34.677  19.871  0.00  0.00    +0.000 OA
ATOM     19  O   UNL     1      12.247  33.446  18.708  0.00  0.00    +0.000 OA
ENDBRANCH  14  17
ENDBRANCH   3  11
BRANCH   2  20
ATOM     20  C   UNL     1       3.052  32.810  15.710  0.00  0.00    +0.000 A 
ATOM     21  C   UNL     1       2.701  33.257  14.432  0.00  0.00    +0.000 A 
ATOM     22  C   UNL     1       1.447  33.808  14.170  0.00  0.00    +0.000 A 
ATOM     23  C   UNL     1       0.504  33.916  15.189  0.00  0.00    +0.000 A 
ATOM     24  C   UNL     1       0.826  33.467  16.466  0.00  0.00    +0.000 A 
ATOM     25  C   UNL     1       2.083  32.918  16.717  0.00  0.00    +0.000 A 
BRANCH  23  26
ATOM     26  O   UNL     1      -0.754  34.439  15.036  0.00  0.00    +0.000 OA
BRANCH  26  27
ATOM     27  C   UNL     1      -1.692  33.556  14.701  0.00  0.00    +0.000 C 
ATOM     28  C   UNL     1      -2.782  32.552  14.309  0.00  0.00    +0.000 C 
ENDBRANCH  26  27
ENDBRANCH  23  26
ENDBRANCH   2  20
BRANCH   3  29
ATOM     29  O   UNL     1       7.193  32.069  14.309  0.00  0.00    +0.000 OA
ATOM     30  H   UNL     1       6.889  31.220  13.948  0.00  0.00    +0.000 HD
ENDBRANCH   3  29
TORSDOF 6
ENDMDL
MODEL 4
REMARK VINA RESULT:      -7.5      4.057      9.226
REMARK  Name = 5109870_Ethoxyphenyl.pdbqt.pdb
REMARK  6 active torsions:
REMARK  status: ('A' for Active; 'I' for Inactive)
REMARK    1  A    between atoms: N_2  and  C_22
REMARK    2  A    between atoms: C_3  and  O_11
REMARK    3  A    between atoms: C_3  and  C_13
REMARK    4  A    between atoms: C_16  and  N_19
REMARK    5  A    between atoms: C_25  and  O_28
REMARK    6  A    between atoms: O_28  and  C_29
REMARK                            x       y       z     vdW  Elec       q    Type
REMARK                         _______ _______ _______ _____ _____    ______ ____
ROOT
ATOM      1  N   UNL     1       8.628  31.039  15.709  0.00  0.00    +0.000 N 
ATOM      2  N   UNL     1       6.457  30.052  15.440  0.00  0.00    +0.000 N 
ATOM      3  C   UNL     1       8.788  29.647  16.194  0.00  0.00    +0.000 C 
ATOM      4  C   UNL     1       7.167  31.237  15.445  0.00  0.00    +0.000 C 
ATOM      5  C   UNL     1       7.463  29.117  15.870  0.00  0.00    +0.000 C 
ATOM      6  C   UNL     1       9.202  32.122  16.506  0.00  0.00    +0.000 C 
ATOM      7  C   UNL     1       6.554  32.504  15.667  0.00  0.00    +0.000 C 
ATOM      8  C   UNL     1       9.103  33.527  17.124  0.00  0.00    +0.000 C 
ATOM      9  C   UNL     1       6.660  33.904  16.294  0.00  0.00    +0.000 C 
ATOM     10  C   UNL     1       7.884  34.439  17.031  0.00  0.00    +0.000 C 
ENDROOT
BRANCH   3  11
ATOM     11  C   UNL     1       9.937  28.947  15.507  0.00  0.00    +0.000 A 
ATOM     12  C   UNL     1      11.040  29.660  15.015  0.00  0.00    +0.000 A 
ATOM     13  C   UNL     1      12.115  29.003  14.422  0.00  0.00    +0.000 A 
ATOM     14  C   UNL     1      12.090  27.615  14.333  0.00  0.00    +0.000 A 
ATOM     15  C   UNL     1      11.019  26.875  14.825  0.00  0.00    +0.000 A 
ATOM     16  C   UNL     1       9.953  27.547  15.415  0.00  0.00    +0.000 A 
BRANCH  14  17
ATOM     17  N   UNL     1      13.205  26.924  13.715  0.00  0.00    +0.000 N 
ATOM     18  O   UNL     1      13.404  25.747  14.045  0.00  0.00    +0.000 OA
ATOM     19  O   UNL     1      13.888  27.553  12.895  0.00  0.00    +0.000 OA
ENDBRANCH  14  17
ENDBRANCH   3  11
BRANCH   2  20
ATOM     20  C   UNL     1       5.080  29.780  15.462  0.00  0.00    +0.000 A 
ATOM     21  C   UNL     1       4.524  28.704  14.763  0.00  0.00    +0.000 A 
ATOM     22  C   UNL     1       3.158  28.429  14.810  0.00  0.00    +0.000 A 
ATOM     23  C   UNL     1       2.310  29.228  15.573  0.00  0.00    +0.000 A 
ATOM     24  C   UNL     1       2.841  30.298  16.287  0.00  0.00    +0.000 A 
ATOM     25  C   UNL     1       4.209  30.564  16.232  0.00  0.00    +0.000 A 
BRANCH  23  26
ATOM     26  O   UNL     1       0.956  29.043  15.687  0.00  0.00    +0.000 OA
BRANCH  26  27
ATOM     27  C   UNL     1       0.276  30.116  16.086  0.00  0.00    +0.000 C 
ATOM     28  C   UNL     1      -0.494  31.357  16.552  0.00  0.00    +0.000 C 
ENDBRANCH  26  27
ENDBRANCH  23  26
ENDBRANCH   2  20
BRANCH   3  29
ATOM     29  O   UNL     1       8.956  29.563  17.604  0.00  0.00    +0.000 OA
ATOM     30  H   UNL     1       9.245  30.449  17.878  0.00  0.00    +0.000 HD
ENDBRANCH   3  29
TORSDOF 6
ENDMDL
MODEL 5
REMARK VINA RESULT:      -7.4      1.807      2.346
REMARK  Name = 5109870_Ethoxyphenyl.pdbqt.pdb
REMARK  6 active torsions:
REMARK  status: ('A' for Active; 'I' for Inactive)
REMARK    1  A    between atoms: N_2  and  C_22
REMARK    2  A    between atoms: C_3  and  O_11
REMARK    3  A    between atoms: C_3  and  C_13
REMARK    4  A    between atoms: C_16  and  N_19
REMARK    5  A    between atoms: C_25  and  O_28
REMARK    6  A    between atoms: O_28  and  C_29
REMARK                            x       y       z     vdW  Elec       q    Type
REMARK                         _______ _______ _______ _____ _____    ______ ____
ROOT
ATOM      1  N   UNL     1       5.400  31.379  15.453  0.00  0.00    +0.000 N 
ATOM      2  N   UNL     1       7.122  32.935  16.061  0.00  0.00    +0.000 N 
ATOM      3  C   UNL     1       4.803  32.189  16.542  0.00  0.00    +0.000 C 
ATOM      4  C   UNL     1       6.839  31.781  15.357  0.00  0.00    +0.000 C 
ATOM      5  C   UNL     1       5.875  33.166  16.740  0.00  0.00    +0.000 C 
ATOM      6  C   UNL     1       5.228  29.927  15.495  0.00  0.00    +0.000 C 
ATOM      7  C   UNL     1       7.838  30.827  15.003  0.00  0.00    +0.000 C 
ATOM      8  C   UNL     1       5.794  28.507  15.328  0.00  0.00    +0.000 C 
ATOM      9  C   UNL     1       8.208  29.347  14.813  0.00  0.00    +0.000 C 
ATOM     10  C   UNL     1       7.242  28.178  14.979  0.00  0.00    +0.000 C 
ENDROOT
BRANCH   3  11
ATOM     11  C   UNL     1       3.474  32.779  16.132  0.00  0.00    +0.000 A 
ATOM     12  C   UNL     1       2.320  32.592  16.906  0.00  0.00    +0.000 A 
ATOM     13  C   UNL     1       1.109  33.176  16.544  0.00  0.00    +0.000 A 
ATOM     14  C   UNL     1       1.057  33.966  15.399  0.00  0.00    +0.000 A 
ATOM     15  C   UNL     1       2.187  34.185  14.617  0.00  0.00    +0.000 A 
ATOM     16  C   UNL     1       3.390  33.595  14.993  0.00  0.00    +0.000 A 
BRANCH  14  17
ATOM     17  N   UNL     1      -0.201  34.576  15.015  0.00  0.00    +0.000 N 
ATOM     18  O   UNL     1      -1.134  33.821  14.706  0.00  0.00    +0.000 OA
ATOM     19  O   UNL     1      -0.266  35.813  15.019  0.00  0.00    +0.000 OA
ENDBRANCH  14  17
ENDBRANCH   3  11
BRANCH   2  20
ATOM     20  C   UNL     1       8.335  33.538  16.431  0.00  0.00    +0.000 A 
ATOM     21  C   UNL     1       9.313  33.876  15.491  0.00  0.00    +0.000 A 
ATOM     22  C   UNL     1      10.505  34.495  15.867  0.00  0.00    +0.000 A 
ATOM     23  C   UNL     1      10.743  34.801  17.205  0.00  0.00    +0.000 A 
ATOM     24  C   UNL     1       9.779  34.484  18.157  0.00  0.00    +0.000 A 
ATOM     25  C   UNL     1       8.591  33.864  17.770  0.00  0.00    +0.000 A 
BRANCH  23  26
ATOM     26  O   UNL     1      11.878  35.407  17.678  0.00  0.00    +0.000 OA
BRANCH  26  27
ATOM     27  C   UNL     1      12.418  34.829  18.748  0.00  0.00    +0.000 C 
ATOM     28  C   UNL     1      13.052  34.176  19.982  0.00  0.00    +0.000 C 
ENDBRANCH  26  27
ENDBRANCH  23  26
ENDBRANCH   2  20
BRANCH   3  29
ATOM     29  O   UNL     1       4.646  31.465  17.756  0.00  0.00    +0.000 OA
ATOM     30  H   UNL     1       4.101  30.695  17.523  0.00  0.00    +0.000 HD
ENDBRANCH   3  29
TORSDOF 6
ENDMDL
MODEL 6
REMARK VINA RESULT:      -7.2      5.664     10.178
REMARK  Name = 5109870_Ethoxyphenyl.pdbqt.pdb
REMARK  6 active torsions:
REMARK  status: ('A' for Active; 'I' for Inactive)
REMARK    1  A    between atoms: N_2  and  C_22
REMARK    2  A    between atoms: C_3  and  O_11
REMARK    3  A    between atoms: C_3  and  C_13
REMARK    4  A    between atoms: C_16  and  N_19
REMARK    5  A    between atoms: C_25  and  O_28
REMARK    6  A    between atoms: O_28  and  C_29
REMARK                            x       y       z     vdW  Elec       q    Type
REMARK                         _______ _______ _______ _____ _____    ______ ____
ROOT
ATOM      1  N   UNL     1      11.735  28.558  15.817  0.00  0.00    +0.000 N 
ATOM      2  N   UNL     1       9.417  28.912  15.305  0.00  0.00    +0.000 N 
ATOM      3  C   UNL     1      11.537  27.892  14.508  0.00  0.00    +0.000 C 
ATOM      4  C   UNL     1      10.381  28.984  16.293  0.00  0.00    +0.000 C 
ATOM      5  C   UNL     1      10.149  28.275  14.242  0.00  0.00    +0.000 C 
ATOM      6  C   UNL     1      12.490  27.849  16.849  0.00  0.00    +0.000 C 
ATOM      7  C   UNL     1      10.064  28.980  17.683  0.00  0.00    +0.000 C 
ATOM      8  C   UNL     1      12.678  27.421  18.315  0.00  0.00    +0.000 C 
ATOM      9  C   UNL     1      10.449  28.524  19.099  0.00  0.00    +0.000 C 
ATOM     10  C   UNL     1      11.712  27.743  19.450  0.00  0.00    +0.000 C 
ENDROOT
BRANCH   3  11
ATOM     11  C   UNL     1      12.536  28.373  13.482  0.00  0.00    +0.000 A 
ATOM     12  C   UNL     1      13.173  27.483  12.606  0.00  0.00    +0.000 A 
ATOM     13  C   UNL     1      14.060  27.940  11.634  0.00  0.00    +0.000 A 
ATOM     14  C   UNL     1      14.300  29.306  11.532  0.00  0.00    +0.000 A 
ATOM     15  C   UNL     1      13.674  30.220  12.374  0.00  0.00    +0.000 A 
ATOM     16  C   UNL     1      12.790  29.746  13.340  0.00  0.00    +0.000 A 
BRANCH  14  17
ATOM     17  N   UNL     1      15.224  29.790  10.524  0.00  0.00    +0.000 N 
ATOM     18  O   UNL     1      15.675  28.965   9.717  0.00  0.00    +0.000 OA
ATOM     19  O   UNL     1      15.504  30.997  10.530  0.00  0.00    +0.000 OA
ENDBRANCH  14  17
ENDBRANCH   3  11
BRANCH   2  20
ATOM     20  C   UNL     1       8.017  28.989  15.350  0.00  0.00    +0.000 A 
ATOM     21  C   UNL     1       7.351  30.122  15.830  0.00  0.00    +0.000 A 
ATOM     22  C   UNL     1       5.958  30.198  15.848  0.00  0.00    +0.000 A 
ATOM     23  C   UNL     1       5.193  29.135  15.374  0.00  0.00    +0.000 A 
ATOM     24  C   UNL     1       5.833  28.002  14.881  0.00  0.00    +0.000 A 
ATOM     25  C   UNL     1       7.227  27.936  14.867  0.00  0.00    +0.000 A 
BRANCH  23  26
ATOM     26  O   UNL     1       3.823  29.109  15.347  0.00  0.00    +0.000 OA
BRANCH  26  27
ATOM     27  C   UNL     1       3.233  30.204  15.820  0.00  0.00    +0.000 C 
ATOM     28  C   UNL     1       2.566  31.475  16.360  0.00  0.00    +0.000 C 
ENDBRANCH  26  27
ENDBRANCH  23  26
ENDBRANCH   2  20
BRANCH   3  29
ATOM     29  O   UNL     1      11.587  26.473  14.590  0.00  0.00    +0.000 OA
ATOM     30  H   UNL     1      12.147  26.196  13.846  0.00  0.00    +0.000 HD
ENDBRANCH   3  29
TORSDOF 6
ENDMDL
MODEL 7
REMARK VINA RESULT:      -7.0      3.894      8.678
REMARK  Name = 5109870_Ethoxyphenyl.pdbqt.pdb
REMARK  6 active torsions:
REMARK  status: ('A' for Active; 'I' for Inactive)
REMARK    1  A    between atoms: N_2  and  C_22
REMARK    2  A    between atoms: C_3  and  O_11
REMARK    3  A    between atoms: C_3  and  C_13
REMARK    4  A    between atoms: C_16  and  N_19
REMARK    5  A    between atoms: C_25  and  O_28
REMARK    6  A    between atoms: O_28  and  C_29
REMARK                            x       y       z     vdW  Elec       q    Type
REMARK                         _______ _______ _______ _____ _____    ______ ____
ROOT
ATOM      1  N   UNL     1       7.592  32.383  15.759  0.00  0.00    +0.000 N 
ATOM      2  N   UNL     1       9.059  30.484  15.712  0.00  0.00    +0.000 N 
ATOM      3  C   UNL     1       8.720  32.761  16.643  0.00  0.00    +0.000 C 
ATOM      4  C   UNL     1       7.797  30.945  15.391  0.00  0.00    +0.000 C 
ATOM      5  C   UNL     1       9.594  31.604  16.440  0.00  0.00    +0.000 C 
ATOM      6  C   UNL     1       6.230  32.651  16.218  0.00  0.00    +0.000 C 
ATOM      7  C   UNL     1       6.682  30.077  15.201  0.00  0.00    +0.000 C 
ATOM      8  C   UNL     1       4.763  32.218  16.385  0.00  0.00    +0.000 C 
ATOM      9  C   UNL     1       5.174  29.845  15.385  0.00  0.00    +0.000 C 
ATOM     10  C   UNL     1       4.201  30.861  15.976  0.00  0.00    +0.000 C 
ENDROOT
BRANCH   3  11
ATOM     11  C   UNL     1       9.320  34.088  16.242  0.00  0.00    +0.000 A 
ATOM     12  C   UNL     1       8.675  35.300  16.526  0.00  0.00    +0.000 A 
ATOM     13  C   UNL     1       9.255  36.520  16.191  0.00  0.00    +0.000 A 
ATOM     14  C   UNL     1      10.504  36.526  15.576  0.00  0.00    +0.000 A 
ATOM     15  C   UNL     1      11.180  35.343  15.294  0.00  0.00    +0.000 A 
ATOM     16  C   UNL     1      10.585  34.132  15.636  0.00  0.00    +0.000 A 
BRANCH  14  17
ATOM     17  N   UNL     1      11.114  37.793  15.223  0.00  0.00    +0.000 N 
ATOM     18  O   UNL     1      10.660  38.816  15.754  0.00  0.00    +0.000 OA
ATOM     19  O   UNL     1      12.052  37.774  14.414  0.00  0.00    +0.000 OA
ENDBRANCH  14  17
ENDBRANCH   3  11
BRANCH   2  20
ATOM     20  C   UNL     1       9.604  29.191  15.761  0.00  0.00    +0.000 A 
ATOM     21  C   UNL     1      10.410  28.765  16.821  0.00  0.00    +0.000 A 
ATOM     22  C   UNL     1      10.927  27.471  16.872  0.00  0.00    +0.000 A 
ATOM     23  C   UNL     1      10.640  26.563  15.855  0.00  0.00    +0.000 A 
ATOM     24  C   UNL     1       9.832  26.960  14.795  0.00  0.00    +0.000 A 
ATOM     25  C   UNL     1       9.319  28.257  14.755  0.00  0.00    +0.000 A 
BRANCH  23  26
ATOM     26  O   UNL     1      11.097  25.271  15.810  0.00  0.00    +0.000 OA
BRANCH  26  27
ATOM     27  C   UNL     1      12.153  25.077  15.023  0.00  0.00    +0.000 C 
ATOM     28  C   UNL     1      13.360  24.846  14.106  0.00  0.00    +0.000 C 
ENDBRANCH  26  27
ENDBRANCH  23  26
ENDBRANCH   2  20
BRANCH   3  29
ATOM     29  O   UNL     1       8.363  32.799  18.019  0.00  0.00    +0.000 OA
ATOM     30  H   UNL     1       8.464  33.729  18.282  0.00  0.00    +0.000 HD
ENDBRANCH   3  29
TORSDOF 6
ENDMDL
MODEL 8
REMARK VINA RESULT:      -6.9      4.951      6.930
REMARK  Name = 5109870_Ethoxyphenyl.pdbqt.pdb
REMARK  6 active torsions:
REMARK  status: ('A' for Active; 'I' for Inactive)
REMARK    1  A    between atoms: N_2  and  C_22
REMARK    2  A    between atoms: C_3  and  O_11
REMARK    3  A    between atoms: C_3  and  C_13
REMARK    4  A    between atoms: C_16  and  N_19
REMARK    5  A    between atoms: C_25  and  O_28
REMARK    6  A    between atoms: O_28  and  C_29
REMARK                            x       y       z     vdW  Elec       q    Type
REMARK                         _______ _______ _______ _____ _____    ______ ____
ROOT
ATOM      1  N   UNL     1       8.924  31.243  16.223  0.00  0.00    +0.000 N 
ATOM      2  N   UNL     1       9.874  30.255  18.193  0.00  0.00    +0.000 N 
ATOM      3  C   UNL     1       8.817  29.782  15.996  0.00  0.00    +0.000 C 
ATOM      4  C   UNL     1       9.723  31.426  17.476  0.00  0.00    +0.000 C 
ATOM      5  C   UNL     1       9.299  29.293  17.289  0.00  0.00    +0.000 C 
ATOM      6  C   UNL     1       9.407  32.081  15.127  0.00  0.00    +0.000 C 
ATOM      7  C   UNL     1      10.602  32.539  17.622  0.00  0.00    +0.000 C 
ATOM      8  C   UNL     1      10.276  33.241  14.611  0.00  0.00    +0.000 C 
ATOM      9  C   UNL     1      11.343  33.703  16.944  0.00  0.00    +0.000 C 
ATOM     10  C   UNL     1      11.225  34.071  15.468  0.00  0.00    +0.000 C 
ENDROOT
BRANCH   3  11
ATOM     11  C   UNL     1       7.403  29.375  15.651  0.00  0.00    +0.000 A 
ATOM     12  C   UNL     1       6.312  30.209  15.932  0.00  0.00    +0.000 A 
ATOM     13  C   UNL     1       5.017  29.846  15.572  0.00  0.00    +0.000 A 
ATOM     14  C   UNL     1       4.815  28.638  14.911  0.00  0.00    +0.000 A 
ATOM     15  C   UNL     1       5.877  27.793  14.603  0.00  0.00    +0.000 A 
ATOM     16  C   UNL     1       7.165  28.172  14.969  0.00  0.00    +0.000 A 
BRANCH  14  17
ATOM     17  N   UNL     1       3.469  28.252  14.535  0.00  0.00    +0.000 N 
ATOM     18  O   UNL     1       3.343  27.454  13.596  0.00  0.00    +0.000 OA
ATOM     19  O   UNL     1       2.529  28.743  15.175  0.00  0.00    +0.000 OA
ENDBRANCH  14  17
ENDBRANCH   3  11
BRANCH   2  20
ATOM     20  C   UNL     1      10.706  29.911  19.270  0.00  0.00    +0.000 A 
ATOM     21  C   UNL     1      11.983  29.373  19.078  0.00  0.00    +0.000 A 
ATOM     22  C   UNL     1      12.812  29.057  20.155  0.00  0.00    +0.000 A 
ATOM     23  C   UNL     1      12.379  29.281  21.460  0.00  0.00    +0.000 A 
ATOM     24  C   UNL     1      11.117  29.826  21.675  0.00  0.00    +0.000 A 
ATOM     25  C   UNL     1      10.297  30.139  20.591  0.00  0.00    +0.000 A 
BRANCH  23  26
ATOM     26  O   UNL     1      13.114  29.007  22.584  0.00  0.00    +0.000 OA
BRANCH  26  27
ATOM     27  C   UNL     1      12.591  28.079  23.383  0.00  0.00    +0.000 C 
ATOM     28  C   UNL     1      11.999  27.014  24.314  0.00  0.00    +0.000 C 
ENDBRANCH  26  27
ENDBRANCH  23  26
ENDBRANCH   2  20
BRANCH   3  29
ATOM     29  O   UNL     1       9.705  29.305  14.993  0.00  0.00    +0.000 OA
ATOM     30  H   UNL     1       9.156  29.193  14.200  0.00  0.00    +0.000 HD
ENDBRANCH   3  29
TORSDOF 6
ENDMDL
MODEL 9
REMARK VINA RESULT:      -6.8      3.790      6.528
REMARK  Name = 5109870_Ethoxyphenyl.pdbqt.pdb
REMARK  6 active torsions:
REMARK  status: ('A' for Active; 'I' for Inactive)
REMARK    1  A    between atoms: N_2  and  C_22
REMARK    2  A    between atoms: C_3  and  O_11
REMARK    3  A    between atoms: C_3  and  C_13
REMARK    4  A    between atoms: C_16  and  N_19
REMARK    5  A    between atoms: C_25  and  O_28
REMARK    6  A    between atoms: O_28  and  C_29
REMARK                            x       y       z     vdW  Elec       q    Type
REMARK                         _______ _______ _______ _____ _____    ______ ____
ROOT
ATOM      1  N   UNL     1       8.321  32.463  16.338  0.00  0.00    +0.000 N 
ATOM      2  N   UNL     1       9.200  30.284  16.825  0.00  0.00    +0.000 N 
ATOM      3  C   UNL     1       7.487  31.537  15.534  0.00  0.00    +0.000 C 
ATOM      4  C   UNL     1       9.422  31.643  16.935  0.00  0.00    +0.000 C 
ATOM      5  C   UNL     1       8.021  30.255  16.001  0.00  0.00    +0.000 C 
ATOM      6  C   UNL     1       8.817  33.681  15.699  0.00  0.00    +0.000 C 
ATOM      7  C   UNL     1      10.719  32.201  17.131  0.00  0.00    +0.000 C 
ATOM      8  C   UNL     1       9.946  34.693  15.441  0.00  0.00    +0.000 C 
ATOM      9  C   UNL     1      11.700  33.344  16.821  0.00  0.00    +0.000 C 
ATOM     10  C   UNL     1      11.367  34.575  15.983  0.00  0.00    +0.000 C 
ENDROOT
BRANCH   3  11
ATOM     11  C   UNL     1       6.014  31.745  15.796  0.00  0.00    +0.000 A 
ATOM     12  C   UNL     1       5.227  30.744  16.384  0.00  0.00    +0.000 A 
ATOM     13  C   UNL     1       3.880  30.959  16.662  0.00  0.00    +0.000 A 
ATOM     14  C   UNL     1       3.318  32.196  16.359  0.00  0.00    +0.000 A 
ATOM     15  C   UNL     1       4.074  33.216  15.789  0.00  0.00    +0.000 A 
ATOM     16  C   UNL     1       5.419  32.985  15.518  0.00  0.00    +0.000 A 
BRANCH  14  17
ATOM     17  N   UNL     1       1.916  32.426  16.644  0.00  0.00    +0.000 N 
ATOM     18  O   UNL     1       1.207  31.437  16.876  0.00  0.00    +0.000 OA
ATOM     19  O   UNL     1       1.512  33.598  16.638  0.00  0.00    +0.000 OA
ENDBRANCH  14  17
ENDBRANCH   3  11
BRANCH   2  20
ATOM     20  C   UNL     1      10.035  29.175  17.029  0.00  0.00    +0.000 A 
ATOM     21  C   UNL     1      10.458  28.788  18.305  0.00  0.00    +0.000 A 
ATOM     22  C   UNL     1      11.269  27.670  18.498  0.00  0.00    +0.000 A 
ATOM     23  C   UNL     1      11.673  26.902  17.409  0.00  0.00    +0.000 A 
ATOM     24  C   UNL     1      11.256  27.260  16.131  0.00  0.00    +0.000 A 
ATOM     25  C   UNL     1      10.445  28.380  15.948  0.00  0.00    +0.000 A 
BRANCH  23  26
ATOM     26  O   UNL     1      12.467  25.787  17.491  0.00  0.00    +0.000 OA
BRANCH  26  27
ATOM     27  C   UNL     1      13.504  25.775  16.656  0.00  0.00    +0.000 C 
ATOM     28  C   UNL     1      14.687  25.762  15.681  0.00  0.00    +0.000 C 
ENDBRANCH  26  27
ENDBRANCH  23  26
ENDBRANCH   2  20
BRANCH   3  29
ATOM     29  O   UNL     1       7.738  31.629  14.137  0.00  0.00    +0.000 OA
ATOM     30  H   UNL     1       8.436  32.299  14.049  0.00  0.00    +0.000 HD
ENDBRANCH   3  29
TORSDOF 6
ENDMDL
