MODEL 1
REMARK VINA RESULT:      -8.7      0.000      0.000
REMARK  Name = 5280445_Luteolin.pdbqt.pdb
REMARK  5 active torsions:
REMARK  status: ('A' for Active; 'I' for Inactive)
REMARK    1  A    between atoms: C_5  and  C_12
REMARK    2  A    between atoms: C_8  and  O_22
REMARK    3  A    between atoms: C_10  and  O_24
REMARK    4  A    between atoms: C_15  and  O_18
REMARK    5  A    between atoms: C_17  and  O_20
REMARK                            x       y       z     vdW  Elec       q    Type
REMARK                         _______ _______ _______ _____ _____    ______ ____
ROOT
ATOM      1  O   UNL     1       3.148  32.035  14.869  0.00  0.00    +0.000 OA
ATOM      2  O   UNL     1      -0.073  30.746  17.080  0.00  0.00    +0.000 OA
ATOM      3  C   UNL     1       0.856  32.497  15.723  0.00  0.00    +0.000 A 
ATOM      4  C   UNL     1       2.016  32.846  14.988  0.00  0.00    +0.000 A 
ATOM      5  C   UNL     1       3.159  30.791  15.512  0.00  0.00    +0.000 A 
ATOM      6  C   UNL     1       0.842  31.191  16.411  0.00  0.00    +0.000 A 
ATOM      7  C   UNL     1       2.075  30.535  16.164  0.00  0.00    +0.000 A 
ATOM      8  C   UNL     1      -0.232  33.365  15.790  0.00  0.00    +0.000 A 
ATOM      9  C   UNL     1       2.066  34.068  14.326  0.00  0.00    +0.000 A 
ATOM     10  C   UNL     1       0.970  34.926  14.402  0.00  0.00    +0.000 A 
ATOM     11  C   UNL     1      -0.174  34.587  15.126  0.00  0.00    +0.000 A 
ENDROOT
BRANCH   5  12
ATOM     12  C   UNL     1       4.341  29.948  15.386  0.00  0.00    +0.000 A 
ATOM     13  C   UNL     1       5.540  30.314  16.004  0.00  0.00    +0.000 A 
ATOM     14  C   UNL     1       4.295  28.758  14.647  0.00  0.00    +0.000 A 
ATOM     15  C   UNL     1       6.661  29.503  15.877  0.00  0.00    +0.000 A 
ATOM     16  C   UNL     1       5.421  27.943  14.519  0.00  0.00    +0.000 A 
ATOM     17  C   UNL     1       6.602  28.325  15.141  0.00  0.00    +0.000 A 
BRANCH  15  18
ATOM     18  O   UNL     1       7.826  29.872  16.486  0.00  0.00    +0.000 OA
ATOM     19  H   UNL     1       7.827  29.399  17.342  0.00  0.00    +0.000 HD
ENDBRANCH  15  18
BRANCH  17  20
ATOM     20  O   UNL     1       7.733  27.561  15.046  0.00  0.00    +0.000 OA
ATOM     21  H   UNL     1       7.648  26.826  15.680  0.00  0.00    +0.000 HD
ENDBRANCH  17  20
ENDBRANCH   5  12
BRANCH   8  22
ATOM     22  O   UNL     1      -1.377  33.085  16.484  0.00  0.00    +0.000 OA
ATOM     23  H   UNL     1      -1.563  32.122  16.434  0.00  0.00    +0.000 HD
ENDBRANCH   8  22
BRANCH  10  24
ATOM     24  O   UNL     1       1.041  36.121  13.746  0.00  0.00    +0.000 OA
ATOM     25  H   UNL     1       0.372  36.719  14.126  0.00  0.00    +0.000 HD
ENDBRANCH  10  24
TORSDOF 5
ENDMDL
MODEL 2
REMARK VINA RESULT:      -8.4      2.627      4.458
REMARK  Name = 5280445_Luteolin.pdbqt.pdb
REMARK  5 active torsions:
REMARK  status: ('A' for Active; 'I' for Inactive)
REMARK    1  A    between atoms: C_5  and  C_12
REMARK    2  A    between atoms: C_8  and  O_22
REMARK    3  A    between atoms: C_10  and  O_24
REMARK    4  A    between atoms: C_15  and  O_18
REMARK    5  A    between atoms: C_17  and  O_20
REMARK                            x       y       z     vdW  Elec       q    Type
REMARK                         _______ _______ _______ _____ _____    ______ ____
ROOT
ATOM      1  O   UNL     1       5.357  29.727  15.781  0.00  0.00    +0.000 OA
ATOM      2  O   UNL     1       3.258  26.766  13.846  0.00  0.00    +0.000 OA
ATOM      3  C   UNL     1       3.145  28.813  15.095  0.00  0.00    +0.000 A 
ATOM      4  C   UNL     1       3.961  29.779  15.735  0.00  0.00    +0.000 A 
ATOM      5  C   UNL     1       6.014  28.656  15.162  0.00  0.00    +0.000 A 
ATOM      6  C   UNL     1       3.813  27.675  14.435  0.00  0.00    +0.000 A 
ATOM      7  C   UNL     1       5.215  27.813  14.599  0.00  0.00    +0.000 A 
ATOM      8  C   UNL     1       1.757  28.942  15.095  0.00  0.00    +0.000 A 
ATOM      9  C   UNL     1       3.368  30.867  16.368  0.00  0.00    +0.000 A 
ATOM     10  C   UNL     1       1.979  30.982  16.359  0.00  0.00    +0.000 A 
ATOM     11  C   UNL     1       1.172  30.032  15.731  0.00  0.00    +0.000 A 
ENDROOT
BRANCH   5  12
ATOM     12  C   UNL     1       7.470  28.604  15.211  0.00  0.00    +0.000 A 
ATOM     13  C   UNL     1       8.151  27.458  14.792  0.00  0.00    +0.000 A 
ATOM     14  C   UNL     1       8.210  29.699  15.678  0.00  0.00    +0.000 A 
ATOM     15  C   UNL     1       9.538  27.418  14.844  0.00  0.00    +0.000 A 
ATOM     16  C   UNL     1       9.603  29.660  15.730  0.00  0.00    +0.000 A 
ATOM     17  C   UNL     1      10.261  28.511  15.309  0.00  0.00    +0.000 A 
BRANCH  15  18
ATOM     18  O   UNL     1      10.191  26.292  14.431  0.00  0.00    +0.000 OA
ATOM     19  H   UNL     1      10.892  26.144  15.098  0.00  0.00    +0.000 HD
ENDBRANCH  15  18
BRANCH  17  20
ATOM     20  O   UNL     1      11.626  28.422  15.340  0.00  0.00    +0.000 OA
ATOM     21  H   UNL     1      11.972  28.929  14.583  0.00  0.00    +0.000 HD
ENDBRANCH  17  20
ENDBRANCH   5  12
BRANCH   8  22
ATOM     22  O   UNL     1       0.919  28.042  14.496  0.00  0.00    +0.000 OA
ATOM     23  H   UNL     1       0.039  28.455  14.357  0.00  0.00    +0.000 HD
ENDBRANCH   8  22
BRANCH  10  24
ATOM     24  O   UNL     1       1.418  32.056  16.987  0.00  0.00    +0.000 OA
ATOM     25  H   UNL     1       1.796  32.867  16.601  0.00  0.00    +0.000 HD
ENDBRANCH  10  24
TORSDOF 5
ENDMDL
MODEL 3
REMARK VINA RESULT:      -8.4      1.457      6.986
REMARK  Name = 5280445_Luteolin.pdbqt.pdb
REMARK  5 active torsions:
REMARK  status: ('A' for Active; 'I' for Inactive)
REMARK    1  A    between atoms: C_5  and  C_12
REMARK    2  A    between atoms: C_8  and  O_22
REMARK    3  A    between atoms: C_10  and  O_24
REMARK    4  A    between atoms: C_15  and  O_18
REMARK    5  A    between atoms: C_17  and  O_20
REMARK                            x       y       z     vdW  Elec       q    Type
REMARK                         _______ _______ _______ _____ _____    ______ ____
ROOT
ATOM      1  O   UNL     1       4.029  30.998  15.872  0.00  0.00    +0.000 OA
ATOM      2  O   UNL     1       4.122  27.278  14.118  0.00  0.00    +0.000 OA
ATOM      3  C   UNL     1       5.387  29.044  15.142  0.00  0.00    +0.000 A 
ATOM      4  C   UNL     1       5.246  30.326  15.730  0.00  0.00    +0.000 A 
ATOM      5  C   UNL     1       2.859  30.383  15.410  0.00  0.00    +0.000 A 
ATOM      6  C   UNL     1       4.170  28.375  14.646  0.00  0.00    +0.000 A 
ATOM      7  C   UNL     1       3.057  29.220  14.886  0.00  0.00    +0.000 A 
ATOM      8  C   UNL     1       6.641  28.443  15.039  0.00  0.00    +0.000 A 
ATOM      9  C   UNL     1       6.371  30.988  16.209  0.00  0.00    +0.000 A 
ATOM     10  C   UNL     1       7.618  30.374  16.100  0.00  0.00    +0.000 A 
ATOM     11  C   UNL     1       7.762  29.112  15.521  0.00  0.00    +0.000 A 
ENDROOT
BRANCH   5  12
ATOM     12  C   UNL     1       1.591  31.086  15.560  0.00  0.00    +0.000 A 
ATOM     13  C   UNL     1       1.337  32.250  14.828  0.00  0.00    +0.000 A 
ATOM     14  C   UNL     1       0.608  30.609  16.437  0.00  0.00    +0.000 A 
ATOM     15  C   UNL     1       0.126  32.913  14.980  0.00  0.00    +0.000 A 
ATOM     16  C   UNL     1      -0.609  31.274  16.589  0.00  0.00    +0.000 A 
ATOM     17  C   UNL     1      -0.842  32.429  15.853  0.00  0.00    +0.000 A 
BRANCH  15  18
ATOM     18  O   UNL     1      -0.110  34.048  14.259  0.00  0.00    +0.000 OA
ATOM     19  H   UNL     1       0.593  34.070  13.579  0.00  0.00    +0.000 HD
ENDBRANCH  15  18
BRANCH  17  20
ATOM     20  O   UNL     1      -2.018  33.118  15.966  0.00  0.00    +0.000 OA
ATOM     21  H   UNL     1      -2.109  33.680  15.175  0.00  0.00    +0.000 HD
ENDBRANCH  17  20
ENDBRANCH   5  12
BRANCH   8  22
ATOM     22  O   UNL     1       6.840  27.210  14.482  0.00  0.00    +0.000 OA
ATOM     23  H   UNL     1       6.431  27.183  13.590  0.00  0.00    +0.000 HD
ENDBRANCH   8  22
BRANCH  10  24
ATOM     24  O   UNL     1       8.709  31.043  16.576  0.00  0.00    +0.000 OA
ATOM     25  H   UNL     1       9.479  30.450  16.519  0.00  0.00    +0.000 HD
ENDBRANCH  10  24
TORSDOF 5
ENDMDL
MODEL 4
REMARK VINA RESULT:      -8.2      1.551      7.153
REMARK  Name = 5280445_Luteolin.pdbqt.pdb
REMARK  5 active torsions:
REMARK  status: ('A' for Active; 'I' for Inactive)
REMARK    1  A    between atoms: C_5  and  C_12
REMARK    2  A    between atoms: C_8  and  O_22
REMARK    3  A    between atoms: C_10  and  O_24
REMARK    4  A    between atoms: C_15  and  O_18
REMARK    5  A    between atoms: C_17  and  O_20
REMARK                            x       y       z     vdW  Elec       q    Type
REMARK                         _______ _______ _______ _____ _____    ______ ____
ROOT
ATOM      1  O   UNL     1       3.153  30.758  15.327  0.00  0.00    +0.000 OA
ATOM      2  O   UNL     1       5.914  33.453  16.752  0.00  0.00    +0.000 OA
ATOM      3  C   UNL     1       5.531  31.251  15.875  0.00  0.00    +0.000 A 
ATOM      4  C   UNL     1       4.502  30.399  15.401  0.00  0.00    +0.000 A 
ATOM      5  C   UNL     1       2.770  32.038  15.744  0.00  0.00    +0.000 A 
ATOM      6  C   UNL     1       5.154  32.606  16.321  0.00  0.00    +0.000 A 
ATOM      7  C   UNL     1       3.753  32.763  16.163  0.00  0.00    +0.000 A 
ATOM      8  C   UNL     1       6.854  30.814  15.915  0.00  0.00    +0.000 A 
ATOM      9  C   UNL     1       4.819  29.115  14.971  0.00  0.00    +0.000 A 
ATOM     10  C   UNL     1       6.146  28.692  15.018  0.00  0.00    +0.000 A 
ATOM     11  C   UNL     1       7.162  29.528  15.484  0.00  0.00    +0.000 A 
ENDROOT
BRANCH   5  12
ATOM     12  C   UNL     1       1.363  32.410  15.665  0.00  0.00    +0.000 A 
ATOM     13  C   UNL     1       0.992  33.696  15.264  0.00  0.00    +0.000 A 
ATOM     14  C   UNL     1       0.360  31.486  15.989  0.00  0.00    +0.000 A 
ATOM     15  C   UNL     1      -0.352  34.040  15.193  0.00  0.00    +0.000 A 
ATOM     16  C   UNL     1      -0.990  31.831  15.918  0.00  0.00    +0.000 A 
ATOM     17  C   UNL     1      -1.337  33.114  15.517  0.00  0.00    +0.000 A 
BRANCH  15  18
ATOM     18  O   UNL     1      -0.700  35.300  14.799  0.00  0.00    +0.000 OA
ATOM     19  H   UNL     1       0.080  35.641  14.317  0.00  0.00    +0.000 HD
ENDBRANCH  15  18
BRANCH  17  20
ATOM     20  O   UNL     1      -2.646  33.502  15.430  0.00  0.00    +0.000 OA
ATOM     21  H   UNL     1      -3.176  32.711  15.224  0.00  0.00    +0.000 HD
ENDBRANCH  17  20
ENDBRANCH   5  12
BRANCH   8  22
ATOM     22  O   UNL     1       7.888  31.589  16.362  0.00  0.00    +0.000 OA
ATOM     23  H   UNL     1       8.209  32.162  15.631  0.00  0.00    +0.000 HD
ENDBRANCH   8  22
BRANCH  10  24
ATOM     24  O   UNL     1       6.434  27.427  14.592  0.00  0.00    +0.000 OA
ATOM     25  H   UNL     1       5.889  27.237  13.808  0.00  0.00    +0.000 HD
ENDBRANCH  10  24
TORSDOF 5
ENDMDL
MODEL 5
REMARK VINA RESULT:      -7.9      2.240      4.299
REMARK  Name = 5280445_Luteolin.pdbqt.pdb
REMARK  5 active torsions:
REMARK  status: ('A' for Active; 'I' for Inactive)
REMARK    1  A    between atoms: C_5  and  C_12
REMARK    2  A    between atoms: C_8  and  O_22
REMARK    3  A    between atoms: C_10  and  O_24
REMARK    4  A    between atoms: C_15  and  O_18
REMARK    5  A    between atoms: C_17  and  O_20
REMARK                            x       y       z     vdW  Elec       q    Type
REMARK                         _______ _______ _______ _____ _____    ______ ____
ROOT
ATOM      1  O   UNL     1       5.205  29.449  15.765  0.00  0.00    +0.000 OA
ATOM      2  O   UNL     1       5.411  33.555  15.901  0.00  0.00    +0.000 OA
ATOM      3  C   UNL     1       3.990  31.620  15.834  0.00  0.00    +0.000 A 
ATOM      4  C   UNL     1       4.029  30.205  15.786  0.00  0.00    +0.000 A 
ATOM      5  C   UNL     1       6.437  30.114  15.790  0.00  0.00    +0.000 A 
ATOM      6  C   UNL     1       5.274  32.345  15.860  0.00  0.00    +0.000 A 
ATOM      7  C   UNL     1       6.331  31.400  15.833  0.00  0.00    +0.000 A 
ATOM      8  C   UNL     1       2.772  32.298  15.853  0.00  0.00    +0.000 A 
ATOM      9  C   UNL     1       2.838  29.486  15.760  0.00  0.00    +0.000 A 
ATOM     10  C   UNL     1       1.629  30.177  15.780  0.00  0.00    +0.000 A 
ATOM     11  C   UNL     1       1.585  31.572  15.826  0.00  0.00    +0.000 A 
ENDROOT
BRANCH   5  12
ATOM     12  C   UNL     1       7.660  29.323  15.768  0.00  0.00    +0.000 A 
ATOM     13  C   UNL     1       7.797  28.256  14.876  0.00  0.00    +0.000 A 
ATOM     14  C   UNL     1       8.719  29.618  16.638  0.00  0.00    +0.000 A 
ATOM     15  C   UNL     1       8.968  27.508  14.864  0.00  0.00    +0.000 A 
ATOM     16  C   UNL     1       9.895  28.868  16.626  0.00  0.00    +0.000 A 
ATOM     17  C   UNL     1      10.011  27.812  15.732  0.00  0.00    +0.000 A 
BRANCH  15  18
ATOM     18  O   UNL     1       9.089  26.469  13.986  0.00  0.00    +0.000 OA
ATOM     19  H   UNL     1       8.764  26.817  13.132  0.00  0.00    +0.000 HD
ENDBRANCH  15  18
BRANCH  17  20
ATOM     20  O   UNL     1      11.143  27.045  15.680  0.00  0.00    +0.000 OA
ATOM     21  H   UNL     1      10.967  26.298  15.081  0.00  0.00    +0.000 HD
ENDBRANCH  17  20
ENDBRANCH   5  12
BRANCH   8  22
ATOM     22  O   UNL     1       2.670  33.661  15.897  0.00  0.00    +0.000 OA
ATOM     23  H   UNL     1       1.821  33.941  15.492  0.00  0.00    +0.000 HD
ENDBRANCH   8  22
BRANCH  10  24
ATOM     24  O   UNL     1       0.472  29.452  15.753  0.00  0.00    +0.000 OA
ATOM     25  H   UNL     1      -0.247  30.035  15.448  0.00  0.00    +0.000 HD
ENDBRANCH  10  24
TORSDOF 5
ENDMDL
MODEL 6
REMARK VINA RESULT:      -7.5      2.810      4.433
REMARK  Name = 5280445_Luteolin.pdbqt.pdb
REMARK  5 active torsions:
REMARK  status: ('A' for Active; 'I' for Inactive)
REMARK    1  A    between atoms: C_5  and  C_12
REMARK    2  A    between atoms: C_8  and  O_22
REMARK    3  A    between atoms: C_10  and  O_24
REMARK    4  A    between atoms: C_15  and  O_18
REMARK    5  A    between atoms: C_17  and  O_20
REMARK                            x       y       z     vdW  Elec       q    Type
REMARK                         _______ _______ _______ _____ _____    ______ ____
ROOT
ATOM      1  O   UNL     1       5.244  28.624  15.067  0.00  0.00    +0.000 OA
ATOM      2  O   UNL     1       4.621  32.173  17.051  0.00  0.00    +0.000 OA
ATOM      3  C   UNL     1       3.618  30.281  15.965  0.00  0.00    +0.000 A 
ATOM      4  C   UNL     1       3.940  29.076  15.293  0.00  0.00    +0.000 A 
ATOM      5  C   UNL     1       6.317  29.397  15.526  0.00  0.00    +0.000 A 
ATOM      6  C   UNL     1       4.730  31.115  16.458  0.00  0.00    +0.000 A 
ATOM      7  C   UNL     1       5.955  30.480  16.128  0.00  0.00    +0.000 A 
ATOM      8  C   UNL     1       2.288  30.659  16.149  0.00  0.00    +0.000 A 
ATOM      9  C   UNL     1       2.919  28.263  14.814  0.00  0.00    +0.000 A 
ATOM     10  C   UNL     1       1.595  28.654  15.005  0.00  0.00    +0.000 A 
ATOM     11  C   UNL     1       1.272  29.840  15.666  0.00  0.00    +0.000 A 
ENDROOT
BRANCH   5  12
ATOM     12  C   UNL     1       7.674  28.923  15.289  0.00  0.00    +0.000 A 
ATOM     13  C   UNL     1       8.769  29.749  15.562  0.00  0.00    +0.000 A 
ATOM     14  C   UNL     1       7.906  27.636  14.787  0.00  0.00    +0.000 A 
ATOM     15  C   UNL     1      10.059  29.287  15.332  0.00  0.00    +0.000 A 
ATOM     16  C   UNL     1       9.201  27.172  14.556  0.00  0.00    +0.000 A 
ATOM     17  C   UNL     1      10.275  28.007  14.834  0.00  0.00    +0.000 A 
BRANCH  15  18
ATOM     18  O   UNL     1      11.120  30.104  15.603  0.00  0.00    +0.000 OA
ATOM     19  H   UNL     1      11.907  29.608  15.300  0.00  0.00    +0.000 HD
ENDBRANCH  15  18
BRANCH  17  20
ATOM     20  O   UNL     1      11.564  27.600  14.625  0.00  0.00    +0.000 OA
ATOM     21  H   UNL     1      11.860  27.978  13.777  0.00  0.00    +0.000 HD
ENDBRANCH  17  20
ENDBRANCH   5  12
BRANCH   8  22
ATOM     22  O   UNL     1       1.916  31.809  16.788  0.00  0.00    +0.000 OA
ATOM     23  H   UNL     1       1.026  32.085  16.476  0.00  0.00    +0.000 HD
ENDBRANCH   8  22
BRANCH  10  24
ATOM     24  O   UNL     1       0.608  27.841  14.526  0.00  0.00    +0.000 OA
ATOM     25  H   UNL     1       0.218  27.359  15.277  0.00  0.00    +0.000 HD
ENDBRANCH  10  24
TORSDOF 5
ENDMDL
MODEL 7
REMARK VINA RESULT:      -7.4      3.246      5.104
REMARK  Name = 5280445_Luteolin.pdbqt.pdb
REMARK  5 active torsions:
REMARK  status: ('A' for Active; 'I' for Inactive)
REMARK    1  A    between atoms: C_5  and  C_12
REMARK    2  A    between atoms: C_8  and  O_22
REMARK    3  A    between atoms: C_10  and  O_24
REMARK    4  A    between atoms: C_15  and  O_18
REMARK    5  A    between atoms: C_17  and  O_20
REMARK                            x       y       z     vdW  Elec       q    Type
REMARK                         _______ _______ _______ _____ _____    ______ ____
ROOT
ATOM      1  O   UNL     1       5.391  30.749  15.377  0.00  0.00    +0.000 OA
ATOM      2  O   UNL     1       2.051  32.489  17.030  0.00  0.00    +0.000 OA
ATOM      3  C   UNL     1       2.950  30.606  15.843  0.00  0.00    +0.000 A 
ATOM      4  C   UNL     1       4.158  30.094  15.306  0.00  0.00    +0.000 A 
ATOM      5  C   UNL     1       5.461  31.993  16.015  0.00  0.00    +0.000 A 
ATOM      6  C   UNL     1       2.996  31.916  16.520  0.00  0.00    +0.000 A 
ATOM      7  C   UNL     1       4.328  32.401  16.480  0.00  0.00    +0.000 A 
ATOM      8  C   UNL     1       1.761  29.887  15.729  0.00  0.00    +0.000 A 
ATOM      9  C   UNL     1       4.154  28.863  14.661  0.00  0.00    +0.000 A 
ATOM     10  C   UNL     1       2.958  28.156  14.555  0.00  0.00    +0.000 A 
ATOM     11  C   UNL     1       1.766  28.656  15.081  0.00  0.00    +0.000 A 
ENDROOT
BRANCH   5  12
ATOM     12  C   UNL     1       6.748  32.672  16.087  0.00  0.00    +0.000 A 
ATOM     13  C   UNL     1       6.836  33.968  16.606  0.00  0.00    +0.000 A 
ATOM     14  C   UNL     1       7.917  32.041  15.641  0.00  0.00    +0.000 A 
ATOM     15  C   UNL     1       8.068  34.606  16.670  0.00  0.00    +0.000 A 
ATOM     16  C   UNL     1       9.154  32.682  15.705  0.00  0.00    +0.000 A 
ATOM     17  C   UNL     1       9.220  33.969  16.224  0.00  0.00    +0.000 A 
BRANCH  15  18
ATOM     18  O   UNL     1       8.139  35.871  17.179  0.00  0.00    +0.000 OA
ATOM     19  H   UNL     1       8.976  36.240  16.831  0.00  0.00    +0.000 HD
ENDBRANCH  15  18
BRANCH  17  20
ATOM     20  O   UNL     1      10.408  34.641  16.309  0.00  0.00    +0.000 OA
ATOM     21  H   UNL     1      10.354  35.242  17.074  0.00  0.00    +0.000 HD
ENDBRANCH  17  20
ENDBRANCH   5  12
BRANCH   8  22
ATOM     22  O   UNL     1       0.566  30.329  16.225  0.00  0.00    +0.000 OA
ATOM     23  H   UNL     1       0.482  31.295  16.070  0.00  0.00    +0.000 HD
ENDBRANCH   8  22
BRANCH  10  24
ATOM     24  O   UNL     1       2.977  26.949  13.916  0.00  0.00    +0.000 OA
ATOM     25  H   UNL     1       3.903  26.725  13.714  0.00  0.00    +0.000 HD
ENDBRANCH  10  24
TORSDOF 5
ENDMDL
MODEL 8
REMARK VINA RESULT:      -7.1     18.747     18.935
REMARK  Name = 5280445_Luteolin.pdbqt.pdb
REMARK  5 active torsions:
REMARK  status: ('A' for Active; 'I' for Inactive)
REMARK    1  A    between atoms: C_5  and  C_12
REMARK    2  A    between atoms: C_8  and  O_22
REMARK    3  A    between atoms: C_10  and  O_24
REMARK    4  A    between atoms: C_15  and  O_18
REMARK    5  A    between atoms: C_17  and  O_20
REMARK                            x       y       z     vdW  Elec       q    Type
REMARK                         _______ _______ _______ _____ _____    ______ ____
ROOT
ATOM      1  O   UNL     1      13.390  46.189  10.182  0.00  0.00    +0.000 OA
ATOM      2  O   UNL     1      13.719  46.689  14.252  0.00  0.00    +0.000 OA
ATOM      3  C   UNL     1      12.445  47.157  12.271  0.00  0.00    +0.000 A 
ATOM      4  C   UNL     1      12.425  46.927  10.873  0.00  0.00    +0.000 A 
ATOM      5  C   UNL     1      14.457  45.633  10.898  0.00  0.00    +0.000 A 
ATOM      6  C   UNL     1      13.558  46.582  13.049  0.00  0.00    +0.000 A 
ATOM      7  C   UNL     1      14.416  45.880  12.165  0.00  0.00    +0.000 A 
ATOM      8  C   UNL     1      11.439  47.905  12.883  0.00  0.00    +0.000 A 
ATOM      9  C   UNL     1      11.390  47.453  10.106  0.00  0.00    +0.000 A 
ATOM     10  C   UNL     1      10.393  48.198  10.732  0.00  0.00    +0.000 A 
ATOM     11  C   UNL     1      10.409  48.428  12.109  0.00  0.00    +0.000 A 
ENDROOT
BRANCH   5  12
ATOM     12  C   UNL     1      15.462  44.865  10.175  0.00  0.00    +0.000 A 
ATOM     13  C   UNL     1      15.190  44.374   8.895  0.00  0.00    +0.000 A 
ATOM     14  C   UNL     1      16.715  44.606  10.748  0.00  0.00    +0.000 A 
ATOM     15  C   UNL     1      16.155  43.641   8.214  0.00  0.00    +0.000 A 
ATOM     16  C   UNL     1      17.684  43.871  10.065  0.00  0.00    +0.000 A 
ATOM     17  C   UNL     1      17.394  43.392   8.794  0.00  0.00    +0.000 A 
BRANCH  15  18
ATOM     18  O   UNL     1      15.877  43.168   6.964  0.00  0.00    +0.000 OA
ATOM     19  H   UNL     1      16.585  43.527   6.392  0.00  0.00    +0.000 HD
ENDBRANCH  15  18
BRANCH  17  20
ATOM     20  O   UNL     1      18.310  42.666   8.082  0.00  0.00    +0.000 OA
ATOM     21  H   UNL     1      18.993  43.284   7.763  0.00  0.00    +0.000 HD
ENDBRANCH  17  20
ENDBRANCH   5  12
BRANCH   8  22
ATOM     22  O   UNL     1      11.405  48.161  14.226  0.00  0.00    +0.000 OA
ATOM     23  H   UNL     1      11.275  49.123  14.374  0.00  0.00    +0.000 HD
ENDBRANCH   8  22
BRANCH  10  24
ATOM     24  O   UNL     1       9.388  48.706   9.960  0.00  0.00    +0.000 OA
ATOM     25  H   UNL     1       9.789  49.203   9.225  0.00  0.00    +0.000 HD
ENDBRANCH  10  24
TORSDOF 5
ENDMDL
MODEL 9
REMARK VINA RESULT:      -7.1      8.908     12.231
REMARK  Name = 5280445_Luteolin.pdbqt.pdb
REMARK  5 active torsions:
REMARK  status: ('A' for Active; 'I' for Inactive)
REMARK    1  A    between atoms: C_5  and  C_12
REMARK    2  A    between atoms: C_8  and  O_22
REMARK    3  A    between atoms: C_10  and  O_24
REMARK    4  A    between atoms: C_15  and  O_18
REMARK    5  A    between atoms: C_17  and  O_20
REMARK                            x       y       z     vdW  Elec       q    Type
REMARK                         _______ _______ _______ _____ _____    ______ ____
ROOT
ATOM      1  O   UNL     1       1.521  42.127  15.974  0.00  0.00    +0.000 OA
ATOM      2  O   UNL     1      -0.586  44.674  18.421  0.00  0.00    +0.000 OA
ATOM      3  C   UNL     1       1.516  44.191  17.365  0.00  0.00    +0.000 A 
ATOM      4  C   UNL     1       2.150  43.252  16.514  0.00  0.00    +0.000 A 
ATOM      5  C   UNL     1       0.176  41.891  16.282  0.00  0.00    +0.000 A 
ATOM      6  C   UNL     1       0.098  43.965  17.706  0.00  0.00    +0.000 A 
ATOM      7  C   UNL     1      -0.342  42.781  17.061  0.00  0.00    +0.000 A 
ATOM      8  C   UNL     1       2.217  45.289  17.861  0.00  0.00    +0.000 A 
ATOM      9  C   UNL     1       3.486  43.431  16.170  0.00  0.00    +0.000 A 
ATOM     10  C   UNL     1       4.173  44.534  16.673  0.00  0.00    +0.000 A 
ATOM     11  C   UNL     1       3.553  45.461  17.513  0.00  0.00    +0.000 A 
ENDROOT
BRANCH   5  12
ATOM     12  C   UNL     1      -0.477  40.717  15.718  0.00  0.00    +0.000 A 
ATOM     13  C   UNL     1      -1.181  40.810  14.514  0.00  0.00    +0.000 A 
ATOM     14  C   UNL     1      -0.411  39.478  16.369  0.00  0.00    +0.000 A 
ATOM     15  C   UNL     1      -1.801  39.685  13.984  0.00  0.00    +0.000 A 
ATOM     16  C   UNL     1      -1.033  38.348  15.838  0.00  0.00    +0.000 A 
ATOM     17  C   UNL     1      -1.727  38.461  14.641  0.00  0.00    +0.000 A 
BRANCH  15  18
ATOM     18  O   UNL     1      -2.485  39.789  12.807  0.00  0.00    +0.000 OA
ATOM     19  H   UNL     1      -2.975  38.947  12.721  0.00  0.00    +0.000 HD
ENDBRANCH  15  18
BRANCH  17  20
ATOM     20  O   UNL     1      -2.354  37.383  14.078  0.00  0.00    +0.000 OA
ATOM     21  H   UNL     1      -2.193  36.614  14.654  0.00  0.00    +0.000 HD
ENDBRANCH  17  20
ENDBRANCH   5  12
BRANCH   8  22
ATOM     22  O   UNL     1       1.660  46.226  18.686  0.00  0.00    +0.000 OA
ATOM     23  H   UNL     1       1.790  47.121  18.302  0.00  0.00    +0.000 HD
ENDBRANCH   8  22
BRANCH  10  24
ATOM     24  O   UNL     1       5.484  44.690  16.324  0.00  0.00    +0.000 OA
ATOM     25  H   UNL     1       5.525  45.272  15.544  0.00  0.00    +0.000 HD
ENDBRANCH  10  24
TORSDOF 5
ENDMDL
