MODEL 1
REMARK VINA RESULT:      -7.0      0.000      0.000
REMARK  Name = 5281224_Astaxanthin.pdbqt.pdb
REMARK  16 active torsions:
REMARK  status: ('A' for Active; 'I' for Inactive)
REMARK    1  A    between atoms: C_1  and  C_5
REMARK    2  A    between atoms: C_2  and  C_27
REMARK    3  A    between atoms: C_3  and  C_5
REMARK    4  A    between atoms: C_3  and  C_7
REMARK    5  A    between atoms: C_6  and  C_10
REMARK    6  A    between atoms: C_8  and  C_10
REMARK    7  A    between atoms: C_8  and  C_12
REMARK    8  A    between atoms: C_11  and  C_16
REMARK    9  A    between atoms: C_17  and  O_23
REMARK   10  A    between atoms: C_25  and  C_27
REMARK   11  A    between atoms: C_25  and  C_29
REMARK   12  A    between atoms: C_28  and  C_32
REMARK   13  A    between atoms: C_30  and  C_32
REMARK   14  A    between atoms: C_30  and  C_34
REMARK   15  A    between atoms: C_33  and  C_38
REMARK   16  A    between atoms: C_39  and  O_45
REMARK                            x       y       z     vdW  Elec       q    Type
REMARK                         _______ _______ _______ _____ _____    ______ ____
ROOT
ATOM      1  C   UNL     1       7.906  50.988  18.681  0.00  0.00    +0.000 C 
ATOM      2  C   UNL     1       7.100  50.182  19.056  0.00  0.00    +0.000 C 
ENDROOT
BRANCH   2   3
ATOM      3  C   UNL     1       6.067  49.150  19.528  0.00  0.00    +0.000 C 
BRANCH   3   4
ATOM      4  C   UNL     1       5.199  48.277  19.930  0.00  0.00    +0.000 C 
ATOM      5  C   UNL     1       4.705  48.311  21.345  0.00  0.00    +0.000 C 
BRANCH   4   7
ATOM      6  C   UNL     1       4.424  46.369  18.317  0.00  0.00    +0.000 C 
ATOM      7  C   UNL     1       4.778  47.244  19.059  0.00  0.00    +0.000 C 
BRANCH   6   8
ATOM      8  C   UNL     1       3.975  45.252  17.368  0.00  0.00    +0.000 C 
BRANCH   8   9
ATOM      9  C   UNL     1       3.598  44.301  16.570  0.00  0.00    +0.000 C 
ATOM     10  C   UNL     1       4.549  43.768  15.542  0.00  0.00    +0.000 C 
BRANCH   9  12
ATOM     11  C   UNL     1       1.293  43.111  16.936  0.00  0.00    +0.000 C 
ATOM     12  C   UNL     1       2.347  43.668  16.773  0.00  0.00    +0.000 C 
BRANCH  11  16
ATOM     13  O   UNL     1      -2.778  42.298  19.541  0.00  0.00    +0.000 OA
ATOM     14  C   UNL     1      -0.403  41.406  16.040  0.00  0.00    +0.000 C 
ATOM     15  C   UNL     1      -1.685  40.891  16.488  0.00  0.00    +0.000 C 
ATOM     16  C   UNL     1       0.029  42.427  17.124  0.00  0.00    +0.000 C 
ATOM     17  C   UNL     1      -2.553  41.070  17.561  0.00  0.00    +0.000 C 
ATOM     18  C   UNL     1      -0.566  42.141  14.689  0.00  0.00    +0.000 C 
ATOM     19  C   UNL     1       0.635  40.264  15.967  0.00  0.00    +0.000 C 
ATOM     20  C   UNL     1      -0.731  42.701  18.225  0.00  0.00    +0.000 C 
ATOM     21  C   UNL     1      -2.088  42.059  18.559  0.00  0.00    +0.000 C 
ATOM     22  C   UNL     1      -0.221  43.741  19.232  0.00  0.00    +0.000 C 
BRANCH  17  23
ATOM     23  O   UNL     1      -3.738  40.396  17.684  0.00  0.00    +0.000 OA
ATOM     24  H   UNL     1      -4.490  40.964  17.417  0.00  0.00    +0.000 HD
ENDBRANCH  17  23
ENDBRANCH  11  16
ENDBRANCH   9  12
ENDBRANCH   8   9
ENDBRANCH   6   8
ENDBRANCH   4   7
ENDBRANCH   3   4
ENDBRANCH   2   3
BRANCH   1  25
ATOM     25  C   UNL     1       8.932  52.017  18.193  0.00  0.00    +0.000 C 
BRANCH  25  26
ATOM     26  C   UNL     1       9.799  52.890  17.784  0.00  0.00    +0.000 C 
ATOM     27  C   UNL     1       9.813  54.265  18.381  0.00  0.00    +0.000 C 
BRANCH  26  29
ATOM     28  C   UNL     1      11.415  52.305  15.812  0.00  0.00    +0.000 C 
ATOM     29  C   UNL     1      10.671  52.574  16.716  0.00  0.00    +0.000 C 
BRANCH  28  30
ATOM     30  C   UNL     1      12.367  51.961  14.659  0.00  0.00    +0.000 C 
BRANCH  30  31
ATOM     31  C   UNL     1      13.176  51.667  13.691  0.00  0.00    +0.000 C 
ATOM     32  C   UNL     1      14.457  52.427  13.529  0.00  0.00    +0.000 C 
BRANCH  31  34
ATOM     33  C   UNL     1      12.690  49.561  12.210  0.00  0.00    +0.000 C 
ATOM     34  C   UNL     1      12.924  50.527  12.887  0.00  0.00    +0.000 C 
BRANCH  33  38
ATOM     35  O   UNL     1      13.947  46.321   8.754  0.00  0.00    +0.000 OA
ATOM     36  C   UNL     1      11.021  47.702  11.622  0.00  0.00    +0.000 C 
ATOM     37  C   UNL     1      11.003  46.586  10.692  0.00  0.00    +0.000 C 
ATOM     38  C   UNL     1      12.390  48.394  11.402  0.00  0.00    +0.000 C 
ATOM     39  C   UNL     1      11.841  46.028   9.730  0.00  0.00    +0.000 C 
ATOM     40  C   UNL     1      10.945  47.184  13.078  0.00  0.00    +0.000 C 
ATOM     41  C   UNL     1       9.883  48.692  11.288  0.00  0.00    +0.000 C 
ATOM     42  C   UNL     1      13.307  47.948  10.494  0.00  0.00    +0.000 C 
ATOM     43  C   UNL     1      13.132  46.731   9.571  0.00  0.00    +0.000 C 
ATOM     44  C   UNL     1      14.640  48.697  10.364  0.00  0.00    +0.000 C 
BRANCH  39  45
ATOM     45  O   UNL     1      11.504  44.922   8.998  0.00  0.00    +0.000 OA
ATOM     46  H   UNL     1      11.624  45.091   8.041  0.00  0.00    +0.000 HD
ENDBRANCH  39  45
ENDBRANCH  33  38
ENDBRANCH  31  34
ENDBRANCH  30  31
ENDBRANCH  28  30
ENDBRANCH  26  29
ENDBRANCH  25  26
ENDBRANCH   1  25
TORSDOF 16
ENDMDL
MODEL 2
REMARK VINA RESULT:      -7.0      9.037     20.167
REMARK  Name = 5281224_Astaxanthin.pdbqt.pdb
REMARK  16 active torsions:
REMARK  status: ('A' for Active; 'I' for Inactive)
REMARK    1  A    between atoms: C_1  and  C_5
REMARK    2  A    between atoms: C_2  and  C_27
REMARK    3  A    between atoms: C_3  and  C_5
REMARK    4  A    between atoms: C_3  and  C_7
REMARK    5  A    between atoms: C_6  and  C_10
REMARK    6  A    between atoms: C_8  and  C_10
REMARK    7  A    between atoms: C_8  and  C_12
REMARK    8  A    between atoms: C_11  and  C_16
REMARK    9  A    between atoms: C_17  and  O_23
REMARK   10  A    between atoms: C_25  and  C_27
REMARK   11  A    between atoms: C_25  and  C_29
REMARK   12  A    between atoms: C_28  and  C_32
REMARK   13  A    between atoms: C_30  and  C_32
REMARK   14  A    between atoms: C_30  and  C_34
REMARK   15  A    between atoms: C_33  and  C_38
REMARK   16  A    between atoms: C_39  and  O_45
REMARK                            x       y       z     vdW  Elec       q    Type
REMARK                         _______ _______ _______ _____ _____    ______ ____
ROOT
ATOM      1  C   UNL     1      -8.550  43.776  21.357  0.00  0.00    +0.000 C 
ATOM      2  C   UNL     1      -7.500  44.170  21.784  0.00  0.00    +0.000 C 
ENDROOT
BRANCH   2   3
ATOM      3  C   UNL     1      -6.154  44.666  22.327  0.00  0.00    +0.000 C 
BRANCH   3   4
ATOM      4  C   UNL     1      -5.018  45.082  22.790  0.00  0.00    +0.000 C 
ATOM      5  C   UNL     1      -4.959  46.332  23.616  0.00  0.00    +0.000 C 
BRANCH   4   7
ATOM      6  C   UNL     1      -2.813  43.820  22.166  0.00  0.00    +0.000 C 
ATOM      7  C   UNL     1      -3.824  44.401  22.451  0.00  0.00    +0.000 C 
BRANCH   6   8
ATOM      8  C   UNL     1      -1.523  43.076  21.802  0.00  0.00    +0.000 C 
BRANCH   8   9
ATOM      9  C   UNL     1      -0.435  42.439  21.497  0.00  0.00    +0.000 C 
ATOM     10  C   UNL     1      -0.079  41.177  22.222  0.00  0.00    +0.000 C 
BRANCH   9  12
ATOM     11  C   UNL     1       0.971  43.192  19.418  0.00  0.00    +0.000 C 
ATOM     12  C   UNL     1       0.332  42.853  20.380  0.00  0.00    +0.000 C 
BRANCH  11  16
ATOM     13  O   UNL     1       3.837  42.066  15.605  0.00  0.00    +0.000 OA
ATOM     14  C   UNL     1       1.748  45.093  17.879  0.00  0.00    +0.000 C 
ATOM     15  C   UNL     1       2.574  45.185  16.687  0.00  0.00    +0.000 C 
ATOM     16  C   UNL     1       1.732  43.588  18.250  0.00  0.00    +0.000 C 
ATOM     17  C   UNL     1       3.297  44.329  15.862  0.00  0.00    +0.000 C 
ATOM     18  C   UNL     1       0.304  45.551  17.564  0.00  0.00    +0.000 C 
ATOM     19  C   UNL     1       2.383  45.900  19.032  0.00  0.00    +0.000 C 
ATOM     20  C   UNL     1       2.395  42.641  17.522  0.00  0.00    +0.000 C 
ATOM     21  C   UNL     1       3.240  42.906  16.265  0.00  0.00    +0.000 C 
ATOM     22  C   UNL     1       2.303  41.174  17.966  0.00  0.00    +0.000 C 
BRANCH  17  23
ATOM     23  O   UNL     1       3.996  44.761  14.767  0.00  0.00    +0.000 OA
ATOM     24  H   UNL     1       3.850  45.717  14.617  0.00  0.00    +0.000 HD
ENDBRANCH  17  23
ENDBRANCH  11  16
ENDBRANCH   9  12
ENDBRANCH   8   9
ENDBRANCH   6   8
ENDBRANCH   4   7
ENDBRANCH   3   4
ENDBRANCH   2   3
BRANCH   1  25
ATOM     25  C   UNL     1      -9.888  43.263  20.810  0.00  0.00    +0.000 C 
BRANCH  25  26
ATOM     26  C   UNL     1     -11.016  42.828  20.344  0.00  0.00    +0.000 C 
ATOM     27  C   UNL     1     -12.227  42.796  21.227  0.00  0.00    +0.000 C 
BRANCH  26  29
ATOM     28  C   UNL     1     -11.139  41.859  17.917  0.00  0.00    +0.000 C 
ATOM     29  C   UNL     1     -11.084  42.304  19.032  0.00  0.00    +0.000 C 
BRANCH  28  30
ATOM     30  C   UNL     1     -11.207  41.293  16.493  0.00  0.00    +0.000 C 
BRANCH  30  31
ATOM     31  C   UNL     1     -11.255  40.816  15.290  0.00  0.00    +0.000 C 
ATOM     32  C   UNL     1      -9.985  40.518  14.551  0.00  0.00    +0.000 C 
BRANCH  31  34
ATOM     33  C   UNL     1     -13.555  40.113  14.251  0.00  0.00    +0.000 C 
ATOM     34  C   UNL     1     -12.501  40.428  14.737  0.00  0.00    +0.000 C 
BRANCH  33  38
ATOM     35  O   UNL     1     -18.451  40.318  14.162  0.00  0.00    +0.000 OA
ATOM     36  C   UNL     1     -14.791  38.840  12.396  0.00  0.00    +0.000 C 
ATOM     37  C   UNL     1     -16.184  38.648  12.027  0.00  0.00    +0.000 C 
ATOM     38  C   UNL     1     -14.825  39.748  13.652  0.00  0.00    +0.000 C 
ATOM     39  C   UNL     1     -17.438  39.042  12.482  0.00  0.00    +0.000 C 
ATOM     40  C   UNL     1     -14.036  39.574  11.262  0.00  0.00    +0.000 C 
ATOM     41  C   UNL     1     -14.143  37.485  12.756  0.00  0.00    +0.000 C 
ATOM     42  C   UNL     1     -15.987  40.210  14.200  0.00  0.00    +0.000 C 
ATOM     43  C   UNL     1     -17.402  39.909  13.680  0.00  0.00    +0.000 C 
ATOM     44  C   UNL     1     -15.910  41.116  15.437  0.00  0.00    +0.000 C 
BRANCH  39  45
ATOM     45  O   UNL     1     -18.605  38.667  11.874  0.00  0.00    +0.000 OA
ATOM     46  H   UNL     1     -18.484  37.831  11.377  0.00  0.00    +0.000 HD
ENDBRANCH  39  45
ENDBRANCH  33  38
ENDBRANCH  31  34
ENDBRANCH  30  31
ENDBRANCH  28  30
ENDBRANCH  26  29
ENDBRANCH  25  26
ENDBRANCH   1  25
TORSDOF 16
ENDMDL
MODEL 3
REMARK VINA RESULT:      -6.9     26.112     35.133
REMARK  Name = 5281224_Astaxanthin.pdbqt.pdb
REMARK  16 active torsions:
REMARK  status: ('A' for Active; 'I' for Inactive)
REMARK    1  A    between atoms: C_1  and  C_5
REMARK    2  A    between atoms: C_2  and  C_27
REMARK    3  A    between atoms: C_3  and  C_5
REMARK    4  A    between atoms: C_3  and  C_7
REMARK    5  A    between atoms: C_6  and  C_10
REMARK    6  A    between atoms: C_8  and  C_10
REMARK    7  A    between atoms: C_8  and  C_12
REMARK    8  A    between atoms: C_11  and  C_16
REMARK    9  A    between atoms: C_17  and  O_23
REMARK   10  A    between atoms: C_25  and  C_27
REMARK   11  A    between atoms: C_25  and  C_29
REMARK   12  A    between atoms: C_28  and  C_32
REMARK   13  A    between atoms: C_30  and  C_32
REMARK   14  A    between atoms: C_30  and  C_34
REMARK   15  A    between atoms: C_33  and  C_38
REMARK   16  A    between atoms: C_39  and  O_45
REMARK                            x       y       z     vdW  Elec       q    Type
REMARK                         _______ _______ _______ _____ _____    ______ ____
ROOT
ATOM      1  C   UNL     1      -7.406  18.715  31.245  0.00  0.00    +0.000 C 
ATOM      2  C   UNL     1      -6.328  18.213  31.086  0.00  0.00    +0.000 C 
ENDROOT
BRANCH   2   3
ATOM      3  C   UNL     1      -4.952  17.569  30.875  0.00  0.00    +0.000 C 
BRANCH   3   4
ATOM      4  C   UNL     1      -3.789  17.024  30.702  0.00  0.00    +0.000 C 
ATOM      5  C   UNL     1      -3.622  15.545  30.882  0.00  0.00    +0.000 C 
BRANCH   4   7
ATOM      6  C   UNL     1      -1.704  18.518  30.186  0.00  0.00    +0.000 C 
ATOM      7  C   UNL     1      -2.662  17.834  30.424  0.00  0.00    +0.000 C 
BRANCH   6   8
ATOM      8  C   UNL     1      -0.480  19.389  29.880  0.00  0.00    +0.000 C 
BRANCH   8   9
ATOM      9  C   UNL     1       0.552  20.131  29.626  0.00  0.00    +0.000 C 
ATOM     10  C   UNL     1       1.862  19.495  29.273  0.00  0.00    +0.000 C 
BRANCH   9  12
ATOM     11  C   UNL     1       0.251  22.728  29.458  0.00  0.00    +0.000 C 
ATOM     12  C   UNL     1       0.402  21.537  29.534  0.00  0.00    +0.000 C 
BRANCH  11  16
ATOM     13  O   UNL     1       1.438  27.298  30.773  0.00  0.00    +0.000 OA
ATOM     14  C   UNL     1      -1.055  24.673  28.408  0.00  0.00    +0.000 C 
ATOM     15  C   UNL     1      -1.021  26.121  28.523  0.00  0.00    +0.000 C 
ATOM     16  C   UNL     1       0.053  24.161  29.366  0.00  0.00    +0.000 C 
ATOM     17  C   UNL     1      -0.302  27.086  29.221  0.00  0.00    +0.000 C 
ATOM     18  C   UNL     1      -0.710  24.244  26.963  0.00  0.00    +0.000 C 
ATOM     19  C   UNL     1      -2.426  24.133  28.872  0.00  0.00    +0.000 C 
ATOM     20  C   UNL     1       0.834  25.001  30.106  0.00  0.00    +0.000 C 
ATOM     21  C   UNL     1       0.742  26.536  30.115  0.00  0.00    +0.000 C 
ATOM     22  C   UNL     1       1.914  24.394  31.013  0.00  0.00    +0.000 C 
BRANCH  17  23
ATOM     23  O   UNL     1      -0.532  28.429  29.091  0.00  0.00    +0.000 OA
ATOM     24  H   UNL     1       0.152  28.946  29.564  0.00  0.00    +0.000 HD
ENDBRANCH  17  23
ENDBRANCH  11  16
ENDBRANCH   9  12
ENDBRANCH   8   9
ENDBRANCH   6   8
ENDBRANCH   4   7
ENDBRANCH   3   4
ENDBRANCH   2   3
BRANCH   1  25
ATOM     25  C   UNL     1      -8.787  19.353  31.439  0.00  0.00    +0.000 C 
BRANCH  25  26
ATOM     26  C   UNL     1      -9.952  19.897  31.603  0.00  0.00    +0.000 C 
ATOM     27  C   UNL     1     -10.138  20.968  32.635  0.00  0.00    +0.000 C 
BRANCH  26  29
ATOM     28  C   UNL     1     -12.010  19.018  30.249  0.00  0.00    +0.000 C 
ATOM     29  C   UNL     1     -11.064  19.421  30.869  0.00  0.00    +0.000 C 
BRANCH  28  30
ATOM     30  C   UNL     1     -13.220  18.505  29.458  0.00  0.00    +0.000 C 
BRANCH  30  31
ATOM     31  C   UNL     1     -14.242  18.065  28.795  0.00  0.00    +0.000 C 
ATOM     32  C   UNL     1     -14.847  16.739  29.146  0.00  0.00    +0.000 C 
BRANCH  31  34
ATOM     33  C   UNL     1     -15.406  19.629  27.044  0.00  0.00    +0.000 C 
ATOM     34  C   UNL     1     -14.881  18.904  27.847  0.00  0.00    +0.000 C 
BRANCH  33  38
ATOM     35  O   UNL     1     -15.080  22.666  23.211  0.00  0.00    +0.000 OA
ATOM     36  C   UNL     1     -17.561  20.708  26.163  0.00  0.00    +0.000 C 
ATOM     37  C   UNL     1     -17.889  21.633  25.090  0.00  0.00    +0.000 C 
ATOM     38  C   UNL     1     -16.025  20.516  26.079  0.00  0.00    +0.000 C 
ATOM     39  C   UNL     1     -17.224  22.331  24.087  0.00  0.00    +0.000 C 
ATOM     40  C   UNL     1     -18.255  19.347  25.924  0.00  0.00    +0.000 C 
ATOM     41  C   UNL     1     -17.928  21.326  27.530  0.00  0.00    +0.000 C 
ATOM     42  C   UNL     1     -15.252  21.138  25.141  0.00  0.00    +0.000 C 
ATOM     43  C   UNL     1     -15.763  22.103  24.057  0.00  0.00    +0.000 C 
ATOM     44  C   UNL     1     -13.741  20.868  25.134  0.00  0.00    +0.000 C 
BRANCH  39  45
ATOM     45  O   UNL     1     -17.863  23.155  23.202  0.00  0.00    +0.000 OA
ATOM     46  H   UNL     1     -18.245  22.639  22.462  0.00  0.00    +0.000 HD
ENDBRANCH  39  45
ENDBRANCH  33  38
ENDBRANCH  31  34
ENDBRANCH  30  31
ENDBRANCH  28  30
ENDBRANCH  26  29
ENDBRANCH  25  26
ENDBRANCH   1  25
TORSDOF 16
ENDMDL
MODEL 4
REMARK VINA RESULT:      -6.8     13.725     18.636
REMARK  Name = 5281224_Astaxanthin.pdbqt.pdb
REMARK  16 active torsions:
REMARK  status: ('A' for Active; 'I' for Inactive)
REMARK    1  A    between atoms: C_1  and  C_5
REMARK    2  A    between atoms: C_2  and  C_27
REMARK    3  A    between atoms: C_3  and  C_5
REMARK    4  A    between atoms: C_3  and  C_7
REMARK    5  A    between atoms: C_6  and  C_10
REMARK    6  A    between atoms: C_8  and  C_10
REMARK    7  A    between atoms: C_8  and  C_12
REMARK    8  A    between atoms: C_11  and  C_16
REMARK    9  A    between atoms: C_17  and  O_23
REMARK   10  A    between atoms: C_25  and  C_27
REMARK   11  A    between atoms: C_25  and  C_29
REMARK   12  A    between atoms: C_28  and  C_32
REMARK   13  A    between atoms: C_30  and  C_32
REMARK   14  A    between atoms: C_30  and  C_34
REMARK   15  A    between atoms: C_33  and  C_38
REMARK   16  A    between atoms: C_39  and  O_45
REMARK                            x       y       z     vdW  Elec       q    Type
REMARK                         _______ _______ _______ _____ _____    ______ ____
ROOT
ATOM      1  C   UNL     1      -2.655  56.770  16.507  0.00  0.00    +0.000 C 
ATOM      2  C   UNL     1      -3.270  57.300  15.623  0.00  0.00    +0.000 C 
ENDROOT
BRANCH   2   3
ATOM      3  C   UNL     1      -4.052  57.986  14.496  0.00  0.00    +0.000 C 
BRANCH   3   4
ATOM      4  C   UNL     1      -4.707  58.567  13.541  0.00  0.00    +0.000 C 
ATOM      5  C   UNL     1      -6.186  58.360  13.415  0.00  0.00    +0.000 C 
BRANCH   4   7
ATOM      6  C   UNL     1      -3.431  59.980  11.747  0.00  0.00    +0.000 C 
ATOM      7  C   UNL     1      -4.015  59.331  12.571  0.00  0.00    +0.000 C 
BRANCH   6   8
ATOM      8  C   UNL     1      -2.689  60.810  10.693  0.00  0.00    +0.000 C 
BRANCH   8   9
ATOM      9  C   UNL     1      -2.067  61.518   9.802  0.00  0.00    +0.000 C 
ATOM     10  C   UNL     1      -2.434  61.388   8.355  0.00  0.00    +0.000 C 
BRANCH   9  12
ATOM     11  C   UNL     1      -0.382  63.382  10.543  0.00  0.00    +0.000 C 
ATOM     12  C   UNL     1      -1.152  62.520  10.212  0.00  0.00    +0.000 C 
BRANCH  11  16
ATOM     13  O   UNL     1       3.137  66.600   9.411  0.00  0.00    +0.000 OA
ATOM     14  C   UNL     1       0.541  64.882  12.412  0.00  0.00    +0.000 C 
ATOM     15  C   UNL     1       1.548  65.924  12.496  0.00  0.00    +0.000 C 
ATOM     16  C   UNL     1       0.542  64.431  10.928  0.00  0.00    +0.000 C 
ATOM     17  C   UNL     1       2.443  66.568  11.647  0.00  0.00    +0.000 C 
ATOM     18  C   UNL     1      -0.852  65.455  12.764  0.00  0.00    +0.000 C 
ATOM     19  C   UNL     1       0.931  63.689  13.312  0.00  0.00    +0.000 C 
ATOM     20  C   UNL     1       1.366  64.983   9.989  0.00  0.00    +0.000 C 
ATOM     21  C   UNL     1       2.395  66.097  10.244  0.00  0.00    +0.000 C 
ATOM     22  C   UNL     1       1.279  64.476   8.543  0.00  0.00    +0.000 C 
BRANCH  17  23
ATOM     23  O   UNL     1       3.293  67.556  12.066  0.00  0.00    +0.000 OA
ATOM     24  H   UNL     1       2.843  68.155  12.697  0.00  0.00    +0.000 HD
ENDBRANCH  17  23
ENDBRANCH  11  16
ENDBRANCH   9  12
ENDBRANCH   8   9
ENDBRANCH   6   8
ENDBRANCH   4   7
ENDBRANCH   3   4
ENDBRANCH   2   3
BRANCH   1  25
ATOM     25  C   UNL     1      -1.866  56.101  17.638  0.00  0.00    +0.000 C 
BRANCH  25  26
ATOM     26  C   UNL     1      -1.203  55.534  18.597  0.00  0.00    +0.000 C 
ATOM     27  C   UNL     1      -1.893  54.566  19.511  0.00  0.00    +0.000 C 
BRANCH  26  29
ATOM     28  C   UNL     1       1.289  56.194  19.037  0.00  0.00    +0.000 C 
ATOM     29  C   UNL     1       0.145  55.891  18.833  0.00  0.00    +0.000 C 
BRANCH  28  30
ATOM     30  C   UNL     1       2.750  56.582  19.301  0.00  0.00    +0.000 C 
BRANCH  30  31
ATOM     31  C   UNL     1       3.981  56.914  19.531  0.00  0.00    +0.000 C 
ATOM     32  C   UNL     1       4.907  55.940  20.193  0.00  0.00    +0.000 C 
BRANCH  31  34
ATOM     33  C   UNL     1       4.911  59.177  18.594  0.00  0.00    +0.000 C 
ATOM     34  C   UNL     1       4.488  58.133  19.014  0.00  0.00    +0.000 C 
BRANCH  33  38
ATOM     35  O   UNL     1       8.596  61.987  16.997  0.00  0.00    +0.000 OA
ATOM     36  C   UNL     1       4.391  61.601  17.930  0.00  0.00    +0.000 C 
ATOM     37  C   UNL     1       5.167  62.724  17.429  0.00  0.00    +0.000 C 
ATOM     38  C   UNL     1       5.411  60.446  18.100  0.00  0.00    +0.000 C 
ATOM     39  C   UNL     1       6.488  62.999  17.090  0.00  0.00    +0.000 C 
ATOM     40  C   UNL     1       3.323  61.185  16.891  0.00  0.00    +0.000 C 
ATOM     41  C   UNL     1       3.775  61.950  19.302  0.00  0.00    +0.000 C 
ATOM     42  C   UNL     1       6.737  60.579  17.800  0.00  0.00    +0.000 C 
ATOM     43  C   UNL     1       7.410  61.856  17.270  0.00  0.00    +0.000 C 
ATOM     44  C   UNL     1       7.660  59.368  17.989  0.00  0.00    +0.000 C 
BRANCH  39  45
ATOM     45  O   UNL     1       6.902  64.218  16.626  0.00  0.00    +0.000 OA
ATOM     46  H   UNL     1       7.830  64.390  16.885  0.00  0.00    +0.000 HD
ENDBRANCH  39  45
ENDBRANCH  33  38
ENDBRANCH  31  34
ENDBRANCH  30  31
ENDBRANCH  28  30
ENDBRANCH  26  29
ENDBRANCH  25  26
ENDBRANCH   1  25
TORSDOF 16
ENDMDL
MODEL 5
REMARK VINA RESULT:      -6.8     27.969     35.723
REMARK  Name = 5281224_Astaxanthin.pdbqt.pdb
REMARK  16 active torsions:
REMARK  status: ('A' for Active; 'I' for Inactive)
REMARK    1  A    between atoms: C_1  and  C_5
REMARK    2  A    between atoms: C_2  and  C_27
REMARK    3  A    between atoms: C_3  and  C_5
REMARK    4  A    between atoms: C_3  and  C_7
REMARK    5  A    between atoms: C_6  and  C_10
REMARK    6  A    between atoms: C_8  and  C_10
REMARK    7  A    between atoms: C_8  and  C_12
REMARK    8  A    between atoms: C_11  and  C_16
REMARK    9  A    between atoms: C_17  and  O_23
REMARK   10  A    between atoms: C_25  and  C_27
REMARK   11  A    between atoms: C_25  and  C_29
REMARK   12  A    between atoms: C_28  and  C_32
REMARK   13  A    between atoms: C_30  and  C_32
REMARK   14  A    between atoms: C_30  and  C_34
REMARK   15  A    between atoms: C_33  and  C_38
REMARK   16  A    between atoms: C_39  and  O_45
REMARK                            x       y       z     vdW  Elec       q    Type
REMARK                         _______ _______ _______ _____ _____    ______ ____
ROOT
ATOM      1  C   UNL     1      -3.890  13.821  31.400  0.00  0.00    +0.000 C 
ATOM      2  C   UNL     1      -4.284  12.807  30.895  0.00  0.00    +0.000 C 
ENDROOT
BRANCH   2   3
ATOM      3  C   UNL     1      -4.795  11.514  30.246  0.00  0.00    +0.000 C 
BRANCH   3   4
ATOM      4  C   UNL     1      -5.231  10.425  29.696  0.00  0.00    +0.000 C 
ATOM      5  C   UNL     1      -5.684   9.282  30.554  0.00  0.00    +0.000 C 
BRANCH   4   7
ATOM      6  C   UNL     1      -5.182  10.161  27.093  0.00  0.00    +0.000 C 
ATOM      7  C   UNL     1      -5.203  10.284  28.287  0.00  0.00    +0.000 C 
BRANCH   6   8
ATOM      8  C   UNL     1      -5.157  10.002  25.569  0.00  0.00    +0.000 C 
BRANCH   8   9
ATOM      9  C   UNL     1      -5.142   9.861  24.279  0.00  0.00    +0.000 C 
ATOM     10  C   UNL     1      -3.966   9.214  23.612  0.00  0.00    +0.000 C 
BRANCH   9  12
ATOM     11  C   UNL     1      -7.270  10.471  22.880  0.00  0.00    +0.000 C 
ATOM     12  C   UNL     1      -6.297  10.180  23.524  0.00  0.00    +0.000 C 
BRANCH  11  16
ATOM     13  O   UNL     1      -9.315  12.812  19.090  0.00  0.00    +0.000 OA
ATOM     14  C   UNL     1      -9.813  10.298  22.573  0.00  0.00    +0.000 C 
ATOM     15  C   UNL     1     -10.776  10.821  21.619  0.00  0.00    +0.000 C 
ATOM     16  C   UNL     1      -8.438  10.839  22.103  0.00  0.00    +0.000 C 
ATOM     17  C   UNL     1     -10.774  11.621  20.481  0.00  0.00    +0.000 C 
ATOM     18  C   UNL     1      -9.793   8.752  22.519  0.00  0.00    +0.000 C 
ATOM     19  C   UNL     1     -10.120  10.833  23.989  0.00  0.00    +0.000 C 
ATOM     20  C   UNL     1      -8.294  11.632  21.000  0.00  0.00    +0.000 C 
ATOM     21  C   UNL     1      -9.433  12.103  20.081  0.00  0.00    +0.000 C 
ATOM     22  C   UNL     1      -6.886  12.102  20.611  0.00  0.00    +0.000 C 
BRANCH  17  23
ATOM     23  O   UNL     1     -11.910  11.933  19.784  0.00  0.00    +0.000 OA
ATOM     24  H   UNL     1     -12.330  12.739  20.149  0.00  0.00    +0.000 HD
ENDBRANCH  17  23
ENDBRANCH  11  16
ENDBRANCH   9  12
ENDBRANCH   8   9
ENDBRANCH   6   8
ENDBRANCH   4   7
ENDBRANCH   3   4
ENDBRANCH   2   3
BRANCH   1  25
ATOM     25  C   UNL     1      -3.396  15.123  32.042  0.00  0.00    +0.000 C 
BRANCH  25  26
ATOM     26  C   UNL     1      -2.979  16.220  32.591  0.00  0.00    +0.000 C 
ATOM     27  C   UNL     1      -3.468  16.607  33.955  0.00  0.00    +0.000 C 
BRANCH  26  29
ATOM     28  C   UNL     1      -1.417  17.839  31.256  0.00  0.00    +0.000 C 
ATOM     29  C   UNL     1      -2.133  17.095  31.869  0.00  0.00    +0.000 C 
BRANCH  28  30
ATOM     30  C   UNL     1      -0.505  18.791  30.471  0.00  0.00    +0.000 C 
BRANCH  30  31
ATOM     31  C   UNL     1       0.263  19.601  29.814  0.00  0.00    +0.000 C 
ATOM     32  C   UNL     1       1.400  19.060  29.001  0.00  0.00    +0.000 C 
BRANCH  31  34
ATOM     33  C   UNL     1      -0.328  22.150  29.675  0.00  0.00    +0.000 C 
ATOM     34  C   UNL     1      -0.068  20.977  29.737  0.00  0.00    +0.000 C 
BRANCH  33  38
ATOM     35  O   UNL     1      -1.910  26.291  31.766  0.00  0.00    +0.000 OA
ATOM     36  C   UNL     1      -0.355  24.292  28.261  0.00  0.00    +0.000 C 
ATOM     37  C   UNL     1      -0.737  25.675  28.489  0.00  0.00    +0.000 C 
ATOM     38  C   UNL     1      -0.623  23.568  29.606  0.00  0.00    +0.000 C 
ATOM     39  C   UNL     1      -1.241  26.451  29.529  0.00  0.00    +0.000 C 
ATOM     40  C   UNL     1       1.153  24.202  27.930  0.00  0.00    +0.000 C 
ATOM     41  C   UNL     1      -1.239  23.670  27.157  0.00  0.00    +0.000 C 
ATOM     42  C   UNL     1      -1.112  24.210  30.706  0.00  0.00    +0.000 C 
ATOM     43  C   UNL     1      -1.471  25.704  30.785  0.00  0.00    +0.000 C 
ATOM     44  C   UNL     1      -1.327  23.405  31.995  0.00  0.00    +0.000 C 
BRANCH  39  45
ATOM     45  O   UNL     1      -1.499  27.789  29.405  0.00  0.00    +0.000 OA
ATOM     46  H   UNL     1      -0.697  28.316  29.601  0.00  0.00    +0.000 HD
ENDBRANCH  39  45
ENDBRANCH  33  38
ENDBRANCH  31  34
ENDBRANCH  30  31
ENDBRANCH  28  30
ENDBRANCH  26  29
ENDBRANCH  25  26
ENDBRANCH   1  25
TORSDOF 16
ENDMDL
MODEL 6
REMARK VINA RESULT:      -6.7      8.983     13.103
REMARK  Name = 5281224_Astaxanthin.pdbqt.pdb
REMARK  16 active torsions:
REMARK  status: ('A' for Active; 'I' for Inactive)
REMARK    1  A    between atoms: C_1  and  C_5
REMARK    2  A    between atoms: C_2  and  C_27
REMARK    3  A    between atoms: C_3  and  C_5
REMARK    4  A    between atoms: C_3  and  C_7
REMARK    5  A    between atoms: C_6  and  C_10
REMARK    6  A    between atoms: C_8  and  C_10
REMARK    7  A    between atoms: C_8  and  C_12
REMARK    8  A    between atoms: C_11  and  C_16
REMARK    9  A    between atoms: C_17  and  O_23
REMARK   10  A    between atoms: C_25  and  C_27
REMARK   11  A    between atoms: C_25  and  C_29
REMARK   12  A    between atoms: C_28  and  C_32
REMARK   13  A    between atoms: C_30  and  C_32
REMARK   14  A    between atoms: C_30  and  C_34
REMARK   15  A    between atoms: C_33  and  C_38
REMARK   16  A    between atoms: C_39  and  O_45
REMARK                            x       y       z     vdW  Elec       q    Type
REMARK                         _______ _______ _______ _____ _____    ______ ____
ROOT
ATOM      1  C   UNL     1       1.716  40.390  16.012  0.00  0.00    +0.000 C 
ATOM      2  C   UNL     1       0.595  39.962  16.024  0.00  0.00    +0.000 C 
ENDROOT
BRANCH   2   3
ATOM      3  C   UNL     1      -0.835  39.406  16.038  0.00  0.00    +0.000 C 
BRANCH   3   4
ATOM      4  C   UNL     1      -2.042  38.934  16.055  0.00  0.00    +0.000 C 
ATOM      5  C   UNL     1      -2.266  37.459  16.199  0.00  0.00    +0.000 C 
BRANCH   4   7
ATOM      6  C   UNL     1      -4.080  40.534  15.692  0.00  0.00    +0.000 C 
ATOM      7  C   UNL     1      -3.143  39.801  15.859  0.00  0.00    +0.000 C 
BRANCH   6   8
ATOM      8  C   UNL     1      -5.278  41.466  15.481  0.00  0.00    +0.000 C 
BRANCH   8   9
ATOM      9  C   UNL     1      -6.297  42.249  15.304  0.00  0.00    +0.000 C 
ATOM     10  C   UNL     1      -6.475  42.961  13.997  0.00  0.00    +0.000 C 
BRANCH   9  12
ATOM     11  C   UNL     1      -8.196  42.359  17.105  0.00  0.00    +0.000 C 
ATOM     12  C   UNL     1      -7.316  42.309  16.287  0.00  0.00    +0.000 C 
BRANCH  11  16
ATOM     13  O   UNL     1      -9.745  42.853  21.729  0.00  0.00    +0.000 OA
ATOM     14  C   UNL     1     -10.722  42.273  17.557  0.00  0.00    +0.000 C 
ATOM     15  C   UNL     1     -11.564  42.372  18.736  0.00  0.00    +0.000 C 
ATOM     16  C   UNL     1      -9.269  42.418  18.079  0.00  0.00    +0.000 C 
ATOM     17  C   UNL     1     -11.406  42.550  20.107  0.00  0.00    +0.000 C 
ATOM     18  C   UNL     1     -11.027  43.435  16.583  0.00  0.00    +0.000 C 
ATOM     19  C   UNL     1     -10.893  40.888  16.893  0.00  0.00    +0.000 C 
ATOM     20  C   UNL     1      -8.974  42.603  19.399  0.00  0.00    +0.000 C 
ATOM     21  C   UNL     1      -9.998  42.687  20.543  0.00  0.00    +0.000 C 
ATOM     22  C   UNL     1      -7.502  42.752  19.811  0.00  0.00    +0.000 C 
BRANCH  17  23
ATOM     23  O   UNL     1     -12.459  42.602  20.980  0.00  0.00    +0.000 OA
ATOM     24  H   UNL     1     -12.886  41.725  21.061  0.00  0.00    +0.000 HD
ENDBRANCH  17  23
ENDBRANCH  11  16
ENDBRANCH   9  12
ENDBRANCH   8   9
ENDBRANCH   6   8
ENDBRANCH   4   7
ENDBRANCH   3   4
ENDBRANCH   2   3
BRANCH   1  25
ATOM     25  C   UNL     1       3.151  40.928  15.994  0.00  0.00    +0.000 C 
BRANCH  25  26
ATOM     26  C   UNL     1       4.363  41.387  15.980  0.00  0.00    +0.000 C 
ATOM     27  C   UNL     1       4.600  42.866  15.911  0.00  0.00    +0.000 C 
BRANCH  26  29
ATOM     28  C   UNL     1       6.390  39.736  15.913  0.00  0.00    +0.000 C 
ATOM     29  C   UNL     1       5.459  40.493  15.943  0.00  0.00    +0.000 C 
BRANCH  28  30
ATOM     30  C   UNL     1       7.582  38.771  15.876  0.00  0.00    +0.000 C 
BRANCH  30  31
ATOM     31  C   UNL     1       8.585  37.951  15.851  0.00  0.00    +0.000 C 
ATOM     32  C   UNL     1       9.986  38.479  15.921  0.00  0.00    +0.000 C 
BRANCH  31  34
ATOM     33  C   UNL     1       8.176  35.366  15.983  0.00  0.00    +0.000 C 
ATOM     34  C   UNL     1       8.353  36.554  15.917  0.00  0.00    +0.000 C 
BRANCH  33  38
ATOM     35  O   UNL     1       5.253  31.436  15.802  0.00  0.00    +0.000 OA
ATOM     36  C   UNL     1       9.227  33.053  16.347  0.00  0.00    +0.000 C 
ATOM     37  C   UNL     1       8.732  31.687  16.374  0.00  0.00    +0.000 C 
ATOM     38  C   UNL     1       7.980  33.931  16.067  0.00  0.00    +0.000 C 
ATOM     39  C   UNL     1       7.518  31.023  16.224  0.00  0.00    +0.000 C 
ATOM     40  C   UNL     1      10.240  33.230  15.191  0.00  0.00    +0.000 C 
ATOM     41  C   UNL     1       9.825  33.431  17.719  0.00  0.00    +0.000 C 
ATOM     42  C   UNL     1       6.731  33.409  15.895  0.00  0.00    +0.000 C 
ATOM     43  C   UNL     1       6.370  31.916  15.955  0.00  0.00    +0.000 C 
ATOM     44  C   UNL     1       5.565  34.366  15.607  0.00  0.00    +0.000 C 
BRANCH  39  45
ATOM     45  O   UNL     1       7.395  29.663  16.312  0.00  0.00    +0.000 OA
ATOM     46  H   UNL     1       8.223  29.221  16.030  0.00  0.00    +0.000 HD
ENDBRANCH  39  45
ENDBRANCH  33  38
ENDBRANCH  31  34
ENDBRANCH  30  31
ENDBRANCH  28  30
ENDBRANCH  26  29
ENDBRANCH  25  26
ENDBRANCH   1  25
TORSDOF 16
ENDMDL
MODEL 7
REMARK VINA RESULT:      -6.3     27.091     35.649
REMARK  Name = 5281224_Astaxanthin.pdbqt.pdb
REMARK  16 active torsions:
REMARK  status: ('A' for Active; 'I' for Inactive)
REMARK    1  A    between atoms: C_1  and  C_5
REMARK    2  A    between atoms: C_2  and  C_27
REMARK    3  A    between atoms: C_3  and  C_5
REMARK    4  A    between atoms: C_3  and  C_7
REMARK    5  A    between atoms: C_6  and  C_10
REMARK    6  A    between atoms: C_8  and  C_10
REMARK    7  A    between atoms: C_8  and  C_12
REMARK    8  A    between atoms: C_11  and  C_16
REMARK    9  A    between atoms: C_17  and  O_23
REMARK   10  A    between atoms: C_25  and  C_27
REMARK   11  A    between atoms: C_25  and  C_29
REMARK   12  A    between atoms: C_28  and  C_32
REMARK   13  A    between atoms: C_30  and  C_32
REMARK   14  A    between atoms: C_30  and  C_34
REMARK   15  A    between atoms: C_33  and  C_38
REMARK   16  A    between atoms: C_39  and  O_45
REMARK                            x       y       z     vdW  Elec       q    Type
REMARK                         _______ _______ _______ _____ _____    ______ ____
ROOT
ATOM      1  C   UNL     1      -6.443  16.866  33.408  0.00  0.00    +0.000 C 
ATOM      2  C   UNL     1      -5.489  16.536  32.759  0.00  0.00    +0.000 C 
ENDROOT
BRANCH   2   3
ATOM      3  C   UNL     1      -4.275  16.113  31.923  0.00  0.00    +0.000 C 
BRANCH   3   4
ATOM      4  C   UNL     1      -3.253  15.751  31.214  0.00  0.00    +0.000 C 
ATOM      5  C   UNL     1      -3.025  14.300  30.915  0.00  0.00    +0.000 C 
BRANCH   4   7
ATOM      6  C   UNL     1      -1.506  17.533  30.427  0.00  0.00    +0.000 C 
ATOM      7  C   UNL     1      -2.309  16.717  30.789  0.00  0.00    +0.000 C 
BRANCH   6   8
ATOM      8  C   UNL     1      -0.480  18.573  29.963  0.00  0.00    +0.000 C 
BRANCH   8   9
ATOM      9  C   UNL     1       0.387  19.458  29.577  0.00  0.00    +0.000 C 
ATOM     10  C   UNL     1       1.674  19.019  28.948  0.00  0.00    +0.000 C 
BRANCH   9  12
ATOM     11  C   UNL     1      -0.245  22.000  29.616  0.00  0.00    +0.000 C 
ATOM     12  C   UNL     1       0.048  20.833  29.610  0.00  0.00    +0.000 C 
BRANCH  11  16
ATOM     13  O   UNL     1      -1.933  25.994  31.901  0.00  0.00    +0.000 OA
ATOM     14  C   UNL     1      -0.406  24.187  28.282  0.00  0.00    +0.000 C 
ATOM     15  C   UNL     1      -0.837  25.544  28.571  0.00  0.00    +0.000 C 
ATOM     16  C   UNL     1      -0.601  23.405  29.607  0.00  0.00    +0.000 C 
ATOM     17  C   UNL     1      -1.342  26.260  29.652  0.00  0.00    +0.000 C 
ATOM     18  C   UNL     1       1.094  24.173  27.903  0.00  0.00    +0.000 C 
ATOM     19  C   UNL     1      -1.297  23.566  27.183  0.00  0.00    +0.000 C 
ATOM     20  C   UNL     1      -1.083  23.988  30.744  0.00  0.00    +0.000 C 
ATOM     21  C   UNL     1      -1.502  25.461  30.887  0.00  0.00    +0.000 C 
ATOM     22  C   UNL     1      -1.224  23.130  32.008  0.00  0.00    +0.000 C 
BRANCH  17  23
ATOM     23  O   UNL     1      -1.658  27.590  29.585  0.00  0.00    +0.000 OA
ATOM     24  H   UNL     1      -2.451  27.730  29.028  0.00  0.00    +0.000 HD
ENDBRANCH  17  23
ENDBRANCH  11  16
ENDBRANCH   9  12
ENDBRANCH   8   9
ENDBRANCH   6   8
ENDBRANCH   4   7
ENDBRANCH   3   4
ENDBRANCH   2   3
BRANCH   1  25
ATOM     25  C   UNL     1      -7.669  17.285  34.228  0.00  0.00    +0.000 C 
BRANCH  25  26
ATOM     26  C   UNL     1      -8.703  17.645  34.921  0.00  0.00    +0.000 C 
ATOM     27  C   UNL     1      -8.876  17.139  36.322  0.00  0.00    +0.000 C 
BRANCH  26  29
ATOM     28  C   UNL     1     -10.563  19.119  33.822  0.00  0.00    +0.000 C 
ATOM     29  C   UNL     1      -9.710  18.442  34.328  0.00  0.00    +0.000 C 
BRANCH  28  30
ATOM     30  C   UNL     1     -11.651  19.985  33.174  0.00  0.00    +0.000 C 
BRANCH  30  31
ATOM     31  C   UNL     1     -12.575  20.710  32.627  0.00  0.00    +0.000 C 
ATOM     32  C   UNL     1     -13.140  21.885  33.367  0.00  0.00    +0.000 C 
BRANCH  31  34
ATOM     33  C   UNL     1     -13.238  20.319  30.123  0.00  0.00    +0.000 C 
ATOM     34  C   UNL     1     -12.936  20.487  31.275  0.00  0.00    +0.000 C 
BRANCH  33  38
ATOM     35  O   UNL     1     -16.407  20.875  26.426  0.00  0.00    +0.000 OA
ATOM     36  C   UNL     1     -12.577  19.421  27.811  0.00  0.00    +0.000 C 
ATOM     37  C   UNL     1     -13.203  19.382  26.500  0.00  0.00    +0.000 C 
ATOM     38  C   UNL     1     -13.601  20.134  28.731  0.00  0.00    +0.000 C 
ATOM     39  C   UNL     1     -14.396  19.792  25.912  0.00  0.00    +0.000 C 
ATOM     40  C   UNL     1     -11.277  20.259  27.756  0.00  0.00    +0.000 C 
ATOM     41  C   UNL     1     -12.332  17.986  28.328  0.00  0.00    +0.000 C 
ATOM     42  C   UNL     1     -14.807  20.591  28.282  0.00  0.00    +0.000 C 
ATOM     43  C   UNL     1     -15.328  20.469  26.840  0.00  0.00    +0.000 C 
ATOM     44  C   UNL     1     -15.742  21.298  29.272  0.00  0.00    +0.000 C 
BRANCH  39  45
ATOM     45  O   UNL     1     -14.683  19.593  24.589  0.00  0.00    +0.000 OA
ATOM     46  H   UNL     1     -13.975  19.073  24.155  0.00  0.00    +0.000 HD
ENDBRANCH  39  45
ENDBRANCH  33  38
ENDBRANCH  31  34
ENDBRANCH  30  31
ENDBRANCH  28  30
ENDBRANCH  26  29
ENDBRANCH  25  26
ENDBRANCH   1  25
TORSDOF 16
ENDMDL
MODEL 8
REMARK VINA RESULT:      -6.3      9.372     11.963
REMARK  Name = 5281224_Astaxanthin.pdbqt.pdb
REMARK  16 active torsions:
REMARK  status: ('A' for Active; 'I' for Inactive)
REMARK    1  A    between atoms: C_1  and  C_5
REMARK    2  A    between atoms: C_2  and  C_27
REMARK    3  A    between atoms: C_3  and  C_5
REMARK    4  A    between atoms: C_3  and  C_7
REMARK    5  A    between atoms: C_6  and  C_10
REMARK    6  A    between atoms: C_8  and  C_10
REMARK    7  A    between atoms: C_8  and  C_12
REMARK    8  A    between atoms: C_11  and  C_16
REMARK    9  A    between atoms: C_17  and  O_23
REMARK   10  A    between atoms: C_25  and  C_27
REMARK   11  A    between atoms: C_25  and  C_29
REMARK   12  A    between atoms: C_28  and  C_32
REMARK   13  A    between atoms: C_30  and  C_32
REMARK   14  A    between atoms: C_30  and  C_34
REMARK   15  A    between atoms: C_33  and  C_38
REMARK   16  A    between atoms: C_39  and  O_45
REMARK                            x       y       z     vdW  Elec       q    Type
REMARK                         _______ _______ _______ _____ _____    ______ ____
ROOT
ATOM      1  C   UNL     1       5.851  40.163  25.649  0.00  0.00    +0.000 C 
ATOM      2  C   UNL     1       5.297  41.171  25.306  0.00  0.00    +0.000 C 
ENDROOT
BRANCH   2   3
ATOM      3  C   UNL     1       4.589  42.456  24.858  0.00  0.00    +0.000 C 
BRANCH   3   4
ATOM      4  C   UNL     1       3.989  43.539  24.475  0.00  0.00    +0.000 C 
ATOM      5  C   UNL     1       4.585  44.877  24.791  0.00  0.00    +0.000 C 
BRANCH   4   7
ATOM      6  C   UNL     1       1.666  43.389  23.281  0.00  0.00    +0.000 C 
ATOM      7  C   UNL     1       2.731  43.460  23.829  0.00  0.00    +0.000 C 
BRANCH   6   8
ATOM      8  C   UNL     1       0.305  43.295  22.581  0.00  0.00    +0.000 C 
BRANCH   8   9
ATOM      9  C   UNL     1      -0.850  43.219  21.995  0.00  0.00    +0.000 C 
ATOM     10  C   UNL     1      -2.092  43.610  22.738  0.00  0.00    +0.000 C 
BRANCH   9  12
ATOM     11  C   UNL     1      -0.997  42.663  19.440  0.00  0.00    +0.000 C 
ATOM     12  C   UNL     1      -0.918  42.914  20.614  0.00  0.00    +0.000 C 
BRANCH  11  16
ATOM     13  O   UNL     1       1.029  41.322  15.183  0.00  0.00    +0.000 OA
ATOM     14  C   UNL     1      -2.515  42.472  17.378  0.00  0.00    +0.000 C 
ATOM     15  C   UNL     1      -2.321  42.120  15.982  0.00  0.00    +0.000 C 
ATOM     16  C   UNL     1      -1.110  42.364  18.026  0.00  0.00    +0.000 C 
ATOM     17  C   UNL     1      -1.274  41.742  15.147  0.00  0.00    +0.000 C 
ATOM     18  C   UNL     1      -3.464  41.457  18.057  0.00  0.00    +0.000 C 
ATOM     19  C   UNL     1      -3.025  43.925  17.496  0.00  0.00    +0.000 C 
ATOM     20  C   UNL     1       0.002  41.998  17.321  0.00  0.00    +0.000 C 
ATOM     21  C   UNL     1       0.039  41.652  15.824  0.00  0.00    +0.000 C 
ATOM     22  C   UNL     1       1.344  41.906  18.060  0.00  0.00    +0.000 C 
BRANCH  17  23
ATOM     23  O   UNL     1      -1.441  41.468  13.816  0.00  0.00    +0.000 OA
ATOM     24  H   UNL     1      -0.879  42.053  13.269  0.00  0.00    +0.000 HD
ENDBRANCH  17  23
ENDBRANCH  11  16
ENDBRANCH   9  12
ENDBRANCH   8   9
ENDBRANCH   6   8
ENDBRANCH   4   7
ENDBRANCH   3   4
ENDBRANCH   2   3
BRANCH   1  25
ATOM     25  C   UNL     1       6.560  38.874  26.078  0.00  0.00    +0.000 C 
BRANCH  25  26
ATOM     26  C   UNL     1       7.164  37.786  26.442  0.00  0.00    +0.000 C 
ATOM     27  C   UNL     1       7.133  37.360  27.879  0.00  0.00    +0.000 C 
BRANCH  26  29
ATOM     28  C   UNL     1       8.564  36.425  24.702  0.00  0.00    +0.000 C 
ATOM     29  C   UNL     1       7.922  37.050  25.502  0.00  0.00    +0.000 C 
BRANCH  28  30
ATOM     30  C   UNL     1       9.381  35.625  23.679  0.00  0.00    +0.000 C 
BRANCH  30  31
ATOM     31  C   UNL     1      10.063  34.947  22.811  0.00  0.00    +0.000 C 
ATOM     32  C   UNL     1      10.773  33.695  23.230  0.00  0.00    +0.000 C 
BRANCH  31  34
ATOM     33  C   UNL     1       9.957  35.581  20.271  0.00  0.00    +0.000 C 
ATOM     34  C   UNL     1      10.006  35.301  21.440  0.00  0.00    +0.000 C 
BRANCH  33  38
ATOM     35  O   UNL     1       7.789  35.214  15.891  0.00  0.00    +0.000 OA
ATOM     36  C   UNL     1      11.018  36.810  18.283  0.00  0.00    +0.000 C 
ATOM     37  C   UNL     1      10.706  36.953  16.871  0.00  0.00    +0.000 C 
ATOM     38  C   UNL     1       9.902  35.900  18.857  0.00  0.00    +0.000 C 
ATOM     39  C   UNL     1       9.733  36.514  15.978  0.00  0.00    +0.000 C 
ATOM     40  C   UNL     1      10.959  38.188  18.985  0.00  0.00    +0.000 C 
ATOM     41  C   UNL     1      12.388  36.118  18.458  0.00  0.00    +0.000 C 
ATOM     42  C   UNL     1       8.886  35.403  18.093  0.00  0.00    +0.000 C 
ATOM     43  C   UNL     1       8.695  35.654  16.587  0.00  0.00    +0.000 C 
ATOM     44  C   UNL     1       7.822  34.524  18.762  0.00  0.00    +0.000 C 
BRANCH  39  45
ATOM     45  O   UNL     1       9.732  36.850  14.651  0.00  0.00    +0.000 OA
ATOM     46  H   UNL     1       8.895  36.573  14.225  0.00  0.00    +0.000 HD
ENDBRANCH  39  45
ENDBRANCH  33  38
ENDBRANCH  31  34
ENDBRANCH  30  31
ENDBRANCH  28  30
ENDBRANCH  26  29
ENDBRANCH  25  26
ENDBRANCH   1  25
TORSDOF 16
ENDMDL
MODEL 9
REMARK VINA RESULT:      -6.3      7.946     12.790
REMARK  Name = 5281224_Astaxanthin.pdbqt.pdb
REMARK  16 active torsions:
REMARK  status: ('A' for Active; 'I' for Inactive)
REMARK    1  A    between atoms: C_1  and  C_5
REMARK    2  A    between atoms: C_2  and  C_27
REMARK    3  A    between atoms: C_3  and  C_5
REMARK    4  A    between atoms: C_3  and  C_7
REMARK    5  A    between atoms: C_6  and  C_10
REMARK    6  A    between atoms: C_8  and  C_10
REMARK    7  A    between atoms: C_8  and  C_12
REMARK    8  A    between atoms: C_11  and  C_16
REMARK    9  A    between atoms: C_17  and  O_23
REMARK   10  A    between atoms: C_25  and  C_27
REMARK   11  A    between atoms: C_25  and  C_29
REMARK   12  A    between atoms: C_28  and  C_32
REMARK   13  A    between atoms: C_30  and  C_32
REMARK   14  A    between atoms: C_30  and  C_34
REMARK   15  A    between atoms: C_33  and  C_38
REMARK   16  A    between atoms: C_39  and  O_45
REMARK                            x       y       z     vdW  Elec       q    Type
REMARK                         _______ _______ _______ _____ _____    ______ ____
ROOT
ATOM      1  C   UNL     1       1.016  43.311  15.937  0.00  0.00    +0.000 C 
ATOM      2  C   UNL     1       0.099  42.540  15.882  0.00  0.00    +0.000 C 
ENDROOT
BRANCH   2   3
ATOM      3  C   UNL     1      -1.069  41.548  15.809  0.00  0.00    +0.000 C 
BRANCH   3   4
ATOM      4  C   UNL     1      -2.055  40.710  15.741  0.00  0.00    +0.000 C 
ATOM      5  C   UNL     1      -1.963  39.389  16.444  0.00  0.00    +0.000 C 
BRANCH   4   7
ATOM      6  C   UNL     1      -4.136  41.257  14.253  0.00  0.00    +0.000 C 
ATOM      7  C   UNL     1      -3.182  41.006  14.938  0.00  0.00    +0.000 C 
BRANCH   6   8
ATOM      8  C   UNL     1      -5.353  41.574  13.377  0.00  0.00    +0.000 C 
BRANCH   8   9
ATOM      9  C   UNL     1      -6.385  41.850  12.640  0.00  0.00    +0.000 C 
ATOM     10  C   UNL     1      -6.199  42.539  11.322  0.00  0.00    +0.000 C 
BRANCH   9  12
ATOM     11  C   UNL     1      -8.752  40.972  13.337  0.00  0.00    +0.000 C 
ATOM     12  C   UNL     1      -7.663  41.365  13.010  0.00  0.00    +0.000 C 
BRANCH  11  16
ATOM     13  O   UNL     1     -13.115  39.019  12.254  0.00  0.00    +0.000 OA
ATOM     14  C   UNL     1     -10.433  40.618  15.245  0.00  0.00    +0.000 C 
ATOM     15  C   UNL     1     -11.783  40.091  15.347  0.00  0.00    +0.000 C 
ATOM     16  C   UNL     1     -10.066  40.511  13.742  0.00  0.00    +0.000 C 
ATOM     17  C   UNL     1     -12.751  39.558  14.503  0.00  0.00    +0.000 C 
ATOM     18  C   UNL     1      -9.455  39.746  16.067  0.00  0.00    +0.000 C 
ATOM     19  C   UNL     1     -10.405  42.101  15.677  0.00  0.00    +0.000 C 
ATOM     20  C   UNL     1     -10.922  40.003  12.807  0.00  0.00    +0.000 C 
ATOM     21  C   UNL     1     -12.340  39.478  13.083  0.00  0.00    +0.000 C 
ATOM     22  C   UNL     1     -10.455  39.926  11.347  0.00  0.00    +0.000 C 
BRANCH  17  23
ATOM     23  O   UNL     1     -13.977  39.135  14.943  0.00  0.00    +0.000 OA
ATOM     24  H   UNL     1     -14.693  39.532  14.407  0.00  0.00    +0.000 HD
ENDBRANCH  17  23
ENDBRANCH  11  16
ENDBRANCH   9  12
ENDBRANCH   8   9
ENDBRANCH   6   8
ENDBRANCH   4   7
ENDBRANCH   3   4
ENDBRANCH   2   3
BRANCH   1  25
ATOM     25  C   UNL     1       2.195  44.289  16.003  0.00  0.00    +0.000 C 
BRANCH  25  26
ATOM     26  C   UNL     1       3.190  45.118  16.063  0.00  0.00    +0.000 C 
ATOM     27  C   UNL     1       3.872  45.558  14.803  0.00  0.00    +0.000 C 
BRANCH  26  29
ATOM     28  C   UNL     1       4.110  45.894  18.385  0.00  0.00    +0.000 C 
ATOM     29  C   UNL     1       3.686  45.538  17.319  0.00  0.00    +0.000 C 
BRANCH  28  30
ATOM     30  C   UNL     1       4.655  46.349  19.745  0.00  0.00    +0.000 C 
BRANCH  30  31
ATOM     31  C   UNL     1       5.108  46.730  20.898  0.00  0.00    +0.000 C 
ATOM     32  C   UNL     1       5.233  48.192  21.206  0.00  0.00    +0.000 C 
BRANCH  31  34
ATOM     33  C   UNL     1       5.543  44.953  22.773  0.00  0.00    +0.000 C 
ATOM     34  C   UNL     1       5.333  45.772  21.917  0.00  0.00    +0.000 C 
BRANCH  33  38
ATOM     35  O   UNL     1       3.971  41.752  26.135  0.00  0.00    +0.000 OA
ATOM     36  C   UNL     1       7.294  43.619  24.093  0.00  0.00    +0.000 C 
ATOM     37  C   UNL     1       7.252  42.612  25.139  0.00  0.00    +0.000 C 
ATOM     38  C   UNL     1       5.811  43.959  23.795  0.00  0.00    +0.000 C 
ATOM     39  C   UNL     1       6.291  41.930  25.880  0.00  0.00    +0.000 C 
ATOM     40  C   UNL     1       7.946  43.036  22.817  0.00  0.00    +0.000 C 
ATOM     41  C   UNL     1       8.020  44.885  24.601  0.00  0.00    +0.000 C 
ATOM     42  C   UNL     1       4.770  43.362  24.445  0.00  0.00    +0.000 C 
ATOM     43  C   UNL     1       4.897  42.295  25.545  0.00  0.00    +0.000 C 
ATOM     44  C   UNL     1       3.338  43.759  24.063  0.00  0.00    +0.000 C 
BRANCH  39  45
ATOM     45  O   UNL     1       6.605  40.999  26.832  0.00  0.00    +0.000 OA
ATOM     46  H   UNL     1       6.120  40.163  26.672  0.00  0.00    +0.000 HD
ENDBRANCH  39  45
ENDBRANCH  33  38
ENDBRANCH  31  34
ENDBRANCH  30  31
ENDBRANCH  28  30
ENDBRANCH  26  29
ENDBRANCH  25  26
ENDBRANCH   1  25
TORSDOF 16
ENDMDL
