MODEL 1
REMARK VINA RESULT:      -8.4      0.000      0.000
REMARK  Name = 5281698_sexangularetin.pdbqt.pdb
REMARK  6 active torsions:
REMARK  status: ('A' for Active; 'I' for Inactive)
REMARK    1  A    between atoms: C_5  and  C_12
REMARK    2  A    between atoms: C_6  and  O_20
REMARK    3  A    between atoms: C_8  and  O_22
REMARK    4  A    between atoms: C_9  and  O_24
REMARK    5  A    between atoms: C_10  and  O_26
REMARK    6  A    between atoms: C_17  and  O_18
REMARK                            x       y       z     vdW  Elec       q    Type
REMARK                         _______ _______ _______ _____ _____    ______ ____
ROOT
ATOM      1  O   UNL     1       3.464  30.834  15.665  0.00  0.00    +0.000 OA
ATOM      2  O   UNL     1       4.123  27.106  14.221  0.00  0.00    +0.000 OA
ATOM      3  C   UNL     1       5.043  29.082  15.109  0.00  0.00    +0.000 A 
ATOM      4  C   UNL     1       4.749  30.359  15.585  0.00  0.00    +0.000 A 
ATOM      5  C   UNL     1       2.410  30.051  15.207  0.00  0.00    +0.000 A 
ATOM      6  C   UNL     1       5.791  31.191  16.019  0.00  0.00    +0.000 A 
ATOM      7  C   UNL     1       3.935  28.243  14.649  0.00  0.00    +0.000 A 
ATOM      8  C   UNL     1       2.569  28.805  14.720  0.00  0.00    +0.000 A 
ATOM      9  C   UNL     1       6.364  28.622  15.086  0.00  0.00    +0.000 A 
ATOM     10  C   UNL     1       7.105  30.707  16.030  0.00  0.00    +0.000 A 
ATOM     11  C   UNL     1       7.394  29.431  15.554  0.00  0.00    +0.000 A 
ENDROOT
BRANCH   5  12
ATOM     12  C   UNL     1       1.100  30.722  15.329  0.00  0.00    +0.000 A 
ATOM     13  C   UNL     1       0.427  30.707  16.557  0.00  0.00    +0.000 A 
ATOM     14  C   UNL     1       0.532  31.439  14.272  0.00  0.00    +0.000 A 
ATOM     15  C   UNL     1      -0.790  31.367  16.720  0.00  0.00    +0.000 A 
ATOM     16  C   UNL     1      -0.685  32.102  14.421  0.00  0.00    +0.000 A 
ATOM     17  C   UNL     1      -1.337  32.060  15.647  0.00  0.00    +0.000 A 
BRANCH  17  18
ATOM     18  O   UNL     1      -2.526  32.716  15.773  0.00  0.00    +0.000 OA
ATOM     19  H   UNL     1      -3.081  32.488  15.007  0.00  0.00    +0.000 HD
ENDBRANCH  17  18
ENDBRANCH   5  12
BRANCH   6  20
ATOM     20  O   UNL     1       5.542  32.444  16.523  0.00  0.00    +0.000 OA
ATOM     21  C   UNL     1       5.406  33.390  15.488  0.00  0.00    +0.000 C 
ENDBRANCH   6  20
BRANCH   8  22
ATOM     22  O   UNL     1       1.534  27.994  14.296  0.00  0.00    +0.000 OA
ATOM     23  H   UNL     1       1.891  27.482  13.540  0.00  0.00    +0.000 HD
ENDBRANCH   8  22
BRANCH   9  24
ATOM     24  O   UNL     1       6.717  27.380  14.634  0.00  0.00    +0.000 OA
ATOM     25  H   UNL     1       7.510  27.464  14.058  0.00  0.00    +0.000 HD
ENDBRANCH   9  24
BRANCH  10  26
ATOM     26  O   UNL     1       8.112  31.484  16.527  0.00  0.00    +0.000 OA
ATOM     27  H   UNL     1       8.256  31.247  17.462  0.00  0.00    +0.000 HD
ENDBRANCH  10  26
TORSDOF 6
ENDMDL
MODEL 2
REMARK VINA RESULT:      -7.8      1.703      6.397
REMARK  Name = 5281698_sexangularetin.pdbqt.pdb
REMARK  6 active torsions:
REMARK  status: ('A' for Active; 'I' for Inactive)
REMARK    1  A    between atoms: C_5  and  C_12
REMARK    2  A    between atoms: C_6  and  O_20
REMARK    3  A    between atoms: C_8  and  O_22
REMARK    4  A    between atoms: C_9  and  O_24
REMARK    5  A    between atoms: C_10  and  O_26
REMARK    6  A    between atoms: C_17  and  O_18
REMARK                            x       y       z     vdW  Elec       q    Type
REMARK                         _______ _______ _______ _____ _____    ______ ____
ROOT
ATOM      1  O   UNL     1       4.880  30.564  15.808  0.00  0.00    +0.000 OA
ATOM      2  O   UNL     1       3.827  27.109  13.971  0.00  0.00    +0.000 OA
ATOM      3  C   UNL     1       3.124  29.060  15.084  0.00  0.00    +0.000 A 
ATOM      4  C   UNL     1       3.553  30.228  15.713  0.00  0.00    +0.000 A 
ATOM      5  C   UNL     1       5.847  29.694  15.317  0.00  0.00    +0.000 A 
ATOM      6  C   UNL     1       2.605  31.108  16.255  0.00  0.00    +0.000 A 
ATOM      7  C   UNL     1       4.136  28.153  14.541  0.00  0.00    +0.000 A 
ATOM      8  C   UNL     1       5.557  28.536  14.695  0.00  0.00    +0.000 A 
ATOM      9  C   UNL     1       1.758  28.778  14.970  0.00  0.00    +0.000 A 
ATOM     10  C   UNL     1       1.241  30.838  16.101  0.00  0.00    +0.000 A 
ATOM     11  C   UNL     1       0.816  29.671  15.471  0.00  0.00    +0.000 A 
ENDROOT
BRANCH   5  12
ATOM     12  C   UNL     1       7.223  30.187  15.531  0.00  0.00    +0.000 A 
ATOM     13  C   UNL     1       7.661  31.335  14.859  0.00  0.00    +0.000 A 
ATOM     14  C   UNL     1       8.094  29.583  16.443  0.00  0.00    +0.000 A 
ATOM     15  C   UNL     1       8.937  31.852  15.071  0.00  0.00    +0.000 A 
ATOM     16  C   UNL     1       9.374  30.088  16.663  0.00  0.00    +0.000 A 
ATOM     17  C   UNL     1       9.786  31.221  15.973  0.00  0.00    +0.000 A 
BRANCH  17  18
ATOM     18  O   UNL     1      11.042  31.702  16.203  0.00  0.00    +0.000 OA
ATOM     19  H   UNL     1      11.254  32.343  15.501  0.00  0.00    +0.000 HD
ENDBRANCH  17  18
ENDBRANCH   5  12
BRANCH   6  20
ATOM     20  O   UNL     1       2.985  32.284  16.856  0.00  0.00    +0.000 OA
ATOM     21  C   UNL     1       3.183  33.301  15.901  0.00  0.00    +0.000 C 
ENDBRANCH   6  20
BRANCH   8  22
ATOM     22  O   UNL     1       6.499  27.676  14.164  0.00  0.00    +0.000 OA
ATOM     23  H   UNL     1       6.154  26.772  14.325  0.00  0.00    +0.000 HD
ENDBRANCH   8  22
BRANCH   9  24
ATOM     24  O   UNL     1       1.273  27.653  14.362  0.00  0.00    +0.000 OA
ATOM     25  H   UNL     1       1.504  26.869  14.911  0.00  0.00    +0.000 HD
ENDBRANCH   9  24
BRANCH  10  26
ATOM     26  O   UNL     1       0.314  31.732  16.555  0.00  0.00    +0.000 OA
ATOM     27  H   UNL     1      -0.056  31.399  17.394  0.00  0.00    +0.000 HD
ENDBRANCH  10  26
TORSDOF 6
ENDMDL
MODEL 3
REMARK VINA RESULT:      -7.0     10.011     12.815
REMARK  Name = 5281698_sexangularetin.pdbqt.pdb
REMARK  6 active torsions:
REMARK  status: ('A' for Active; 'I' for Inactive)
REMARK    1  A    between atoms: C_5  and  C_12
REMARK    2  A    between atoms: C_6  and  O_20
REMARK    3  A    between atoms: C_8  and  O_22
REMARK    4  A    between atoms: C_9  and  O_24
REMARK    5  A    between atoms: C_10  and  O_26
REMARK    6  A    between atoms: C_17  and  O_18
REMARK                            x       y       z     vdW  Elec       q    Type
REMARK                         _______ _______ _______ _____ _____    ______ ____
ROOT
ATOM      1  O   UNL     1       1.349  41.893  15.995  0.00  0.00    +0.000 OA
ATOM      2  O   UNL     1      -0.713  44.677  18.096  0.00  0.00    +0.000 OA
ATOM      3  C   UNL     1       1.357  43.988  17.211  0.00  0.00    +0.000 A 
ATOM      4  C   UNL     1       2.010  42.989  16.491  0.00  0.00    +0.000 A 
ATOM      5  C   UNL     1      -0.006  41.727  16.258  0.00  0.00    +0.000 A 
ATOM      6  C   UNL     1       3.384  43.105  16.240  0.00  0.00    +0.000 A 
ATOM      7  C   UNL     1      -0.075  43.832  17.470  0.00  0.00    +0.000 A 
ATOM      8  C   UNL     1      -0.742  42.619  16.947  0.00  0.00    +0.000 A 
ATOM      9  C   UNL     1       2.060  45.111  17.661  0.00  0.00    +0.000 A 
ATOM     10  C   UNL     1       4.071  44.250  16.659  0.00  0.00    +0.000 A 
ATOM     11  C   UNL     1       3.416  45.246  17.378  0.00  0.00    +0.000 A 
ENDROOT
BRANCH   5  12
ATOM     12  C   UNL     1      -0.554  40.481  15.685  0.00  0.00    +0.000 A 
ATOM     13  C   UNL     1      -0.434  39.280  16.396  0.00  0.00    +0.000 A 
ATOM     14  C   UNL     1      -1.256  40.466  14.476  0.00  0.00    +0.000 A 
ATOM     15  C   UNL     1      -0.976  38.095  15.905  0.00  0.00    +0.000 A 
ATOM     16  C   UNL     1      -1.802  39.287  13.973  0.00  0.00    +0.000 A 
ATOM     17  C   UNL     1      -1.657  38.108  14.694  0.00  0.00    +0.000 A 
BRANCH  17  18
ATOM     18  O   UNL     1      -2.200  36.965  14.186  0.00  0.00    +0.000 OA
ATOM     19  H   UNL     1      -2.298  36.326  14.914  0.00  0.00    +0.000 HD
ENDBRANCH  17  18
ENDBRANCH   5  12
BRANCH   6  20
ATOM     20  O   UNL     1       4.059  42.158  15.508  0.00  0.00    +0.000 OA
ATOM     21  C   UNL     1       4.324  41.012  16.283  0.00  0.00    +0.000 C 
ENDBRANCH   6  20
BRANCH   8  22
ATOM     22  O   UNL     1      -2.097  42.496  17.187  0.00  0.00    +0.000 OA
ATOM     23  H   UNL     1      -2.226  42.759  18.123  0.00  0.00    +0.000 HD
ENDBRANCH   8  22
BRANCH   9  24
ATOM     24  O   UNL     1       1.478  46.126  18.369  0.00  0.00    +0.000 OA
ATOM     25  H   UNL     1       1.162  45.773  19.231  0.00  0.00    +0.000 HD
ENDBRANCH   9  24
BRANCH  10  26
ATOM     26  O   UNL     1       5.392  44.404  16.347  0.00  0.00    +0.000 OA
ATOM     27  H   UNL     1       5.860  44.744  17.132  0.00  0.00    +0.000 HD
ENDBRANCH  10  26
TORSDOF 6
ENDMDL
MODEL 4
REMARK VINA RESULT:      -6.8      1.928      2.595
REMARK  Name = 5281698_sexangularetin.pdbqt.pdb
REMARK  6 active torsions:
REMARK  status: ('A' for Active; 'I' for Inactive)
REMARK    1  A    between atoms: C_5  and  C_12
REMARK    2  A    between atoms: C_6  and  O_20
REMARK    3  A    between atoms: C_8  and  O_22
REMARK    4  A    between atoms: C_9  and  O_24
REMARK    5  A    between atoms: C_10  and  O_26
REMARK    6  A    between atoms: C_17  and  O_18
REMARK                            x       y       z     vdW  Elec       q    Type
REMARK                         _______ _______ _______ _____ _____    ______ ____
ROOT
ATOM      1  O   UNL     1       5.988  31.123  15.855  0.00  0.00    +0.000 OA
ATOM      2  O   UNL     1       5.717  27.390  14.303  0.00  0.00    +0.000 OA
ATOM      3  C   UNL     1       7.103  29.085  15.169  0.00  0.00    +0.000 A 
ATOM      4  C   UNL     1       7.129  30.379  15.686  0.00  0.00    +0.000 A 
ATOM      5  C   UNL     1       4.762  30.607  15.450  0.00  0.00    +0.000 A 
ATOM      6  C   UNL     1       8.353  30.946  16.068  0.00  0.00    +0.000 A 
ATOM      7  C   UNL     1       5.812  28.526  14.763  0.00  0.00    +0.000 A 
ATOM      8  C   UNL     1       4.611  29.374  14.931  0.00  0.00    +0.000 A 
ATOM      9  C   UNL     1       8.285  28.345  15.054  0.00  0.00    +0.000 A 
ATOM     10  C   UNL     1       9.524  30.183  15.988  0.00  0.00    +0.000 A 
ATOM     11  C   UNL     1       9.494  28.891  15.471  0.00  0.00    +0.000 A 
ENDROOT
BRANCH   5  12
ATOM     12  C   UNL     1       3.643  31.547  15.668  0.00  0.00    +0.000 A 
ATOM     13  C   UNL     1       2.615  31.207  16.555  0.00  0.00    +0.000 A 
ATOM     14  C   UNL     1       3.606  32.808  15.065  0.00  0.00    +0.000 A 
ATOM     15  C   UNL     1       1.568  32.087  16.817  0.00  0.00    +0.000 A 
ATOM     16  C   UNL     1       2.563  33.698  15.317  0.00  0.00    +0.000 A 
ATOM     17  C   UNL     1       1.551  33.328  16.193  0.00  0.00    +0.000 A 
BRANCH  17  18
ATOM     18  O   UNL     1       0.539  34.214  16.427  0.00  0.00    +0.000 OA
ATOM     19  H   UNL     1      -0.078  33.807  17.061  0.00  0.00    +0.000 HD
ENDBRANCH  17  18
ENDBRANCH   5  12
BRANCH   6  20
ATOM     20  O   UNL     1       8.417  32.206  16.611  0.00  0.00    +0.000 OA
ATOM     21  C   UNL     1       8.767  33.161  15.636  0.00  0.00    +0.000 C 
ENDBRANCH   6  20
BRANCH   8  22
ATOM     22  O   UNL     1       3.399  28.825  14.558  0.00  0.00    +0.000 OA
ATOM     23  H   UNL     1       3.589  28.271  13.772  0.00  0.00    +0.000 HD
ENDBRANCH   8  22
BRANCH   9  24
ATOM     24  O   UNL     1       8.327  27.071  14.558  0.00  0.00    +0.000 OA
ATOM     25  H   UNL     1       7.568  26.561  14.923  0.00  0.00    +0.000 HD
ENDBRANCH   9  24
BRANCH  10  26
ATOM     26  O   UNL     1      10.706  30.702  16.435  0.00  0.00    +0.000 OA
ATOM     27  H   UNL     1      10.847  30.410  17.354  0.00  0.00    +0.000 HD
ENDBRANCH  10  26
TORSDOF 6
ENDMDL
MODEL 5
REMARK VINA RESULT:      -6.8      1.955      6.103
REMARK  Name = 5281698_sexangularetin.pdbqt.pdb
REMARK  6 active torsions:
REMARK  status: ('A' for Active; 'I' for Inactive)
REMARK    1  A    between atoms: C_5  and  C_12
REMARK    2  A    between atoms: C_6  and  O_20
REMARK    3  A    between atoms: C_8  and  O_22
REMARK    4  A    between atoms: C_9  and  O_24
REMARK    5  A    between atoms: C_10  and  O_26
REMARK    6  A    between atoms: C_17  and  O_18
REMARK                            x       y       z     vdW  Elec       q    Type
REMARK                         _______ _______ _______ _____ _____    ______ ____
ROOT
ATOM      1  O   UNL     1       4.771  31.421  15.614  0.00  0.00    +0.000 OA
ATOM      2  O   UNL     1       5.941  27.688  14.560  0.00  0.00    +0.000 OA
ATOM      3  C   UNL     1       4.157  29.163  14.986  0.00  0.00    +0.000 A 
ATOM      4  C   UNL     1       3.821  30.462  15.364  0.00  0.00    +0.000 A 
ATOM      5  C   UNL     1       6.119  31.089  15.549  0.00  0.00    +0.000 A 
ATOM      6  C   UNL     1       2.471  30.821  15.477  0.00  0.00    +0.000 A 
ATOM      7  C   UNL     1       5.576  28.814  14.891  0.00  0.00    +0.000 A 
ATOM      8  C   UNL     1       6.567  29.867  15.202  0.00  0.00    +0.000 A 
ATOM      9  C   UNL     1       3.156  28.229  14.697  0.00  0.00    +0.000 A 
ATOM     10  C   UNL     1       1.477  29.892  15.147  0.00  0.00    +0.000 A 
ATOM     11  C   UNL     1       1.816  28.595  14.770  0.00  0.00    +0.000 A 
ENDROOT
BRANCH   5  12
ATOM     12  C   UNL     1       7.006  32.222  15.881  0.00  0.00    +0.000 A 
ATOM     13  C   UNL     1       6.492  33.325  16.574  0.00  0.00    +0.000 A 
ATOM     14  C   UNL     1       8.373  32.206  15.586  0.00  0.00    +0.000 A 
ATOM     15  C   UNL     1       7.309  34.392  16.941  0.00  0.00    +0.000 A 
ATOM     16  C   UNL     1       9.202  33.268  15.946  0.00  0.00    +0.000 A 
ATOM     17  C   UNL     1       8.661  34.354  16.622  0.00  0.00    +0.000 A 
BRANCH  17  18
ATOM     18  O   UNL     1       9.489  35.382  16.967  0.00  0.00    +0.000 OA
ATOM     19  H   UNL     1      10.074  35.567  16.211  0.00  0.00    +0.000 HD
ENDBRANCH  17  18
ENDBRANCH   5  12
BRANCH   6  20
ATOM     20  O   UNL     1       2.098  32.099  15.816  0.00  0.00    +0.000 OA
ATOM     21  C   UNL     1       2.021  32.925  14.678  0.00  0.00    +0.000 C 
ENDBRANCH   6  20
BRANCH   8  22
ATOM     22  O   UNL     1       7.901  29.525  15.093  0.00  0.00    +0.000 OA
ATOM     23  H   UNL     1       8.148  29.141  15.960  0.00  0.00    +0.000 HD
ENDBRANCH   8  22
BRANCH   9  24
ATOM     24  O   UNL     1       3.419  26.941  14.319  0.00  0.00    +0.000 OA
ATOM     25  H   UNL     1       3.054  26.793  13.417  0.00  0.00    +0.000 HD
ENDBRANCH   9  24
BRANCH  10  26
ATOM     26  O   UNL     1       0.162  30.261  15.178  0.00  0.00    +0.000 OA
ATOM     27  H   UNL     1      -0.371  29.494  15.459  0.00  0.00    +0.000 HD
ENDBRANCH  10  26
TORSDOF 6
ENDMDL
MODEL 6
REMARK VINA RESULT:      -6.7     18.998     20.574
REMARK  Name = 5281698_sexangularetin.pdbqt.pdb
REMARK  6 active torsions:
REMARK  status: ('A' for Active; 'I' for Inactive)
REMARK    1  A    between atoms: C_5  and  C_12
REMARK    2  A    between atoms: C_6  and  O_20
REMARK    3  A    between atoms: C_8  and  O_22
REMARK    4  A    between atoms: C_9  and  O_24
REMARK    5  A    between atoms: C_10  and  O_26
REMARK    6  A    between atoms: C_17  and  O_18
REMARK                            x       y       z     vdW  Elec       q    Type
REMARK                         _______ _______ _______ _____ _____    ______ ____
ROOT
ATOM      1  O   UNL     1      13.645  46.700  11.275  0.00  0.00    +0.000 OA
ATOM      2  O   UNL     1      10.158  47.904   9.599  0.00  0.00    +0.000 OA
ATOM      3  C   UNL     1      11.600  47.985  11.458  0.00  0.00    +0.000 A 
ATOM      4  C   UNL     1      12.807  47.526  11.981  0.00  0.00    +0.000 A 
ATOM      5  C   UNL     1      13.266  46.249  10.015  0.00  0.00    +0.000 A 
ATOM      6  C   UNL     1      13.201  47.929  13.265  0.00  0.00    +0.000 A 
ATOM      7  C   UNL     1      11.207  47.535  10.121  0.00  0.00    +0.000 A 
ATOM      8  C   UNL     1      12.123  46.617   9.408  0.00  0.00    +0.000 A 
ATOM      9  C   UNL     1      10.796  48.862  12.195  0.00  0.00    +0.000 A 
ATOM     10  C   UNL     1      12.411  48.838  13.978  0.00  0.00    +0.000 A 
ATOM     11  C   UNL     1      11.206  49.295  13.452  0.00  0.00    +0.000 A 
ENDROOT
BRANCH   5  12
ATOM     12  C   UNL     1      14.261  45.341   9.408  0.00  0.00    +0.000 A 
ATOM     13  C   UNL     1      13.867  44.066   8.983  0.00  0.00    +0.000 A 
ATOM     14  C   UNL     1      15.582  45.736   9.176  0.00  0.00    +0.000 A 
ATOM     15  C   UNL     1      14.768  43.200   8.368  0.00  0.00    +0.000 A 
ATOM     16  C   UNL     1      16.495  44.879   8.563  0.00  0.00    +0.000 A 
ATOM     17  C   UNL     1      16.079  43.616   8.163  0.00  0.00    +0.000 A 
BRANCH  17  18
ATOM     18  O   UNL     1      16.986  42.792   7.563  0.00  0.00    +0.000 OA
ATOM     19  H   UNL     1      16.522  42.275   6.881  0.00  0.00    +0.000 HD
ENDBRANCH  17  18
ENDBRANCH   5  12
BRANCH   6  20
ATOM     20  O   UNL     1      14.398  47.524  13.804  0.00  0.00    +0.000 OA
ATOM     21  C   UNL     1      15.445  48.384  13.420  0.00  0.00    +0.000 C 
ENDBRANCH   6  20
BRANCH   8  22
ATOM     22  O   UNL     1      11.744  46.214   8.141  0.00  0.00    +0.000 OA
ATOM     23  H   UNL     1      11.931  45.252   8.102  0.00  0.00    +0.000 HD
ENDBRANCH   8  22
BRANCH   9  24
ATOM     24  O   UNL     1       9.603  49.351  11.738  0.00  0.00    +0.000 OA
ATOM     25  H   UNL     1       9.583  49.276  10.757  0.00  0.00    +0.000 HD
ENDBRANCH   9  24
BRANCH  10  26
ATOM     26  O   UNL     1      12.831  49.297  15.195  0.00  0.00    +0.000 OA
ATOM     27  H   UNL     1      13.794  49.450  15.155  0.00  0.00    +0.000 HD
ENDBRANCH  10  26
TORSDOF 6
ENDMDL
MODEL 7
REMARK VINA RESULT:      -6.6      2.744      6.562
REMARK  Name = 5281698_sexangularetin.pdbqt.pdb
REMARK  6 active torsions:
REMARK  status: ('A' for Active; 'I' for Inactive)
REMARK    1  A    between atoms: C_5  and  C_12
REMARK    2  A    between atoms: C_6  and  O_20
REMARK    3  A    between atoms: C_8  and  O_22
REMARK    4  A    between atoms: C_9  and  O_24
REMARK    5  A    between atoms: C_10  and  O_26
REMARK    6  A    between atoms: C_17  and  O_18
REMARK                            x       y       z     vdW  Elec       q    Type
REMARK                         _______ _______ _______ _____ _____    ______ ____
ROOT
ATOM      1  O   UNL     1       5.719  32.487  16.543  0.00  0.00    +0.000 OA
ATOM      2  O   UNL     1       7.903  29.583  14.751  0.00  0.00    +0.000 OA
ATOM      3  C   UNL     1       5.789  30.305  15.494  0.00  0.00    +0.000 A 
ATOM      4  C   UNL     1       5.098  31.336  16.127  0.00  0.00    +0.000 A 
ATOM      5  C   UNL     1       7.094  32.623  16.387  0.00  0.00    +0.000 A 
ATOM      6  C   UNL     1       3.716  31.216  16.335  0.00  0.00    +0.000 A 
ATOM      7  C   UNL     1       7.233  30.452  15.304  0.00  0.00    +0.000 A 
ATOM      8  C   UNL     1       7.869  31.694  15.798  0.00  0.00    +0.000 A 
ATOM      9  C   UNL     1       5.109  29.167  15.046  0.00  0.00    +0.000 A 
ATOM     10  C   UNL     1       3.038  30.092  15.848  0.00  0.00    +0.000 A 
ATOM     11  C   UNL     1       3.732  29.064  15.216  0.00  0.00    +0.000 A 
ENDROOT
BRANCH   5  12
ATOM     12  C   UNL     1       7.608  33.902  16.919  0.00  0.00    +0.000 A 
ATOM     13  C   UNL     1       7.744  35.003  16.065  0.00  0.00    +0.000 A 
ATOM     14  C   UNL     1       7.903  34.077  18.275  0.00  0.00    +0.000 A 
ATOM     15  C   UNL     1       8.185  36.235  16.542  0.00  0.00    +0.000 A 
ATOM     16  C   UNL     1       8.346  35.303  18.765  0.00  0.00    +0.000 A 
ATOM     17  C   UNL     1       8.483  36.375  17.892  0.00  0.00    +0.000 A 
BRANCH  17  18
ATOM     18  O   UNL     1       8.917  37.568  18.391  0.00  0.00    +0.000 OA
ATOM     19  H   UNL     1       9.501  37.980  17.729  0.00  0.00    +0.000 HD
ENDBRANCH  17  18
ENDBRANCH   5  12
BRANCH   6  20
ATOM     20  O   UNL     1       2.993  32.222  16.927  0.00  0.00    +0.000 OA
ATOM     21  C   UNL     1       2.588  33.182  15.978  0.00  0.00    +0.000 C 
ENDBRANCH   6  20
BRANCH   8  22
ATOM     22  O   UNL     1       9.230  31.824  15.597  0.00  0.00    +0.000 OA
ATOM     23  H   UNL     1       9.447  31.226  14.851  0.00  0.00    +0.000 HD
ENDBRANCH   8  22
BRANCH   9  24
ATOM     24  O   UNL     1       5.728  28.122  14.416  0.00  0.00    +0.000 OA
ATOM     25  H   UNL     1       5.355  28.030  13.510  0.00  0.00    +0.000 HD
ENDBRANCH   9  24
BRANCH  10  26
ATOM     26  O   UNL     1       1.681  30.008  15.976  0.00  0.00    +0.000 OA
ATOM     27  H   UNL     1       1.438  29.073  16.111  0.00  0.00    +0.000 HD
ENDBRANCH  10  26
TORSDOF 6
ENDMDL
MODEL 8
REMARK VINA RESULT:      -6.5     19.583     20.718
REMARK  Name = 5281698_sexangularetin.pdbqt.pdb
REMARK  6 active torsions:
REMARK  status: ('A' for Active; 'I' for Inactive)
REMARK    1  A    between atoms: C_5  and  C_12
REMARK    2  A    between atoms: C_6  and  O_20
REMARK    3  A    between atoms: C_8  and  O_22
REMARK    4  A    between atoms: C_9  and  O_24
REMARK    5  A    between atoms: C_10  and  O_26
REMARK    6  A    between atoms: C_17  and  O_18
REMARK                            x       y       z     vdW  Elec       q    Type
REMARK                         _______ _______ _______ _____ _____    ______ ____
ROOT
ATOM      1  O   UNL     1     -15.723  31.386  21.836  0.00  0.00    +0.000 OA
ATOM      2  O   UNL     1     -14.595  29.344  25.149  0.00  0.00    +0.000 OA
ATOM      3  C   UNL     1     -15.020  31.435  24.154  0.00  0.00    +0.000 A 
ATOM      4  C   UNL     1     -15.404  32.077  22.978  0.00  0.00    +0.000 A 
ATOM      5  C   UNL     1     -15.610  30.000  21.815  0.00  0.00    +0.000 A 
ATOM      6  C   UNL     1     -15.491  33.476  22.952  0.00  0.00    +0.000 A 
ATOM      7  C   UNL     1     -14.924  29.974  24.146  0.00  0.00    +0.000 A 
ATOM      8  C   UNL     1     -15.243  29.269  22.885  0.00  0.00    +0.000 A 
ATOM      9  C   UNL     1     -14.747  32.176  25.309  0.00  0.00    +0.000 A 
ATOM     10  C   UNL     1     -15.254  34.206  24.123  0.00  0.00    +0.000 A 
ATOM     11  C   UNL     1     -14.871  33.561  25.296  0.00  0.00    +0.000 A 
ENDROOT
BRANCH   5  12
ATOM     12  C   UNL     1     -15.954  29.416  20.502  0.00  0.00    +0.000 A 
ATOM     13  C   UNL     1     -17.156  28.715  20.350  0.00  0.00    +0.000 A 
ATOM     14  C   UNL     1     -15.146  29.597  19.375  0.00  0.00    +0.000 A 
ATOM     15  C   UNL     1     -17.532  28.189  19.116  0.00  0.00    +0.000 A 
ATOM     16  C   UNL     1     -15.509  29.074  18.136  0.00  0.00    +0.000 A 
ATOM     17  C   UNL     1     -16.702  28.373  18.017  0.00  0.00    +0.000 A 
BRANCH  17  18
ATOM     18  O   UNL     1     -17.041  27.870  16.794  0.00  0.00    +0.000 OA
ATOM     19  H   UNL     1     -16.438  28.250  16.132  0.00  0.00    +0.000 HD
ENDBRANCH  17  18
ENDBRANCH   5  12
BRANCH   6  20
ATOM     20  O   UNL     1     -15.895  34.146  21.823  0.00  0.00    +0.000 OA
ATOM     21  C   UNL     1     -17.288  34.350  21.825  0.00  0.00    +0.000 C 
ENDBRANCH   6  20
BRANCH   8  22
ATOM     22  O   UNL     1     -15.162  27.890  22.899  0.00  0.00    +0.000 OA
ATOM     23  H   UNL     1     -15.805  27.579  22.227  0.00  0.00    +0.000 HD
ENDBRANCH   8  22
BRANCH   9  24
ATOM     24  O   UNL     1     -14.369  31.606  26.493  0.00  0.00    +0.000 OA
ATOM     25  H   UNL     1     -13.390  31.499  26.498  0.00  0.00    +0.000 HD
ENDBRANCH   9  24
BRANCH  10  26
ATOM     26  O   UNL     1     -15.416  35.563  24.123  0.00  0.00    +0.000 OA
ATOM     27  H   UNL     1     -14.545  35.981  23.989  0.00  0.00    +0.000 HD
ENDBRANCH  10  26
TORSDOF 6
ENDMDL
MODEL 9
REMARK VINA RESULT:      -6.5     18.823     21.123
REMARK  Name = 5281698_sexangularetin.pdbqt.pdb
REMARK  6 active torsions:
REMARK  status: ('A' for Active; 'I' for Inactive)
REMARK    1  A    between atoms: C_5  and  C_12
REMARK    2  A    between atoms: C_6  and  O_20
REMARK    3  A    between atoms: C_8  and  O_22
REMARK    4  A    between atoms: C_9  and  O_24
REMARK    5  A    between atoms: C_10  and  O_26
REMARK    6  A    between atoms: C_17  and  O_18
REMARK                            x       y       z     vdW  Elec       q    Type
REMARK                         _______ _______ _______ _____ _____    ______ ____
ROOT
ATOM      1  O   UNL     1      12.644  48.180  11.960  0.00  0.00    +0.000 OA
ATOM      2  O   UNL     1       9.033  48.882  10.261  0.00  0.00    +0.000 OA
ATOM      3  C   UNL     1      10.547  49.392  11.990  0.00  0.00    +0.000 A 
ATOM      4  C   UNL     1      11.797  49.096  12.531  0.00  0.00    +0.000 A 
ATOM      5  C   UNL     1      12.235  47.471  10.836  0.00  0.00    +0.000 A 
ATOM      6  C   UNL     1      12.224  49.765  13.687  0.00  0.00    +0.000 A 
ATOM      7  C   UNL     1      10.121  48.667  10.792  0.00  0.00    +0.000 A 
ATOM      8  C   UNL     1      11.050  47.663  10.228  0.00  0.00    +0.000 A 
ATOM      9  C   UNL     1       9.733  50.366  12.579  0.00  0.00    +0.000 A 
ATOM     10  C   UNL     1      11.421  50.766  14.246  0.00  0.00    +0.000 A 
ATOM     11  C   UNL     1      10.173  51.059  13.702  0.00  0.00    +0.000 A 
ENDROOT
BRANCH   5  12
ATOM     12  C   UNL     1      13.247  46.500  10.371  0.00  0.00    +0.000 A 
ATOM     13  C   UNL     1      14.426  46.962   9.773  0.00  0.00    +0.000 A 
ATOM     14  C   UNL     1      13.101  45.124  10.569  0.00  0.00    +0.000 A 
ATOM     15  C   UNL     1      15.420  46.077   9.362  0.00  0.00    +0.000 A 
ATOM     16  C   UNL     1      14.087  44.227  10.161  0.00  0.00    +0.000 A 
ATOM     17  C   UNL     1      15.241  44.713   9.560  0.00  0.00    +0.000 A 
BRANCH  17  18
ATOM     18  O   UNL     1      16.195  43.820   9.168  0.00  0.00    +0.000 OA
ATOM     19  H   UNL     1      15.936  42.939   9.491  0.00  0.00    +0.000 HD
ENDBRANCH  17  18
ENDBRANCH   5  12
BRANCH   6  20
ATOM     20  O   UNL     1      13.461  49.525  14.234  0.00  0.00    +0.000 OA
ATOM     21  C   UNL     1      14.446  50.338  13.639  0.00  0.00    +0.000 C 
ENDBRANCH   6  20
BRANCH   8  22
ATOM     22  O   UNL     1      10.639  46.999   9.088  0.00  0.00    +0.000 OA
ATOM     23  H   UNL     1       9.668  46.893   9.178  0.00  0.00    +0.000 HD
ENDBRANCH   8  22
BRANCH   9  24
ATOM     24  O   UNL     1       8.499  50.704  12.096  0.00  0.00    +0.000 OA
ATOM     25  H   UNL     1       8.574  51.544  11.588  0.00  0.00    +0.000 HD
ENDBRANCH   9  24
BRANCH  10  26
ATOM     26  O   UNL     1      11.869  51.476  15.324  0.00  0.00    +0.000 OA
ATOM     27  H   UNL     1      12.419  52.215  15.004  0.00  0.00    +0.000 HD
ENDBRANCH  10  26
TORSDOF 6
ENDMDL
