MODEL 1
REMARK VINA RESULT:      -6.5      0.000      0.000
REMARK  Name = 5281239_Fucoxanthin.pdbqt.pdb
REMARK  19 active torsions:
REMARK  status: ('A' for Active; 'I' for Inactive)
REMARK    1  A    between atoms: C_1  and  C_5
REMARK    2  A    between atoms: C_2  and  C_26
REMARK    3  A    between atoms: C_3  and  C_5
REMARK    4  A    between atoms: C_3  and  C_7
REMARK    5  A    between atoms: C_6  and  C_10
REMARK    6  A    between atoms: C_8  and  C_10
REMARK    7  A    between atoms: C_8  and  C_12
REMARK    8  A    between atoms: C_12  and  C_13
REMARK    9  A    between atoms: C_13  and  C_15
REMARK   10  A    between atoms: C_20  and  O_24
REMARK   11  A    between atoms: C_26  and  C_27
REMARK   12  A    between atoms: C_27  and  C_30
REMARK   13  A    between atoms: C_29  and  C_33
REMARK   14  A    between atoms: C_31  and  C_33
REMARK   15  A    between atoms: C_31  and  C_44
REMARK   16  A    between atoms: C_35  and  O_45
REMARK   17  A    between atoms: C_37  and  O_47
REMARK   18  A    between atoms: C_39  and  C_43
REMARK   19  A    between atoms: O_47  and  C_49
REMARK                            x       y       z     vdW  Elec       q    Type
REMARK                         _______ _______ _______ _____ _____    ______ ____
ROOT
ATOM      1  C   UNL     1      10.559  36.492  19.919  0.00  0.00    +0.000 C 
ATOM      2  C   UNL     1       9.942  36.338  18.901  0.00  0.00    +0.000 C 
ENDROOT
BRANCH   2   3
ATOM      3  C   UNL     1       9.158  36.145  17.598  0.00  0.00    +0.000 C 
BRANCH   3   4
ATOM      4  C   UNL     1       8.496  35.985  16.495  0.00  0.00    +0.000 C 
ATOM      5  C   UNL     1       8.676  36.956  15.368  0.00  0.00    +0.000 C 
BRANCH   4   7
ATOM      6  C   UNL     1       6.920  33.917  16.205  0.00  0.00    +0.000 C 
ATOM      7  C   UNL     1       7.643  34.867  16.340  0.00  0.00    +0.000 C 
BRANCH   6   8
ATOM      8  C   UNL     1       6.002  32.702  16.031  0.00  0.00    +0.000 C 
BRANCH   8   9
ATOM      9  C   UNL     1       5.233  31.668  15.883  0.00  0.00    +0.000 C 
ATOM     10  C   UNL     1       5.828  30.302  15.728  0.00  0.00    +0.000 C 
BRANCH   9  12
ATOM     11  C   UNL     1       2.646  31.998  15.634  0.00  0.00    +0.000 C 
ATOM     12  C   UNL     1       3.833  31.845  15.751  0.00  0.00    +0.000 C 
BRANCH  11  18
ATOM     13  C   UNL     1       0.707  33.567  15.390  0.00  0.00    +0.000 C 
ATOM     14  C   UNL     1       0.389  30.989  15.530  0.00  0.00    +0.000 C 
ATOM     15  C   UNL     1      -0.696  33.477  14.963  0.00  0.00    +0.000 C 
ATOM     16  C   UNL     1      -1.675  32.496  14.716  0.00  0.00    +0.000 C 
ATOM     17  C   UNL     1      -0.941  31.338  15.046  0.00  0.00    +0.000 C 
ATOM     18  C   UNL     1       1.345  32.171  15.508  0.00  0.00    +0.000 C 
ATOM     19  C   UNL     1       0.798  34.270  16.771  0.00  0.00    +0.000 C 
ATOM     20  C   UNL     1       1.486  34.394  14.322  0.00  0.00    +0.000 C 
ATOM     21  C   UNL     1       0.329  30.361  16.925  0.00  0.00    +0.000 C 
BRANCH  14  22
ATOM     22  O   UNL     1       0.895  29.971  14.695  0.00  0.00    +0.000 OA
ATOM     23  H   UNL     1       1.852  30.155  14.722  0.00  0.00    +0.000 HD
ENDBRANCH  14  22
BRANCH  16  24
ATOM     24  O   UNL     1      -2.959  32.680  15.213  0.00  0.00    +0.000 OA
BRANCH  24  26
ATOM     25  O   UNL     1      -3.872  31.642  13.318  0.00  0.00    +0.000 OA
ATOM     26  C   UNL     1      -3.844  31.944  14.496  0.00  0.00    +0.000 C 
ATOM     27  C   UNL     1      -4.989  31.425  15.292  0.00  0.00    +0.000 C 
ENDBRANCH  24  26
ENDBRANCH  16  24
ENDBRANCH  11  18
ENDBRANCH   9  12
ENDBRANCH   8   9
ENDBRANCH   6   8
ENDBRANCH   4   7
ENDBRANCH   3   4
ENDBRANCH   2   3
BRANCH   1  28
ATOM     28  C   UNL     1      11.356  36.693  21.213  0.00  0.00    +0.000 C 
BRANCH  28  29
ATOM     29  C   UNL     1      12.038  36.866  22.300  0.00  0.00    +0.000 C 
ATOM     30  C   UNL     1      12.382  35.692  23.165  0.00  0.00    +0.000 C 
BRANCH  29  32
ATOM     31  C   UNL     1      12.741  39.279  23.027  0.00  0.00    +0.000 C 
ATOM     32  C   UNL     1      12.424  38.172  22.688  0.00  0.00    +0.000 C 
BRANCH  31  33
ATOM     33  C   UNL     1      13.135  40.693  23.472  0.00  0.00    +0.000 C 
BRANCH  33  34
ATOM     34  C   UNL     1      13.473  41.888  23.856  0.00  0.00    +0.000 C 
ATOM     35  C   UNL     1      13.506  42.142  25.350  0.00  0.00    +0.000 C 
BRANCH  34  37
ATOM     36  O   UNL     1      14.434  43.947  23.115  0.00  0.00    +0.000 OA
ATOM     37  C   UNL     1      13.765  42.953  22.848  0.00  0.00    +0.000 C 
BRANCH  37  38
ATOM     38  C   UNL     1      13.266  42.853  21.497  0.00  0.00    +0.000 C 
BRANCH  38  40
ATOM     39  O   UNL     1      11.786  43.809  19.903  0.00  0.00    +0.000 OA
ATOM     40  C   UNL     1      12.786  42.778  20.130  0.00  0.00    +0.000 C 
ATOM     41  C   UNL     1      13.007  43.980  19.187  0.00  0.00    +0.000 C 
ATOM     42  C   UNL     1      12.505  41.374  19.485  0.00  0.00    +0.000 C 
ATOM     43  C   UNL     1      12.847  43.748  17.787  0.00  0.00    +0.000 C 
ATOM     44  C   UNL     1      12.330  41.592  18.047  0.00  0.00    +0.000 C 
ATOM     45  C   UNL     1      12.474  42.597  17.072  0.00  0.00    +0.000 C 
ATOM     46  C   UNL     1      13.784  45.232  19.601  0.00  0.00    +0.000 C 
ATOM     47  C   UNL     1      13.769  40.527  19.771  0.00  0.00    +0.000 C 
ATOM     48  C   UNL     1      11.250  40.823  20.197  0.00  0.00    +0.000 C 
BRANCH  45  49
ATOM     49  O   UNL     1      12.950  42.317  15.827  0.00  0.00    +0.000 OA
ATOM     50  H   UNL     1      13.501  43.035  15.469  0.00  0.00    +0.000 HD
ENDBRANCH  45  49
ENDBRANCH  38  40
ENDBRANCH  37  38
ENDBRANCH  34  37
ENDBRANCH  33  34
ENDBRANCH  31  33
ENDBRANCH  29  32
ENDBRANCH  28  29
ENDBRANCH   1  28
TORSDOF 19
ENDMDL
MODEL 2
REMARK VINA RESULT:      -6.0     20.620     25.232
REMARK  Name = 5281239_Fucoxanthin.pdbqt.pdb
REMARK  19 active torsions:
REMARK  status: ('A' for Active; 'I' for Inactive)
REMARK    1  A    between atoms: C_1  and  C_5
REMARK    2  A    between atoms: C_2  and  C_26
REMARK    3  A    between atoms: C_3  and  C_5
REMARK    4  A    between atoms: C_3  and  C_7
REMARK    5  A    between atoms: C_6  and  C_10
REMARK    6  A    between atoms: C_8  and  C_10
REMARK    7  A    between atoms: C_8  and  C_12
REMARK    8  A    between atoms: C_12  and  C_13
REMARK    9  A    between atoms: C_13  and  C_15
REMARK   10  A    between atoms: C_20  and  O_24
REMARK   11  A    between atoms: C_26  and  C_27
REMARK   12  A    between atoms: C_27  and  C_30
REMARK   13  A    between atoms: C_29  and  C_33
REMARK   14  A    between atoms: C_31  and  C_33
REMARK   15  A    between atoms: C_31  and  C_44
REMARK   16  A    between atoms: C_35  and  O_45
REMARK   17  A    between atoms: C_37  and  O_47
REMARK   18  A    between atoms: C_39  and  C_43
REMARK   19  A    between atoms: O_47  and  C_49
REMARK                            x       y       z     vdW  Elec       q    Type
REMARK                         _______ _______ _______ _____ _____    ______ ____
ROOT
ATOM      1  C   UNL     1      -4.319  16.500   9.943  0.00  0.00    +0.000 C 
ATOM      2  C   UNL     1      -4.865  16.757  10.980  0.00  0.00    +0.000 C 
ENDROOT
BRANCH   2   3
ATOM      3  C   UNL     1      -5.566  17.077  12.306  0.00  0.00    +0.000 C 
BRANCH   3   4
ATOM      4  C   UNL     1      -6.161  17.348  13.425  0.00  0.00    +0.000 C 
ATOM      5  C   UNL     1      -5.358  17.774  14.615  0.00  0.00    +0.000 C 
BRANCH   4   7
ATOM      6  C   UNL     1      -8.771  17.238  13.576  0.00  0.00    +0.000 C 
ATOM      7  C   UNL     1      -7.573  17.289  13.505  0.00  0.00    +0.000 C 
BRANCH   6   8
ATOM      8  C   UNL     1     -10.300  17.175  13.671  0.00  0.00    +0.000 C 
BRANCH   8   9
ATOM      9  C   UNL     1     -11.594  17.127  13.743  0.00  0.00    +0.000 C 
ATOM     10  C   UNL     1     -12.286  15.827  14.014  0.00  0.00    +0.000 C 
BRANCH   9  12
ATOM     11  C   UNL     1     -13.012  19.263  13.203  0.00  0.00    +0.000 C 
ATOM     12  C   UNL     1     -12.358  18.284  13.450  0.00  0.00    +0.000 C 
BRANCH  11  18
ATOM     13  C   UNL     1     -13.882  20.880  11.498  0.00  0.00    +0.000 C 
ATOM     14  C   UNL     1     -14.411  21.127  14.033  0.00  0.00    +0.000 C 
ATOM     15  C   UNL     1     -14.956  21.880  11.421  0.00  0.00    +0.000 C 
ATOM     16  C   UNL     1     -15.837  22.568  12.277  0.00  0.00    +0.000 C 
ATOM     17  C   UNL     1     -15.413  22.053  13.519  0.00  0.00    +0.000 C 
ATOM     18  C   UNL     1     -13.731  20.334  12.929  0.00  0.00    +0.000 C 
ATOM     19  C   UNL     1     -12.533  21.516  11.067  0.00  0.00    +0.000 C 
ATOM     20  C   UNL     1     -14.244  19.705  10.539  0.00  0.00    +0.000 C 
ATOM     21  C   UNL     1     -13.377  21.851  14.902  0.00  0.00    +0.000 C 
BRANCH  14  22
ATOM     22  O   UNL     1     -15.061  20.235  14.911  0.00  0.00    +0.000 OA
ATOM     23  H   UNL     1     -15.543  19.664  14.284  0.00  0.00    +0.000 HD
ENDBRANCH  14  22
BRANCH  16  24
ATOM     24  O   UNL     1     -16.017  23.934  12.107  0.00  0.00    +0.000 OA
BRANCH  24  26
ATOM     25  O   UNL     1     -18.354  23.898  11.903  0.00  0.00    +0.000 OA
ATOM     26  C   UNL     1     -17.300  24.271  12.385  0.00  0.00    +0.000 C 
ATOM     27  C   UNL     1     -17.443  25.286  13.465  0.00  0.00    +0.000 C 
ENDBRANCH  24  26
ENDBRANCH  16  24
ENDBRANCH  11  18
ENDBRANCH   9  12
ENDBRANCH   8   9
ENDBRANCH   6   8
ENDBRANCH   4   7
ENDBRANCH   3   4
ENDBRANCH   2   3
BRANCH   1  28
ATOM     28  C   UNL     1      -3.624  16.163   8.619  0.00  0.00    +0.000 C 
BRANCH  28  29
ATOM     29  C   UNL     1      -3.044  15.869   7.498  0.00  0.00    +0.000 C 
ATOM     30  C   UNL     1      -3.851  15.771   6.239  0.00  0.00    +0.000 C 
BRANCH  29  32
ATOM     31  C   UNL     1      -0.477  15.368   7.464  0.00  0.00    +0.000 C 
ATOM     32  C   UNL     1      -1.654  15.604   7.474  0.00  0.00    +0.000 C 
BRANCH  31  33
ATOM     33  C   UNL     1       1.025  15.058   7.463  0.00  0.00    +0.000 C 
BRANCH  33  34
ATOM     34  C   UNL     1       2.298  14.793   7.472  0.00  0.00    +0.000 C 
ATOM     35  C   UNL     1       2.743  13.609   8.306  0.00  0.00    +0.000 C 
BRANCH  34  37
ATOM     36  O   UNL     1       3.916  15.246   5.773  0.00  0.00    +0.000 OA
ATOM     37  C   UNL     1       3.257  15.661   6.721  0.00  0.00    +0.000 C 
BRANCH  37  38
ATOM     38  C   UNL     1       3.448  17.044   7.086  0.00  0.00    +0.000 C 
BRANCH  38  40
ATOM     39  O   UNL     1       5.033  18.774   7.460  0.00  0.00    +0.000 OA
ATOM     40  C   UNL     1       3.617  18.444   7.428  0.00  0.00    +0.000 C 
ATOM     41  C   UNL     1       4.288  19.392   6.412  0.00  0.00    +0.000 C 
ATOM     42  C   UNL     1       2.723  19.079   8.552  0.00  0.00    +0.000 C 
ATOM     43  C   UNL     1       4.125  20.794   6.621  0.00  0.00    +0.000 C 
ATOM     44  C   UNL     1       2.900  20.531   8.469  0.00  0.00    +0.000 C 
ATOM     45  C   UNL     1       3.475  21.513   7.640  0.00  0.00    +0.000 C 
ATOM     46  C   UNL     1       4.721  18.943   5.013  0.00  0.00    +0.000 C 
ATOM     47  C   UNL     1       1.271  18.672   8.205  0.00  0.00    +0.000 C 
ATOM     48  C   UNL     1       3.209  18.459   9.881  0.00  0.00    +0.000 C 
BRANCH  45  49
ATOM     49  O   UNL     1       2.861  22.708   7.422  0.00  0.00    +0.000 OA
ATOM     50  H   UNL     1       3.424  23.465   7.663  0.00  0.00    +0.000 HD
ENDBRANCH  45  49
ENDBRANCH  38  40
ENDBRANCH  37  38
ENDBRANCH  34  37
ENDBRANCH  33  34
ENDBRANCH  31  33
ENDBRANCH  29  32
ENDBRANCH  28  29
ENDBRANCH   1  28
TORSDOF 19
ENDMDL
MODEL 3
REMARK VINA RESULT:      -5.9     22.373     27.015
REMARK  Name = 5281239_Fucoxanthin.pdbqt.pdb
REMARK  19 active torsions:
REMARK  status: ('A' for Active; 'I' for Inactive)
REMARK    1  A    between atoms: C_1  and  C_5
REMARK    2  A    between atoms: C_2  and  C_26
REMARK    3  A    between atoms: C_3  and  C_5
REMARK    4  A    between atoms: C_3  and  C_7
REMARK    5  A    between atoms: C_6  and  C_10
REMARK    6  A    between atoms: C_8  and  C_10
REMARK    7  A    between atoms: C_8  and  C_12
REMARK    8  A    between atoms: C_12  and  C_13
REMARK    9  A    between atoms: C_13  and  C_15
REMARK   10  A    between atoms: C_20  and  O_24
REMARK   11  A    between atoms: C_26  and  C_27
REMARK   12  A    between atoms: C_27  and  C_30
REMARK   13  A    between atoms: C_29  and  C_33
REMARK   14  A    between atoms: C_31  and  C_33
REMARK   15  A    between atoms: C_31  and  C_44
REMARK   16  A    between atoms: C_35  and  O_45
REMARK   17  A    between atoms: C_37  and  O_47
REMARK   18  A    between atoms: C_39  and  C_43
REMARK   19  A    between atoms: O_47  and  C_49
REMARK                            x       y       z     vdW  Elec       q    Type
REMARK                         _______ _______ _______ _____ _____    ______ ____
ROOT
ATOM      1  C   UNL     1      -4.238  16.717   9.902  0.00  0.00    +0.000 C 
ATOM      2  C   UNL     1      -4.718  16.684  11.001  0.00  0.00    +0.000 C 
ENDROOT
BRANCH   2   3
ATOM      3  C   UNL     1      -5.338  16.643  12.403  0.00  0.00    +0.000 C 
BRANCH   3   4
ATOM      4  C   UNL     1      -5.865  16.607  13.586  0.00  0.00    +0.000 C 
ATOM      5  C   UNL     1      -5.686  17.765  14.520  0.00  0.00    +0.000 C 
BRANCH   4   7
ATOM      6  C   UNL     1      -7.321  14.554  14.302  0.00  0.00    +0.000 C 
ATOM      7  C   UNL     1      -6.652  15.496  13.975  0.00  0.00    +0.000 C 
BRANCH   6   8
ATOM      8  C   UNL     1      -8.174  13.349  14.714  0.00  0.00    +0.000 C 
BRANCH   8   9
ATOM      9  C   UNL     1      -8.899  12.329  15.053  0.00  0.00    +0.000 C 
ATOM     10  C   UNL     1      -9.871  11.738  14.079  0.00  0.00    +0.000 C 
BRANCH   9  12
ATOM     11  C   UNL     1      -8.819  11.442  17.517  0.00  0.00    +0.000 C 
ATOM     12  C   UNL     1      -8.856  11.846  16.385  0.00  0.00    +0.000 C 
BRANCH  11  18
ATOM     13  C   UNL     1      -9.178   9.564  19.137  0.00  0.00    +0.000 C 
ATOM     14  C   UNL     1      -8.364  11.914  19.903  0.00  0.00    +0.000 C 
ATOM     15  C   UNL     1      -8.757   9.236  20.506  0.00  0.00    +0.000 C 
ATOM     16  C   UNL     1      -8.173   9.864  21.623  0.00  0.00    +0.000 C 
ATOM     17  C   UNL     1      -8.051  11.176  21.121  0.00  0.00    +0.000 C 
ATOM     18  C   UNL     1      -8.772  11.000  18.758  0.00  0.00    +0.000 C 
ATOM     19  C   UNL     1     -10.720   9.438  19.012  0.00  0.00    +0.000 C 
ATOM     20  C   UNL     1      -8.484   8.564  18.163  0.00  0.00    +0.000 C 
ATOM     21  C   UNL     1      -9.433  12.981  20.157  0.00  0.00    +0.000 C 
BRANCH  14  22
ATOM     22  O   UNL     1      -7.211  12.635  19.531  0.00  0.00    +0.000 OA
ATOM     23  H   UNL     1      -6.506  12.084  19.916  0.00  0.00    +0.000 HD
ENDBRANCH  14  22
BRANCH  16  24
ATOM     24  O   UNL     1      -8.711   9.639  22.883  0.00  0.00    +0.000 OA
BRANCH  24  26
ATOM     25  O   UNL     1      -7.807   7.806  24.035  0.00  0.00    +0.000 OA
ATOM     26  C   UNL     1      -7.823   8.962  23.652  0.00  0.00    +0.000 C 
ATOM     27  C   UNL     1      -6.672   9.781  24.119  0.00  0.00    +0.000 C 
ENDBRANCH  24  26
ENDBRANCH  16  24
ENDBRANCH  11  18
ENDBRANCH   9  12
ENDBRANCH   8   9
ENDBRANCH   6   8
ENDBRANCH   4   7
ENDBRANCH   3   4
ENDBRANCH   2   3
BRANCH   1  28
ATOM     28  C   UNL     1      -3.635  16.759   8.493  0.00  0.00    +0.000 C 
BRANCH  28  29
ATOM     29  C   UNL     1      -3.131  16.804   7.300  0.00  0.00    +0.000 C 
ATOM     30  C   UNL     1      -2.768  15.534   6.592  0.00  0.00    +0.000 C 
BRANCH  29  32
ATOM     31  C   UNL     1      -2.696  19.123   6.170  0.00  0.00    +0.000 C 
ATOM     32  C   UNL     1      -2.889  18.055   6.685  0.00  0.00    +0.000 C 
BRANCH  31  33
ATOM     33  C   UNL     1      -2.463  20.491   5.518  0.00  0.00    +0.000 C 
BRANCH  33  34
ATOM     34  C   UNL     1      -2.266  21.647   4.957  0.00  0.00    +0.000 C 
ATOM     35  C   UNL     1      -2.895  22.849   5.631  0.00  0.00    +0.000 C 
BRANCH  34  37
ATOM     36  O   UNL     1      -2.027  21.966   2.601  0.00  0.00    +0.000 OA
ATOM     37  C   UNL     1      -1.490  21.747   3.682  0.00  0.00    +0.000 C 
BRANCH  37  38
ATOM     38  C   UNL     1      -0.055  21.591   3.672  0.00  0.00    +0.000 C 
BRANCH  38  40
ATOM     39  O   UNL     1       2.015  22.351   4.557  0.00  0.00    +0.000 OA
ATOM     40  C   UNL     1       1.385  21.425   3.629  0.00  0.00    +0.000 C 
ATOM     41  C   UNL     1       2.130  20.972   4.903  0.00  0.00    +0.000 C 
ATOM     42  C   UNL     1       2.100  21.224   2.245  0.00  0.00    +0.000 C 
ATOM     43  C   UNL     1       3.463  20.486   4.742  0.00  0.00    +0.000 C 
ATOM     44  C   UNL     1       3.470  20.791   2.530  0.00  0.00    +0.000 C 
ATOM     45  C   UNL     1       4.278  20.369   3.603  0.00  0.00    +0.000 C 
ATOM     46  C   UNL     1       1.410  20.611   6.205  0.00  0.00    +0.000 C 
ATOM     47  C   UNL     1       1.301  20.110   1.525  0.00  0.00    +0.000 C 
ATOM     48  C   UNL     1       2.006  22.583   1.518  0.00  0.00    +0.000 C 
BRANCH  45  49
ATOM     49  O   UNL     1       5.196  19.375   3.453  0.00  0.00    +0.000 OA
ATOM     50  H   UNL     1       5.330  18.866   4.273  0.00  0.00    +0.000 HD
ENDBRANCH  45  49
ENDBRANCH  38  40
ENDBRANCH  37  38
ENDBRANCH  34  37
ENDBRANCH  33  34
ENDBRANCH  31  33
ENDBRANCH  29  32
ENDBRANCH  28  29
ENDBRANCH   1  28
TORSDOF 19
ENDMDL
MODEL 4
REMARK VINA RESULT:      -5.8     29.072     33.910
REMARK  Name = 5281239_Fucoxanthin.pdbqt.pdb
REMARK  19 active torsions:
REMARK  status: ('A' for Active; 'I' for Inactive)
REMARK    1  A    between atoms: C_1  and  C_5
REMARK    2  A    between atoms: C_2  and  C_26
REMARK    3  A    between atoms: C_3  and  C_5
REMARK    4  A    between atoms: C_3  and  C_7
REMARK    5  A    between atoms: C_6  and  C_10
REMARK    6  A    between atoms: C_8  and  C_10
REMARK    7  A    between atoms: C_8  and  C_12
REMARK    8  A    between atoms: C_12  and  C_13
REMARK    9  A    between atoms: C_13  and  C_15
REMARK   10  A    between atoms: C_20  and  O_24
REMARK   11  A    between atoms: C_26  and  C_27
REMARK   12  A    between atoms: C_27  and  C_30
REMARK   13  A    between atoms: C_29  and  C_33
REMARK   14  A    between atoms: C_31  and  C_33
REMARK   15  A    between atoms: C_31  and  C_44
REMARK   16  A    between atoms: C_35  and  O_45
REMARK   17  A    between atoms: C_37  and  O_47
REMARK   18  A    between atoms: C_39  and  C_43
REMARK   19  A    between atoms: O_47  and  C_49
REMARK                            x       y       z     vdW  Elec       q    Type
REMARK                         _______ _______ _______ _____ _____    ______ ____
ROOT
ATOM      1  C   UNL     1      -0.207  63.950  -2.898  0.00  0.00    +0.000 C 
ATOM      2  C   UNL     1      -0.935  64.265  -1.997  0.00  0.00    +0.000 C 
ENDROOT
BRANCH   2   3
ATOM      3  C   UNL     1      -1.859  64.668  -0.842  0.00  0.00    +0.000 C 
BRANCH   3   4
ATOM      4  C   UNL     1      -2.639  65.006   0.137  0.00  0.00    +0.000 C 
ATOM      5  C   UNL     1      -4.120  65.082  -0.079  0.00  0.00    +0.000 C 
BRANCH   4   7
ATOM      6  C   UNL     1      -1.635  65.463   2.509  0.00  0.00    +0.000 C 
ATOM      7  C   UNL     1      -2.095  65.251   1.420  0.00  0.00    +0.000 C 
BRANCH   6   8
ATOM      8  C   UNL     1      -1.053  65.734   3.901  0.00  0.00    +0.000 C 
BRANCH   8   9
ATOM      9  C   UNL     1      -0.555  65.954   5.078  0.00  0.00    +0.000 C 
ATOM     10  C   UNL     1       0.518  66.982   5.262  0.00  0.00    +0.000 C 
BRANCH   9  12
ATOM     11  C   UNL     1      -1.271  64.450   7.100  0.00  0.00    +0.000 C 
ATOM     12  C   UNL     1      -0.945  65.140   6.171  0.00  0.00    +0.000 C 
BRANCH  11  18
ATOM     13  C   UNL     1      -2.789  62.686   8.030  0.00  0.00    +0.000 C 
ATOM     14  C   UNL     1      -0.929  63.804   9.464  0.00  0.00    +0.000 C 
ATOM     15  C   UNL     1      -2.785  61.765   9.174  0.00  0.00    +0.000 C 
ATOM     16  C   UNL     1      -2.095  61.572  10.387  0.00  0.00    +0.000 C 
ATOM     17  C   UNL     1      -1.219  62.675  10.340  0.00  0.00    +0.000 C 
ATOM     18  C   UNL     1      -1.625  63.689   8.117  0.00  0.00    +0.000 C 
ATOM     19  C   UNL     1      -4.122  63.479   7.992  0.00  0.00    +0.000 C 
ATOM     20  C   UNL     1      -2.637  61.841   6.728  0.00  0.00    +0.000 C 
ATOM     21  C   UNL     1      -1.265  65.137  10.140  0.00  0.00    +0.000 C 
BRANCH  14  22
ATOM     22  O   UNL     1       0.466  63.842   9.262  0.00  0.00    +0.000 OA
ATOM     23  H   UNL     1       0.775  63.189   9.917  0.00  0.00    +0.000 HD
ENDBRANCH  14  22
BRANCH  16  24
ATOM     24  O   UNL     1      -2.818  61.295  11.540  0.00  0.00    +0.000 OA
BRANCH  24  26
ATOM     25  O   UNL     1      -3.324  59.128  10.797  0.00  0.00    +0.000 OA
ATOM     26  C   UNL     1      -3.567  60.179  11.361  0.00  0.00    +0.000 C 
ATOM     27  C   UNL     1      -4.931  60.261  11.950  0.00  0.00    +0.000 C 
ENDBRANCH  24  26
ENDBRANCH  16  24
ENDBRANCH  11  18
ENDBRANCH   9  12
ENDBRANCH   8   9
ENDBRANCH   6   8
ENDBRANCH   4   7
ENDBRANCH   3   4
ENDBRANCH   2   3
BRANCH   1  28
ATOM     28  C   UNL     1       0.731  63.550  -4.042  0.00  0.00    +0.000 C 
BRANCH  28  29
ATOM     29  C   UNL     1       1.528  63.202  -5.002  0.00  0.00    +0.000 C 
ATOM     30  C   UNL     1       2.617  64.130  -5.446  0.00  0.00    +0.000 C 
BRANCH  29  32
ATOM     31  C   UNL     1       1.191  60.901  -6.201  0.00  0.00    +0.000 C 
ATOM     32  C   UNL     1       1.342  61.961  -5.656  0.00  0.00    +0.000 C 
BRANCH  31  33
ATOM     33  C   UNL     1       1.007  59.540  -6.884  0.00  0.00    +0.000 C 
BRANCH  33  34
ATOM     34  C   UNL     1       0.847  58.384  -7.456  0.00  0.00    +0.000 C 
ATOM     35  C   UNL     1      -0.309  57.535  -6.969  0.00  0.00    +0.000 C 
BRANCH  34  37
ATOM     36  O   UNL     1       1.445  57.653  -9.652  0.00  0.00    +0.000 OA
ATOM     37  C   UNL     1       1.803  57.922  -8.509  0.00  0.00    +0.000 C 
BRANCH  37  38
ATOM     38  C   UNL     1       3.210  57.773  -8.221  0.00  0.00    +0.000 C 
BRANCH  38  40
ATOM     39  O   UNL     1       5.348  58.772  -8.498  0.00  0.00    +0.000 OA
ATOM     40  C   UNL     1       4.630  57.625  -7.966  0.00  0.00    +0.000 C 
ATOM     41  C   UNL     1       5.349  58.661  -7.077  0.00  0.00    +0.000 C 
ATOM     42  C   UNL     1       5.309  56.221  -8.162  0.00  0.00    +0.000 C 
ATOM     43  C   UNL     1       6.633  58.304  -6.565  0.00  0.00    +0.000 C 
ATOM     44  C   UNL     1       6.640  56.303  -7.557  0.00  0.00    +0.000 C 
ATOM     45  C   UNL     1       7.422  57.156  -6.754  0.00  0.00    +0.000 C 
ATOM     46  C   UNL     1       4.616  59.809  -6.377  0.00  0.00    +0.000 C 
ATOM     47  C   UNL     1       4.409  55.218  -7.400  0.00  0.00    +0.000 C 
ATOM     48  C   UNL     1       5.322  55.965  -9.685  0.00  0.00    +0.000 C 
BRANCH  45  49
ATOM     49  O   UNL     1       8.250  56.664  -5.791  0.00  0.00    +0.000 OA
ATOM     50  H   UNL     1       8.747  55.883  -6.092  0.00  0.00    +0.000 HD
ENDBRANCH  45  49
ENDBRANCH  38  40
ENDBRANCH  37  38
ENDBRANCH  34  37
ENDBRANCH  33  34
ENDBRANCH  31  33
ENDBRANCH  29  32
ENDBRANCH  28  29
ENDBRANCH   1  28
TORSDOF 19
ENDMDL
MODEL 5
REMARK VINA RESULT:      -5.7     18.687     21.284
REMARK  Name = 5281239_Fucoxanthin.pdbqt.pdb
REMARK  19 active torsions:
REMARK  status: ('A' for Active; 'I' for Inactive)
REMARK    1  A    between atoms: C_1  and  C_5
REMARK    2  A    between atoms: C_2  and  C_26
REMARK    3  A    between atoms: C_3  and  C_5
REMARK    4  A    between atoms: C_3  and  C_7
REMARK    5  A    between atoms: C_6  and  C_10
REMARK    6  A    between atoms: C_8  and  C_10
REMARK    7  A    between atoms: C_8  and  C_12
REMARK    8  A    between atoms: C_12  and  C_13
REMARK    9  A    between atoms: C_13  and  C_15
REMARK   10  A    between atoms: C_20  and  O_24
REMARK   11  A    between atoms: C_26  and  C_27
REMARK   12  A    between atoms: C_27  and  C_30
REMARK   13  A    between atoms: C_29  and  C_33
REMARK   14  A    between atoms: C_31  and  C_33
REMARK   15  A    between atoms: C_31  and  C_44
REMARK   16  A    between atoms: C_35  and  O_45
REMARK   17  A    between atoms: C_37  and  O_47
REMARK   18  A    between atoms: C_39  and  C_43
REMARK   19  A    between atoms: O_47  and  C_49
REMARK                            x       y       z     vdW  Elec       q    Type
REMARK                         _______ _______ _______ _____ _____    ______ ____
ROOT
ATOM      1  C   UNL     1      -1.071  55.526  18.618  0.00  0.00    +0.000 C 
ATOM      2  C   UNL     1      -1.367  54.532  19.222  0.00  0.00    +0.000 C 
ENDROOT
BRANCH   2   3
ATOM      3  C   UNL     1      -1.740  53.263  19.997  0.00  0.00    +0.000 C 
BRANCH   3   4
ATOM      4  C   UNL     1      -2.055  52.192  20.656  0.00  0.00    +0.000 C 
ATOM      5  C   UNL     1      -1.981  52.187  22.153  0.00  0.00    +0.000 C 
BRANCH   4   7
ATOM      6  C   UNL     1      -2.907  50.077  19.374  0.00  0.00    +0.000 C 
ATOM      7  C   UNL     1      -2.515  51.047  19.964  0.00  0.00    +0.000 C 
BRANCH   6   8
ATOM      8  C   UNL     1      -3.404  48.840  18.617  0.00  0.00    +0.000 C 
BRANCH   8   9
ATOM      9  C   UNL     1      -3.819  47.788  17.983  0.00  0.00    +0.000 C 
ATOM     10  C   UNL     1      -5.280  47.600  17.709  0.00  0.00    +0.000 C 
BRANCH   9  12
ATOM     11  C   UNL     1      -2.126  45.886  17.365  0.00  0.00    +0.000 C 
ATOM     12  C   UNL     1      -2.904  46.758  17.652  0.00  0.00    +0.000 C 
BRANCH  11  18
ATOM     13  C   UNL     1      -0.846  44.658  15.595  0.00  0.00    +0.000 C 
ATOM     14  C   UNL     1      -0.718  43.992  18.107  0.00  0.00    +0.000 C 
ATOM     15  C   UNL     1       0.313  43.756  15.544  0.00  0.00    +0.000 C 
ATOM     16  C   UNL     1       1.102  42.981  16.415  0.00  0.00    +0.000 C 
ATOM     17  C   UNL     1       0.436  43.237  17.631  0.00  0.00    +0.000 C 
ATOM     18  C   UNL     1      -1.278  44.928  17.048  0.00  0.00    +0.000 C 
ATOM     19  C   UNL     1      -2.042  44.028  14.833  0.00  0.00    +0.000 C 
ATOM     20  C   UNL     1      -0.440  46.006  14.925  0.00  0.00    +0.000 C 
ATOM     21  C   UNL     1      -1.810  43.062  18.646  0.00  0.00    +0.000 C 
BRANCH  14  22
ATOM     22  O   UNL     1      -0.304  44.750  19.222  0.00  0.00    +0.000 OA
ATOM     23  H   UNL     1       0.657  44.587  19.220  0.00  0.00    +0.000 HD
ENDBRANCH  14  22
BRANCH  16  24
ATOM     24  O   UNL     1       1.431  41.681  16.054  0.00  0.00    +0.000 OA
BRANCH  24  26
ATOM     25  O   UNL     1       2.681  40.471  17.628  0.00  0.00    +0.000 OA
ATOM     26  C   UNL     1       2.536  41.278  16.729  0.00  0.00    +0.000 C 
ATOM     27  C   UNL     1       3.791  41.953  16.299  0.00  0.00    +0.000 C 
ENDBRANCH  24  26
ENDBRANCH  16  24
ENDBRANCH  11  18
ENDBRANCH   9  12
ENDBRANCH   8   9
ENDBRANCH   6   8
ENDBRANCH   4   7
ENDBRANCH   3   4
ENDBRANCH   2   3
BRANCH   1  28
ATOM     28  C   UNL     1      -0.684  56.797  17.855  0.00  0.00    +0.000 C 
BRANCH  28  29
ATOM     29  C   UNL     1      -0.350  57.875  17.217  0.00  0.00    +0.000 C 
ATOM     30  C   UNL     1       0.982  58.512  17.469  0.00  0.00    +0.000 C 
BRANCH  29  32
ATOM     31  C   UNL     1      -2.036  58.960  15.536  0.00  0.00    +0.000 C 
ATOM     32  C   UNL     1      -1.262  58.468  16.312  0.00  0.00    +0.000 C 
BRANCH  31  33
ATOM     33  C   UNL     1      -3.023  59.575  14.537  0.00  0.00    +0.000 C 
BRANCH  33  34
ATOM     34  C   UNL     1      -3.858  60.089  13.683  0.00  0.00    +0.000 C 
ATOM     35  C   UNL     1      -5.131  60.684  14.248  0.00  0.00    +0.000 C 
BRANCH  34  37
ATOM     36  O   UNL     1      -3.892  59.083  11.515  0.00  0.00    +0.000 OA
ATOM     37  C   UNL     1      -3.569  60.037  12.217  0.00  0.00    +0.000 C 
BRANCH  37  38
ATOM     38  C   UNL     1      -2.891  61.127  11.555  0.00  0.00    +0.000 C 
BRANCH  38  40
ATOM     39  O   UNL     1      -2.377  63.443  11.675  0.00  0.00    +0.000 OA
ATOM     40  C   UNL     1      -2.241  62.233  10.879  0.00  0.00    +0.000 C 
ATOM     41  C   UNL     1      -1.048  62.937  11.561  0.00  0.00    +0.000 C 
ATOM     42  C   UNL     1      -2.405  62.395   9.325  0.00  0.00    +0.000 C 
ATOM     43  C   UNL     1      -0.225  63.766  10.741  0.00  0.00    +0.000 C 
ATOM     44  C   UNL     1      -1.421  63.390   8.893  0.00  0.00    +0.000 C 
ATOM     45  C   UNL     1      -0.315  64.113   9.382  0.00  0.00    +0.000 C 
ATOM     46  C   UNL     1      -0.459  62.471  12.895  0.00  0.00    +0.000 C 
ATOM     47  C   UNL     1      -2.088  61.001   8.730  0.00  0.00    +0.000 C 
ATOM     48  C   UNL     1      -3.873  62.817   9.094  0.00  0.00    +0.000 C 
BRANCH  45  49
ATOM     49  O   UNL     1       0.780  64.347   8.607  0.00  0.00    +0.000 OA
ATOM     50  H   UNL     1       1.442  64.901   9.057  0.00  0.00    +0.000 HD
ENDBRANCH  45  49
ENDBRANCH  38  40
ENDBRANCH  37  38
ENDBRANCH  34  37
ENDBRANCH  33  34
ENDBRANCH  31  33
ENDBRANCH  29  32
ENDBRANCH  28  29
ENDBRANCH   1  28
TORSDOF 19
ENDMDL
MODEL 6
REMARK VINA RESULT:      -5.7     32.801     35.860
REMARK  Name = 5281239_Fucoxanthin.pdbqt.pdb
REMARK  19 active torsions:
REMARK  status: ('A' for Active; 'I' for Inactive)
REMARK    1  A    between atoms: C_1  and  C_5
REMARK    2  A    between atoms: C_2  and  C_26
REMARK    3  A    between atoms: C_3  and  C_5
REMARK    4  A    between atoms: C_3  and  C_7
REMARK    5  A    between atoms: C_6  and  C_10
REMARK    6  A    between atoms: C_8  and  C_10
REMARK    7  A    between atoms: C_8  and  C_12
REMARK    8  A    between atoms: C_12  and  C_13
REMARK    9  A    between atoms: C_13  and  C_15
REMARK   10  A    between atoms: C_20  and  O_24
REMARK   11  A    between atoms: C_26  and  C_27
REMARK   12  A    between atoms: C_27  and  C_30
REMARK   13  A    between atoms: C_29  and  C_33
REMARK   14  A    between atoms: C_31  and  C_33
REMARK   15  A    between atoms: C_31  and  C_44
REMARK   16  A    between atoms: C_35  and  O_45
REMARK   17  A    between atoms: C_37  and  O_47
REMARK   18  A    between atoms: C_39  and  C_43
REMARK   19  A    between atoms: O_47  and  C_49
REMARK                            x       y       z     vdW  Elec       q    Type
REMARK                         _______ _______ _______ _____ _____    ______ ____
ROOT
ATOM      1  C   UNL     1       9.096  59.419  -6.640  0.00  0.00    +0.000 C 
ATOM      2  C   UNL     1       8.905  60.438  -6.036  0.00  0.00    +0.000 C 
ENDROOT
BRANCH   2   3
ATOM      3  C   UNL     1       8.670  61.743  -5.265  0.00  0.00    +0.000 C 
BRANCH   3   4
ATOM      4  C   UNL     1       8.472  62.843  -4.611  0.00  0.00    +0.000 C 
ATOM      5  C   UNL     1       9.639  63.621  -4.085  0.00  0.00    +0.000 C 
BRANCH   4   7
ATOM      6  C   UNL     1       6.039  63.753  -4.288  0.00  0.00    +0.000 C 
ATOM      7  C   UNL     1       7.156  63.335  -4.438  0.00  0.00    +0.000 C 
BRANCH   6   8
ATOM      8  C   UNL     1       4.617  64.291  -4.095  0.00  0.00    +0.000 C 
BRANCH   8   9
ATOM      9  C   UNL     1       3.414  64.742  -3.922  0.00  0.00    +0.000 C 
ATOM     10  C   UNL     1       3.170  65.914  -3.022  0.00  0.00    +0.000 C 
BRANCH   9  12
ATOM     11  C   UNL     1       1.379  63.474  -4.980  0.00  0.00    +0.000 C 
ATOM     12  C   UNL     1       2.315  64.053  -4.494  0.00  0.00    +0.000 C 
BRANCH  11  18
ATOM     13  C   UNL     1      -0.456  63.418  -6.685  0.00  0.00    +0.000 C 
ATOM     14  C   UNL     1      -0.132  61.515  -4.941  0.00  0.00    +0.000 C 
ATOM     15  C   UNL     1      -1.340  62.402  -7.273  0.00  0.00    +0.000 C 
ATOM     16  C   UNL     1      -1.751  61.077  -7.034  0.00  0.00    +0.000 C 
ATOM     17  C   UNL     1      -1.039  60.818  -5.845  0.00  0.00    +0.000 C 
ATOM     18  C   UNL     1       0.351  62.840  -5.509  0.00  0.00    +0.000 C 
ATOM     19  C   UNL     1      -1.295  64.616  -6.167  0.00  0.00    +0.000 C 
ATOM     20  C   UNL     1       0.531  63.901  -7.792  0.00  0.00    +0.000 C 
ATOM     21  C   UNL     1      -0.763  61.711  -3.559  0.00  0.00    +0.000 C 
BRANCH  14  22
ATOM     22  O   UNL     1       0.979  60.675  -4.717  0.00  0.00    +0.000 OA
ATOM     23  H   UNL     1       1.172  60.857  -3.779  0.00  0.00    +0.000 HD
ENDBRANCH  14  22
BRANCH  16  24
ATOM     24  O   UNL     1      -3.099  60.759  -7.131  0.00  0.00    +0.000 OA
BRANCH  24  26
ATOM     25  O   UNL     1      -2.562  59.550  -9.069  0.00  0.00    +0.000 OA
ATOM     26  C   UNL     1      -3.304  59.924  -8.179  0.00  0.00    +0.000 C 
ATOM     27  C   UNL     1      -4.686  59.378  -8.262  0.00  0.00    +0.000 C 
ENDBRANCH  24  26
ENDBRANCH  16  24
ENDBRANCH  11  18
ENDBRANCH   9  12
ENDBRANCH   8   9
ENDBRANCH   6   8
ENDBRANCH   4   7
ENDBRANCH   3   4
ENDBRANCH   2   3
BRANCH   1  28
ATOM     28  C   UNL     1       9.349  58.119  -7.413  0.00  0.00    +0.000 C 
BRANCH  28  29
ATOM     29  C   UNL     1       9.554  57.016  -8.061  0.00  0.00    +0.000 C 
ATOM     30  C   UNL     1      10.827  56.253  -7.857  0.00  0.00    +0.000 C 
BRANCH  29  32
ATOM     31  C   UNL     1       7.765  56.177  -9.775  0.00  0.00    +0.000 C 
ATOM     32  C   UNL     1       8.590  56.556  -8.989  0.00  0.00    +0.000 C 
BRANCH  31  33
ATOM     33  C   UNL     1       6.703  55.708 -10.777  0.00  0.00    +0.000 C 
BRANCH  33  34
ATOM     34  C   UNL     1       5.796  55.313 -11.620  0.00  0.00    +0.000 C 
ATOM     35  C   UNL     1       6.256  54.407 -12.744  0.00  0.00    +0.000 C 
BRANCH  34  37
ATOM     36  O   UNL     1       3.552  55.632 -12.379  0.00  0.00    +0.000 OA
ATOM     37  C   UNL     1       4.383  55.785 -11.488  0.00  0.00    +0.000 C 
BRANCH  37  38
ATOM     38  C   UNL     1       3.930  56.447 -10.288  0.00  0.00    +0.000 C 
BRANCH  38  40
ATOM     39  O   UNL     1       2.626  56.158  -8.324  0.00  0.00    +0.000 OA
ATOM     40  C   UNL     1       3.453  57.087  -9.078  0.00  0.00    +0.000 C 
ATOM     41  C   UNL     1       3.863  56.508  -7.707  0.00  0.00    +0.000 C 
ATOM     42  C   UNL     1       2.960  58.578  -9.133  0.00  0.00    +0.000 C 
ATOM     43  C   UNL     1       3.677  57.343  -6.564  0.00  0.00    +0.000 C 
ATOM     44  C   UNL     1       2.829  59.036  -7.747  0.00  0.00    +0.000 C 
ATOM     45  C   UNL     1       3.133  58.632  -6.433  0.00  0.00    +0.000 C 
ATOM     46  C   UNL     1       4.823  55.325  -7.556  0.00  0.00    +0.000 C 
ATOM     47  C   UNL     1       4.075  59.354  -9.874  0.00  0.00    +0.000 C 
ATOM     48  C   UNL     1       1.631  58.557  -9.919  0.00  0.00    +0.000 C 
BRANCH  45  49
ATOM     49  O   UNL     1       3.567  59.523  -5.499  0.00  0.00    +0.000 OA
ATOM     50  H   UNL     1       4.370  59.219  -5.039  0.00  0.00    +0.000 HD
ENDBRANCH  45  49
ENDBRANCH  38  40
ENDBRANCH  37  38
ENDBRANCH  34  37
ENDBRANCH  33  34
ENDBRANCH  31  33
ENDBRANCH  29  32
ENDBRANCH  28  29
ENDBRANCH   1  28
TORSDOF 19
ENDMDL
MODEL 7
REMARK VINA RESULT:      -5.6      7.315     16.053
REMARK  Name = 5281239_Fucoxanthin.pdbqt.pdb
REMARK  19 active torsions:
REMARK  status: ('A' for Active; 'I' for Inactive)
REMARK    1  A    between atoms: C_1  and  C_5
REMARK    2  A    between atoms: C_2  and  C_26
REMARK    3  A    between atoms: C_3  and  C_5
REMARK    4  A    between atoms: C_3  and  C_7
REMARK    5  A    between atoms: C_6  and  C_10
REMARK    6  A    between atoms: C_8  and  C_10
REMARK    7  A    between atoms: C_8  and  C_12
REMARK    8  A    between atoms: C_12  and  C_13
REMARK    9  A    between atoms: C_13  and  C_15
REMARK   10  A    between atoms: C_20  and  O_24
REMARK   11  A    between atoms: C_26  and  C_27
REMARK   12  A    between atoms: C_27  and  C_30
REMARK   13  A    between atoms: C_29  and  C_33
REMARK   14  A    between atoms: C_31  and  C_33
REMARK   15  A    between atoms: C_31  and  C_44
REMARK   16  A    between atoms: C_35  and  O_45
REMARK   17  A    between atoms: C_37  and  O_47
REMARK   18  A    between atoms: C_39  and  C_43
REMARK   19  A    between atoms: O_47  and  C_49
REMARK                            x       y       z     vdW  Elec       q    Type
REMARK                         _______ _______ _______ _____ _____    ______ ____
ROOT
ATOM      1  C   UNL     1      18.705  39.110  13.663  0.00  0.00    +0.000 C 
ATOM      2  C   UNL     1      18.773  40.170  13.106  0.00  0.00    +0.000 C 
ENDROOT
BRANCH   2   3
ATOM      3  C   UNL     1      18.854  41.529  12.398  0.00  0.00    +0.000 C 
BRANCH   3   4
ATOM      4  C   UNL     1      18.924  42.674  11.797  0.00  0.00    +0.000 C 
ATOM      5  C   UNL     1      20.260  43.245  11.430  0.00  0.00    +0.000 C 
BRANCH   4   7
ATOM      6  C   UNL     1      16.730  43.943  11.147  0.00  0.00    +0.000 C 
ATOM      7  C   UNL     1      17.737  43.360  11.444  0.00  0.00    +0.000 C 
BRANCH   6   8
ATOM      8  C   UNL     1      15.446  44.691  10.771  0.00  0.00    +0.000 C 
BRANCH   8   9
ATOM      9  C   UNL     1      14.355  45.315  10.451  0.00  0.00    +0.000 C 
ATOM     10  C   UNL     1      13.407  44.714   9.458  0.00  0.00    +0.000 C 
BRANCH   9  12
ATOM     11  C   UNL     1      13.908  47.725  11.375  0.00  0.00    +0.000 C 
ATOM     12  C   UNL     1      14.116  46.619  10.952  0.00  0.00    +0.000 C 
BRANCH  11  18
ATOM     13  C   UNL     1      14.796  49.988  11.983  0.00  0.00    +0.000 C 
ATOM     14  C   UNL     1      12.293  49.354  12.303  0.00  0.00    +0.000 C 
ATOM     15  C   UNL     1      14.240  51.327  12.224  0.00  0.00    +0.000 C 
ATOM     16  C   UNL     1      12.993  51.939  12.457  0.00  0.00    +0.000 C 
ATOM     17  C   UNL     1      12.163  50.799  12.452  0.00  0.00    +0.000 C 
ATOM     18  C   UNL     1      13.679  48.939  11.835  0.00  0.00    +0.000 C 
ATOM     19  C   UNL     1      15.711  49.573  13.166  0.00  0.00    +0.000 C 
ATOM     20  C   UNL     1      15.625  50.039  10.663  0.00  0.00    +0.000 C 
ATOM     21  C   UNL     1      11.911  48.623  13.593  0.00  0.00    +0.000 C 
BRANCH  14  22
ATOM     22  O   UNL     1      11.340  48.934  11.352  0.00  0.00    +0.000 OA
ATOM     23  H   UNL     1      11.491  49.573  10.631  0.00  0.00    +0.000 HD
ENDBRANCH  14  22
BRANCH  16  24
ATOM     24  O   UNL     1      12.882  52.885  13.467  0.00  0.00    +0.000 OA
BRANCH  24  26
ATOM     25  O   UNL     1      12.948  54.697  11.978  0.00  0.00    +0.000 OA
ATOM     26  C   UNL     1      12.527  54.084  12.943  0.00  0.00    +0.000 C 
ATOM     27  C   UNL     1      11.440  54.776  13.686  0.00  0.00    +0.000 C 
ENDBRANCH  24  26
ENDBRANCH  16  24
ENDBRANCH  11  18
ENDBRANCH   9  12
ENDBRANCH   8   9
ENDBRANCH   6   8
ENDBRANCH   4   7
ENDBRANCH   3   4
ENDBRANCH   2   3
BRANCH   1  28
ATOM     28  C   UNL     1      18.610  37.758  14.380  0.00  0.00    +0.000 C 
BRANCH  28  29
ATOM     29  C   UNL     1      18.542  36.615  14.986  0.00  0.00    +0.000 C 
ATOM     30  C   UNL     1      19.709  35.677  14.950  0.00  0.00    +0.000 C 
BRANCH  29  32
ATOM     31  C   UNL     1      16.335  35.910  16.202  0.00  0.00    +0.000 C 
ATOM     32  C   UNL     1      17.348  36.240  15.648  0.00  0.00    +0.000 C 
BRANCH  31  33
ATOM     33  C   UNL     1      15.041  35.474  16.900  0.00  0.00    +0.000 C 
BRANCH  33  34
ATOM     34  C   UNL     1      13.949  35.102  17.500  0.00  0.00    +0.000 C 
ATOM     35  C   UNL     1      13.668  33.614  17.545  0.00  0.00    +0.000 C 
BRANCH  34  37
ATOM     36  O   UNL     1      13.266  36.752  19.089  0.00  0.00    +0.000 OA
ATOM     37  C   UNL     1      13.013  36.121  18.067  0.00  0.00    +0.000 C 
BRANCH  37  38
ATOM     38  C   UNL     1      11.754  36.412  17.423  0.00  0.00    +0.000 C 
BRANCH  38  40
ATOM     39  O   UNL     1       9.784  37.729  17.591  0.00  0.00    +0.000 OA
ATOM     40  C   UNL     1      10.485  36.731  16.798  0.00  0.00    +0.000 C 
ATOM     41  C   UNL     1      10.226  38.173  16.310  0.00  0.00    +0.000 C 
ATOM     42  C   UNL     1       9.610  35.577  16.191  0.00  0.00    +0.000 C 
ATOM     43  C   UNL     1       9.140  38.370  15.404  0.00  0.00    +0.000 C 
ATOM     44  C   UNL     1       8.565  36.212  15.384  0.00  0.00    +0.000 C 
ATOM     45  C   UNL     1       8.196  37.473  14.876  0.00  0.00    +0.000 C 
ATOM     46  C   UNL     1      11.282  39.279  16.382  0.00  0.00    +0.000 C 
ATOM     47  C   UNL     1      10.573  34.751  15.305  0.00  0.00    +0.000 C 
ATOM     48  C   UNL     1       9.075  34.771  17.395  0.00  0.00    +0.000 C 
BRANCH  45  49
ATOM     49  O   UNL     1       7.667  37.610  13.629  0.00  0.00    +0.000 OA
ATOM     50  H   UNL     1       7.369  38.519  13.449  0.00  0.00    +0.000 HD
ENDBRANCH  45  49
ENDBRANCH  38  40
ENDBRANCH  37  38
ENDBRANCH  34  37
ENDBRANCH  33  34
ENDBRANCH  31  33
ENDBRANCH  29  32
ENDBRANCH  28  29
ENDBRANCH   1  28
TORSDOF 19
ENDMDL
MODEL 8
REMARK VINA RESULT:      -5.5      9.208     18.867
REMARK  Name = 5281239_Fucoxanthin.pdbqt.pdb
REMARK  19 active torsions:
REMARK  status: ('A' for Active; 'I' for Inactive)
REMARK    1  A    between atoms: C_1  and  C_5
REMARK    2  A    between atoms: C_2  and  C_26
REMARK    3  A    between atoms: C_3  and  C_5
REMARK    4  A    between atoms: C_3  and  C_7
REMARK    5  A    between atoms: C_6  and  C_10
REMARK    6  A    between atoms: C_8  and  C_10
REMARK    7  A    between atoms: C_8  and  C_12
REMARK    8  A    between atoms: C_12  and  C_13
REMARK    9  A    between atoms: C_13  and  C_15
REMARK   10  A    between atoms: C_20  and  O_24
REMARK   11  A    between atoms: C_26  and  C_27
REMARK   12  A    between atoms: C_27  and  C_30
REMARK   13  A    between atoms: C_29  and  C_33
REMARK   14  A    between atoms: C_31  and  C_33
REMARK   15  A    between atoms: C_31  and  C_44
REMARK   16  A    between atoms: C_35  and  O_45
REMARK   17  A    between atoms: C_37  and  O_47
REMARK   18  A    between atoms: C_39  and  C_43
REMARK   19  A    between atoms: O_47  and  C_49
REMARK                            x       y       z     vdW  Elec       q    Type
REMARK                         _______ _______ _______ _____ _____    ______ ____
ROOT
ATOM      1  C   UNL     1       5.104  50.390  20.578  0.00  0.00    +0.000 C 
ATOM      2  C   UNL     1       5.466  51.507  20.331  0.00  0.00    +0.000 C 
ENDROOT
BRANCH   2   3
ATOM      3  C   UNL     1       5.925  52.934  20.010  0.00  0.00    +0.000 C 
BRANCH   3   4
ATOM      4  C   UNL     1       6.318  54.139  19.738  0.00  0.00    +0.000 C 
ATOM      5  C   UNL     1       5.570  55.312  20.293  0.00  0.00    +0.000 C 
BRANCH   4   7
ATOM      6  C   UNL     1       8.469  54.518  18.297  0.00  0.00    +0.000 C 
ATOM      7  C   UNL     1       7.483  54.343  18.960  0.00  0.00    +0.000 C 
BRANCH   6   8
ATOM      8  C   UNL     1       9.726  54.745  17.450  0.00  0.00    +0.000 C 
BRANCH   8   9
ATOM      9  C   UNL     1      10.793  54.928  16.736  0.00  0.00    +0.000 C 
ATOM     10  C   UNL     1      11.428  56.283  16.662  0.00  0.00    +0.000 C 
BRANCH   9  12
ATOM     11  C   UNL     1      11.716  52.980  15.246  0.00  0.00    +0.000 C 
ATOM     12  C   UNL     1      11.292  53.872  15.933  0.00  0.00    +0.000 C 
BRANCH  11  18
ATOM     13  C   UNL     1      11.512  51.608  13.159  0.00  0.00    +0.000 C 
ATOM     14  C   UNL     1      13.366  51.165  14.929  0.00  0.00    +0.000 C 
ATOM     15  C   UNL     1      12.375  50.710  12.380  0.00  0.00    +0.000 C 
ATOM     16  C   UNL     1      13.594  50.017  12.515  0.00  0.00    +0.000 C 
ATOM     17  C   UNL     1      13.926  50.376  13.838  0.00  0.00    +0.000 C 
ATOM     18  C   UNL     1      12.175  52.002  14.491  0.00  0.00    +0.000 C 
ATOM     19  C   UNL     1      10.161  50.908  13.468  0.00  0.00    +0.000 C 
ATOM     20  C   UNL     1      11.261  52.894  12.314  0.00  0.00    +0.000 C 
ATOM     21  C   UNL     1      13.002  50.281  16.126  0.00  0.00    +0.000 C 
BRANCH  14  22
ATOM     22  O   UNL     1      14.382  52.019  15.405  0.00  0.00    +0.000 OA
ATOM     23  H   UNL     1      13.947  52.426  16.177  0.00  0.00    +0.000 HD
ENDBRANCH  14  22
BRANCH  16  24
ATOM     24  O   UNL     1      13.668  48.692  12.106  0.00  0.00    +0.000 OA
BRANCH  24  26
ATOM     25  O   UNL     1      13.609  47.467  14.106  0.00  0.00    +0.000 OA
ATOM     26  C   UNL     1      14.148  47.922  13.114  0.00  0.00    +0.000 C 
ATOM     27  C   UNL     1      15.592  47.586  12.989  0.00  0.00    +0.000 C 
ENDBRANCH  24  26
ENDBRANCH  16  24
ENDBRANCH  11  18
ENDBRANCH   9  12
ENDBRANCH   8   9
ENDBRANCH   6   8
ENDBRANCH   4   7
ENDBRANCH   3   4
ENDBRANCH   2   3
BRANCH   1  28
ATOM     28  C   UNL     1       4.638  48.961  20.882  0.00  0.00    +0.000 C 
BRANCH  28  29
ATOM     29  C   UNL     1       4.235  47.759  21.145  0.00  0.00    +0.000 C 
ATOM     30  C   UNL     1       4.322  47.228  22.544  0.00  0.00    +0.000 C 
BRANCH  29  32
ATOM     31  C   UNL     1       3.351  46.230  19.214  0.00  0.00    +0.000 C 
ATOM     32  C   UNL     1       3.750  46.935  20.101  0.00  0.00    +0.000 C 
BRANCH  31  33
ATOM     33  C   UNL     1       2.857  45.324  18.080  0.00  0.00    +0.000 C 
BRANCH  33  34
ATOM     34  C   UNL     1       2.434  44.564  17.114  0.00  0.00    +0.000 C 
ATOM     35  C   UNL     1       3.446  43.622  16.494  0.00  0.00    +0.000 C 
BRANCH  34  37
ATOM     36  O   UNL     1       0.461  45.748  16.472  0.00  0.00    +0.000 OA
ATOM     37  C   UNL     1       1.023  44.669  16.630  0.00  0.00    +0.000 C 
BRANCH  37  38
ATOM     38  C   UNL     1       0.254  43.487  16.321  0.00  0.00    +0.000 C 
BRANCH  38  40
ATOM     39  O   UNL     1       0.098  41.634  14.843  0.00  0.00    +0.000 OA
ATOM     40  C   UNL     1      -0.489  42.283  16.004  0.00  0.00    +0.000 C 
ATOM     41  C   UNL     1       0.226  40.917  16.068  0.00  0.00    +0.000 C 
ATOM     42  C   UNL     1      -2.058  42.300  16.078  0.00  0.00    +0.000 C 
ATOM     43  C   UNL     1      -0.597  39.750  16.097  0.00  0.00    +0.000 C 
ATOM     44  C   UNL     1      -2.505  40.907  16.004  0.00  0.00    +0.000 C 
ATOM     45  C   UNL     1      -1.992  39.595  16.038  0.00  0.00    +0.000 C 
ATOM     46  C   UNL     1       1.677  40.757  16.531  0.00  0.00    +0.000 C 
ATOM     47  C   UNL     1      -2.400  42.924  17.453  0.00  0.00    +0.000 C 
ATOM     48  C   UNL     1      -2.530  43.177  14.897  0.00  0.00    +0.000 C 
BRANCH  45  49
ATOM     49  O   UNL     1      -2.651  38.591  16.680  0.00  0.00    +0.000 OA
ATOM     50  H   UNL     1      -3.088  38.896  17.495  0.00  0.00    +0.000 HD
ENDBRANCH  45  49
ENDBRANCH  38  40
ENDBRANCH  37  38
ENDBRANCH  34  37
ENDBRANCH  33  34
ENDBRANCH  31  33
ENDBRANCH  29  32
ENDBRANCH  28  29
ENDBRANCH   1  28
TORSDOF 19
ENDMDL
MODEL 9
REMARK VINA RESULT:      -5.5     32.619     35.161
REMARK  Name = 5281239_Fucoxanthin.pdbqt.pdb
REMARK  19 active torsions:
REMARK  status: ('A' for Active; 'I' for Inactive)
REMARK    1  A    between atoms: C_1  and  C_5
REMARK    2  A    between atoms: C_2  and  C_26
REMARK    3  A    between atoms: C_3  and  C_5
REMARK    4  A    between atoms: C_3  and  C_7
REMARK    5  A    between atoms: C_6  and  C_10
REMARK    6  A    between atoms: C_8  and  C_10
REMARK    7  A    between atoms: C_8  and  C_12
REMARK    8  A    between atoms: C_12  and  C_13
REMARK    9  A    between atoms: C_13  and  C_15
REMARK   10  A    between atoms: C_20  and  O_24
REMARK   11  A    between atoms: C_26  and  C_27
REMARK   12  A    between atoms: C_27  and  C_30
REMARK   13  A    between atoms: C_29  and  C_33
REMARK   14  A    between atoms: C_31  and  C_33
REMARK   15  A    between atoms: C_31  and  C_44
REMARK   16  A    between atoms: C_35  and  O_45
REMARK   17  A    between atoms: C_37  and  O_47
REMARK   18  A    between atoms: C_39  and  C_43
REMARK   19  A    between atoms: O_47  and  C_49
REMARK                            x       y       z     vdW  Elec       q    Type
REMARK                         _______ _______ _______ _____ _____    ______ ____
ROOT
ATOM      1  C   UNL     1       0.172  60.243  -5.123  0.00  0.00    +0.000 C 
ATOM      2  C   UNL     1      -0.258  61.152  -4.468  0.00  0.00    +0.000 C 
ENDROOT
BRANCH   2   3
ATOM      3  C   UNL     1      -0.801  62.312  -3.625  0.00  0.00    +0.000 C 
BRANCH   3   4
ATOM      4  C   UNL     1      -1.257  63.293  -2.911  0.00  0.00    +0.000 C 
ATOM      5  C   UNL     1      -0.327  64.369  -2.439  0.00  0.00    +0.000 C 
BRANCH   4   7
ATOM      6  C   UNL     1      -3.814  63.442  -2.379  0.00  0.00    +0.000 C 
ATOM      7  C   UNL     1      -2.640  63.373  -2.622  0.00  0.00    +0.000 C 
BRANCH   6   8
ATOM      8  C   UNL     1      -5.314  63.531  -2.074  0.00  0.00    +0.000 C 
BRANCH   8   9
ATOM      9  C   UNL     1      -6.584  63.601  -1.824  0.00  0.00    +0.000 C 
ATOM     10  C   UNL     1      -7.079  64.386  -0.649  0.00  0.00    +0.000 C 
BRANCH   9  12
ATOM     11  C   UNL     1      -8.266  62.186  -3.251  0.00  0.00    +0.000 C 
ATOM     12  C   UNL     1      -7.496  62.838  -2.595  0.00  0.00    +0.000 C 
BRANCH  11  18
ATOM     13  C   UNL     1      -9.253  61.661  -5.493  0.00  0.00    +0.000 C 
ATOM     14  C   UNL     1     -10.029  60.452  -3.324  0.00  0.00    +0.000 C 
ATOM     15  C   UNL     1     -10.018  60.561  -6.095  0.00  0.00    +0.000 C 
ATOM     16  C   UNL     1     -10.746  59.423  -5.696  0.00  0.00    +0.000 C 
ATOM     17  C   UNL     1     -10.627  59.544  -4.296  0.00  0.00    +0.000 C 
ATOM     18  C   UNL     1      -9.107  61.473  -3.973  0.00  0.00    +0.000 C 
ATOM     19  C   UNL     1      -9.971  63.012  -5.757  0.00  0.00    +0.000 C 
ATOM     20  C   UNL     1      -7.836  61.678  -6.143  0.00  0.00    +0.000 C 
ATOM     21  C   UNL     1     -11.100  61.145  -2.476  0.00  0.00    +0.000 C 
BRANCH  14  22
ATOM     22  O   UNL     1      -9.289  59.675  -2.410  0.00  0.00    +0.000 OA
ATOM     23  H   UNL     1      -9.380  58.784  -2.796  0.00  0.00    +0.000 HD
ENDBRANCH  14  22
BRANCH  16  24
ATOM     24  O   UNL     1     -11.981  59.172  -6.278  0.00  0.00    +0.000 OA
BRANCH  24  26
ATOM     25  O   UNL     1     -11.512  58.023  -8.269  0.00  0.00    +0.000 OA
ATOM     26  C   UNL     1     -11.892  58.109  -7.115  0.00  0.00    +0.000 C 
ATOM     27  C   UNL     1     -12.351  56.825  -6.520  0.00  0.00    +0.000 C 
ENDBRANCH  24  26
ENDBRANCH  16  24
ENDBRANCH  11  18
ENDBRANCH   9  12
ENDBRANCH   8   9
ENDBRANCH   6   8
ENDBRANCH   4   7
ENDBRANCH   3   4
ENDBRANCH   2   3
BRANCH   1  28
ATOM     28  C   UNL     1       0.727  59.080  -5.953  0.00  0.00    +0.000 C 
BRANCH  28  29
ATOM     29  C   UNL     1       1.206  58.097  -6.648  0.00  0.00    +0.000 C 
ATOM     30  C   UNL     1       0.281  57.194  -7.405  0.00  0.00    +0.000 C 
BRANCH  29  32
ATOM     31  C   UNL     1       3.785  57.658  -6.681  0.00  0.00    +0.000 C 
ATOM     32  C   UNL     1       2.601  57.858  -6.659  0.00  0.00    +0.000 C 
BRANCH  31  33
ATOM     33  C   UNL     1       5.298  57.409  -6.726  0.00  0.00    +0.000 C 
BRANCH  33  34
ATOM     34  C   UNL     1       6.580  57.197  -6.773  0.00  0.00    +0.000 C 
ATOM     35  C   UNL     1       7.457  58.141  -5.975  0.00  0.00    +0.000 C 
BRANCH  34  37
ATOM     36  O   UNL     1       6.584  55.005  -7.724  0.00  0.00    +0.000 OA
ATOM     37  C   UNL     1       7.135  56.097  -7.620  0.00  0.00    +0.000 C 
BRANCH  37  38
ATOM     38  C   UNL     1       8.358  56.278  -8.364  0.00  0.00    +0.000 C 
BRANCH  38  40
ATOM     39  O   UNL     1      10.215  57.697  -8.788  0.00  0.00    +0.000 OA
ATOM     40  C   UNL     1       9.575  56.439  -9.137  0.00  0.00    +0.000 C 
ATOM     41  C   UNL     1      10.930  56.525  -8.401  0.00  0.00    +0.000 C 
ATOM     42  C   UNL     1       9.584  56.045 -10.657  0.00  0.00    +0.000 C 
ATOM     43  C   UNL     1      12.109  56.331  -9.181  0.00  0.00    +0.000 C 
ATOM     44  C   UNL     1      10.984  56.028 -11.086  0.00  0.00    +0.000 C 
ATOM     45  C   UNL     1      12.287  56.104 -10.557  0.00  0.00    +0.000 C 
ATOM     46  C   UNL     1      11.064  56.370  -6.884  0.00  0.00    +0.000 C 
ATOM     47  C   UNL     1       8.964  54.628 -10.721  0.00  0.00    +0.000 C 
ATOM     48  C   UNL     1       8.717  57.102 -11.375  0.00  0.00    +0.000 C 
BRANCH  45  49
ATOM     49  O   UNL     1      13.301  55.342 -11.053  0.00  0.00    +0.000 OA
ATOM     50  H   UNL     1      12.977  54.586 -11.574  0.00  0.00    +0.000 HD
ENDBRANCH  45  49
ENDBRANCH  38  40
ENDBRANCH  37  38
ENDBRANCH  34  37
ENDBRANCH  33  34
ENDBRANCH  31  33
ENDBRANCH  29  32
ENDBRANCH  28  29
ENDBRANCH   1  28
TORSDOF 19
ENDMDL
