MODEL 1
REMARK VINA RESULT:      -5.5      0.000      0.000
REMARK  Name = 5281416_Esculetin.pdbqt.pdb
REMARK  2 active torsions:
REMARK  status: ('A' for Active; 'I' for Inactive)
REMARK    1  A    between atoms: C_7  and  O_12
REMARK    2  A    between atoms: C_8  and  O_14
REMARK                            x       y       z     vdW  Elec       q    Type
REMARK                         _______ _______ _______ _____ _____    ______ ____
ROOT
ATOM      1  O   UNL     1      15.047  45.056   9.398  0.00  0.00    +0.000 OA
ATOM      2  O   UNL     1      16.011  43.065   8.616  0.00  0.00    +0.000 OA
ATOM      3  C   UNL     1      12.567  45.230   9.213  0.00  0.00    +0.000 A 
ATOM      4  C   UNL     1      13.817  45.792   9.594  0.00  0.00    +0.000 A 
ATOM      5  C   UNL     1      11.385  45.928   9.398  0.00  0.00    +0.000 A 
ATOM      6  C   UNL     1      13.900  47.054  10.163  0.00  0.00    +0.000 A 
ATOM      7  C   UNL     1      11.471  47.195   9.970  0.00  0.00    +0.000 A 
ATOM      8  C   UNL     1      12.707  47.746  10.345  0.00  0.00    +0.000 A 
ATOM      9  C   UNL     1      12.664  43.935   8.648  0.00  0.00    +0.000 A 
ATOM     10  C   UNL     1      13.690  43.345   8.495  0.00  0.00    +0.000 A 
ATOM     11  C   UNL     1      15.028  43.758   8.819  0.00  0.00    +0.000 A 
ENDROOT
BRANCH   7  12
ATOM     12  O   UNL     1      10.347  47.949  10.185  0.00  0.00    +0.000 OA
ATOM     13  H   UNL     1      10.287  48.608   9.469  0.00  0.00    +0.000 HD
ENDBRANCH   7  12
BRANCH   8  14
ATOM     14  O   UNL     1      12.745  48.994  10.903  0.00  0.00    +0.000 OA
ATOM     15  H   UNL     1      13.203  48.880  11.760  0.00  0.00    +0.000 HD
ENDBRANCH   8  14
TORSDOF 2
ENDMDL
MODEL 2
REMARK VINA RESULT:      -5.5      9.667     10.802
REMARK  Name = 5281416_Esculetin.pdbqt.pdb
REMARK  2 active torsions:
REMARK  status: ('A' for Active; 'I' for Inactive)
REMARK    1  A    between atoms: C_7  and  O_12
REMARK    2  A    between atoms: C_8  and  O_14
REMARK                            x       y       z     vdW  Elec       q    Type
REMARK                         _______ _______ _______ _____ _____    ______ ____
ROOT
ATOM      1  O   UNL     1       8.315  39.736  16.262  0.00  0.00    +0.000 OA
ATOM      2  O   UNL     1       5.989  39.636  15.964  0.00  0.00    +0.000 OA
ATOM      3  C   UNL     1       9.652  37.969  15.119  0.00  0.00    +0.000 A 
ATOM      4  C   UNL     1       9.587  39.125  15.945  0.00  0.00    +0.000 A 
ATOM      5  C   UNL     1      10.867  37.379  14.811  0.00  0.00    +0.000 A 
ATOM      6  C   UNL     1      10.733  39.703  16.472  0.00  0.00    +0.000 A 
ATOM      7  C   UNL     1      12.015  37.961  15.342  0.00  0.00    +0.000 A 
ATOM      8  C   UNL     1      11.947  39.102  16.157  0.00  0.00    +0.000 A 
ATOM      9  C   UNL     1       8.390  37.511  14.666  0.00  0.00    +0.000 A 
ATOM     10  C   UNL     1       7.351  38.030  14.939  0.00  0.00    +0.000 A 
ATOM     11  C   UNL     1       7.105  39.190  15.751  0.00  0.00    +0.000 A 
ENDROOT
BRANCH   7  12
ATOM     12  O   UNL     1      13.254  37.436  15.085  0.00  0.00    +0.000 OA
ATOM     13  H   UNL     1      13.470  36.813  15.803  0.00  0.00    +0.000 HD
ENDBRANCH   7  12
BRANCH   8  14
ATOM     14  O   UNL     1      13.100  39.640  16.658  0.00  0.00    +0.000 OA
ATOM     15  H   UNL     1      13.389  39.025  17.361  0.00  0.00    +0.000 HD
ENDBRANCH   8  14
TORSDOF 2
ENDMDL
MODEL 3
REMARK VINA RESULT:      -5.5     25.795     26.932
REMARK  Name = 5281416_Esculetin.pdbqt.pdb
REMARK  2 active torsions:
REMARK  status: ('A' for Active; 'I' for Inactive)
REMARK    1  A    between atoms: C_7  and  O_12
REMARK    2  A    between atoms: C_8  and  O_14
REMARK                            x       y       z     vdW  Elec       q    Type
REMARK                         _______ _______ _______ _____ _____    ______ ____
ROOT
ATOM      1  O   UNL     1       4.969  20.212   9.628  0.00  0.00    +0.000 OA
ATOM      2  O   UNL     1       4.823  19.202  11.741  0.00  0.00    +0.000 OA
ATOM      3  C   UNL     1       2.809  20.662   8.467  0.00  0.00    +0.000 A 
ATOM      4  C   UNL     1       4.230  20.717   8.492  0.00  0.00    +0.000 A 
ATOM      5  C   UNL     1       2.095  21.144   7.383  0.00  0.00    +0.000 A 
ATOM      6  C   UNL     1       4.952  21.253   7.435  0.00  0.00    +0.000 A 
ATOM      7  C   UNL     1       2.822  21.681   6.324  0.00  0.00    +0.000 A 
ATOM      8  C   UNL     1       4.225  21.733   6.351  0.00  0.00    +0.000 A 
ATOM      9  C   UNL     1       2.233  20.085   9.626  0.00  0.00    +0.000 A 
ATOM     10  C   UNL     1       2.861  19.674  10.554  0.00  0.00    +0.000 A 
ATOM     11  C   UNL     1       4.286  19.651  10.742  0.00  0.00    +0.000 A 
ENDROOT
BRANCH   7  12
ATOM     12  O   UNL     1       2.189  22.178   5.215  0.00  0.00    +0.000 OA
ATOM     13  H   UNL     1       2.483  21.657   4.444  0.00  0.00    +0.000 HD
ENDBRANCH   7  12
BRANCH   8  14
ATOM     14  O   UNL     1       4.899  22.269   5.289  0.00  0.00    +0.000 OA
ATOM     15  H   UNL     1       5.708  21.728   5.197  0.00  0.00    +0.000 HD
ENDBRANCH   8  14
TORSDOF 2
ENDMDL
MODEL 4
REMARK VINA RESULT:      -5.1     22.082     22.276
REMARK  Name = 5281416_Esculetin.pdbqt.pdb
REMARK  2 active torsions:
REMARK  status: ('A' for Active; 'I' for Inactive)
REMARK    1  A    between atoms: C_7  and  O_12
REMARK    2  A    between atoms: C_8  and  O_14
REMARK                            x       y       z     vdW  Elec       q    Type
REMARK                         _______ _______ _______ _____ _____    ______ ____
ROOT
ATOM      1  O   UNL     1      -0.591  63.435   8.479  0.00  0.00    +0.000 OA
ATOM      2  O   UNL     1      -0.280  63.633   6.161  0.00  0.00    +0.000 OA
ATOM      3  C   UNL     1      -2.044  61.557   9.242  0.00  0.00    +0.000 A 
ATOM      4  C   UNL     1      -1.226  62.683   9.539  0.00  0.00    +0.000 A 
ATOM      5  C   UNL     1      -2.655  60.832  10.252  0.00  0.00    +0.000 A 
ATOM      6  C   UNL     1      -1.011  63.096  10.846  0.00  0.00    +0.000 A 
ATOM      7  C   UNL     1      -2.436  61.250  11.563  0.00  0.00    +0.000 A 
ATOM      8  C   UNL     1      -1.629  62.361  11.852  0.00  0.00    +0.000 A 
ATOM      9  C   UNL     1      -2.157  61.274   7.858  0.00  0.00    +0.000 A 
ATOM     10  C   UNL     1      -1.624  61.908   6.999  0.00  0.00    +0.000 A 
ATOM     11  C   UNL     1      -0.774  63.060   7.119  0.00  0.00    +0.000 A 
ENDROOT
BRANCH   7  12
ATOM     12  O   UNL     1      -3.005  60.586  12.618  0.00  0.00    +0.000 OA
ATOM     13  H   UNL     1      -3.838  60.186  12.305  0.00  0.00    +0.000 HD
ENDBRANCH   7  12
BRANCH   8  14
ATOM     14  O   UNL     1      -1.442  62.736  13.154  0.00  0.00    +0.000 OA
ATOM     15  H   UNL     1      -2.142  63.395  13.336  0.00  0.00    +0.000 HD
ENDBRANCH   8  14
TORSDOF 2
ENDMDL
MODEL 5
REMARK VINA RESULT:      -5.0     24.887     26.584
REMARK  Name = 5281416_Esculetin.pdbqt.pdb
REMARK  2 active torsions:
REMARK  status: ('A' for Active; 'I' for Inactive)
REMARK    1  A    between atoms: C_7  and  O_12
REMARK    2  A    between atoms: C_8  and  O_14
REMARK                            x       y       z     vdW  Elec       q    Type
REMARK                         _______ _______ _______ _____ _____    ______ ____
ROOT
ATOM      1  O   UNL     1       2.447  24.021  -4.570  0.00  0.00    +0.000 OA
ATOM      2  O   UNL     1       3.476  22.191  -3.521  0.00  0.00    +0.000 OA
ATOM      3  C   UNL     1       2.441  26.164  -3.295  0.00  0.00    +0.000 A 
ATOM      4  C   UNL     1       2.097  25.420  -4.458  0.00  0.00    +0.000 A 
ATOM      5  C   UNL     1       2.109  27.504  -3.182  0.00  0.00    +0.000 A 
ATOM      6  C   UNL     1       1.420  26.006  -5.518  0.00  0.00    +0.000 A 
ATOM      7  C   UNL     1       1.430  28.089  -4.248  0.00  0.00    +0.000 A 
ATOM      8  C   UNL     1       1.093  27.352  -5.393  0.00  0.00    +0.000 A 
ATOM      9  C   UNL     1       3.129  25.413  -2.311  0.00  0.00    +0.000 A 
ATOM     10  C   UNL     1       3.408  24.257  -2.423  0.00  0.00    +0.000 A 
ATOM     11  C   UNL     1       3.141  23.364  -3.516  0.00  0.00    +0.000 A 
ENDROOT
BRANCH   7  12
ATOM     12  O   UNL     1       1.067  29.410  -4.212  0.00  0.00    +0.000 OA
ATOM     13  H   UNL     1       1.644  29.861  -3.569  0.00  0.00    +0.000 HD
ENDBRANCH   7  12
BRANCH   8  14
ATOM     14  O   UNL     1       0.425  27.967  -6.416  0.00  0.00    +0.000 OA
ATOM     15  H   UNL     1       0.043  28.778  -6.025  0.00  0.00    +0.000 HD
ENDBRANCH   8  14
TORSDOF 2
ENDMDL
MODEL 6
REMARK VINA RESULT:      -4.9     22.005     22.349
REMARK  Name = 5281416_Esculetin.pdbqt.pdb
REMARK  2 active torsions:
REMARK  status: ('A' for Active; 'I' for Inactive)
REMARK    1  A    between atoms: C_7  and  O_12
REMARK    2  A    between atoms: C_8  and  O_14
REMARK                            x       y       z     vdW  Elec       q    Type
REMARK                         _______ _______ _______ _____ _____    ______ ____
ROOT
ATOM      1  O   UNL     1      -1.433  62.648  11.720  0.00  0.00    +0.000 OA
ATOM      2  O   UNL     1      -2.258  61.835  13.761  0.00  0.00    +0.000 OA
ATOM      3  C   UNL     1      -2.138  61.412   9.673  0.00  0.00    +0.000 A 
ATOM      4  C   UNL     1      -1.412  62.470  10.284  0.00  0.00    +0.000 A 
ATOM      5  C   UNL     1      -2.123  61.236   8.298  0.00  0.00    +0.000 A 
ATOM      6  C   UNL     1      -0.664  63.364   9.532  0.00  0.00    +0.000 A 
ATOM      7  C   UNL     1      -1.371  62.135   7.546  0.00  0.00    +0.000 A 
ATOM      8  C   UNL     1      -0.656  63.178   8.153  0.00  0.00    +0.000 A 
ATOM      9  C   UNL     1      -2.848  60.594  10.587  0.00  0.00    +0.000 A 
ATOM     10  C   UNL     1      -2.852  60.757  11.769  0.00  0.00    +0.000 A 
ATOM     11  C   UNL     1      -2.182  61.764  12.545  0.00  0.00    +0.000 A 
ENDROOT
BRANCH   7  12
ATOM     12  O   UNL     1      -1.305  62.028   6.181  0.00  0.00    +0.000 OA
ATOM     13  H   UNL     1      -1.524  62.900   5.803  0.00  0.00    +0.000 HD
ENDBRANCH   7  12
BRANCH   8  14
ATOM     14  O   UNL     1       0.070  64.038   7.375  0.00  0.00    +0.000 OA
ATOM     15  H   UNL     1       0.839  63.519   7.065  0.00  0.00    +0.000 HD
ENDBRANCH   8  14
TORSDOF 2
ENDMDL
MODEL 7
REMARK VINA RESULT:      -4.9     26.252     27.909
REMARK  Name = 5281416_Esculetin.pdbqt.pdb
REMARK  2 active torsions:
REMARK  status: ('A' for Active; 'I' for Inactive)
REMARK    1  A    between atoms: C_7  and  O_12
REMARK    2  A    between atoms: C_8  and  O_14
REMARK                            x       y       z     vdW  Elec       q    Type
REMARK                         _______ _______ _______ _____ _____    ______ ____
ROOT
ATOM      1  O   UNL     1      -1.695  26.146  -6.287  0.00  0.00    +0.000 OA
ATOM      2  O   UNL     1      -3.205  24.489  -6.981  0.00  0.00    +0.000 OA
ATOM      3  C   UNL     1      -0.243  25.573  -4.342  0.00  0.00    +0.000 A 
ATOM      4  C   UNL     1      -0.655  26.495  -5.343  0.00  0.00    +0.000 A 
ATOM      5  C   UNL     1       0.752  25.901  -3.435  0.00  0.00    +0.000 A 
ATOM      6  C   UNL     1      -0.080  27.754  -5.448  0.00  0.00    +0.000 A 
ATOM      7  C   UNL     1       1.327  27.164  -3.544  0.00  0.00    +0.000 A 
ATOM      8  C   UNL     1       0.917  28.072  -4.532  0.00  0.00    +0.000 A 
ATOM      9  C   UNL     1      -0.933  24.336  -4.377  0.00  0.00    +0.000 A 
ATOM     10  C   UNL     1      -1.788  24.067  -5.165  0.00  0.00    +0.000 A 
ATOM     11  C   UNL     1      -2.322  24.871  -6.230  0.00  0.00    +0.000 A 
ENDROOT
BRANCH   7  12
ATOM     12  O   UNL     1       2.316  27.564  -2.684  0.00  0.00    +0.000 OA
ATOM     13  H   UNL     1       2.958  26.834  -2.608  0.00  0.00    +0.000 HD
ENDBRANCH   7  12
BRANCH   8  14
ATOM     14  O   UNL     1       1.509  29.303  -4.602  0.00  0.00    +0.000 OA
ATOM     15  H   UNL     1       1.573  29.505  -5.558  0.00  0.00    +0.000 HD
ENDBRANCH   8  14
TORSDOF 2
ENDMDL
MODEL 8
REMARK VINA RESULT:      -4.8     12.431     14.386
REMARK  Name = 5281416_Esculetin.pdbqt.pdb
REMARK  2 active torsions:
REMARK  status: ('A' for Active; 'I' for Inactive)
REMARK    1  A    between atoms: C_7  and  O_12
REMARK    2  A    between atoms: C_8  and  O_14
REMARK                            x       y       z     vdW  Elec       q    Type
REMARK                         _______ _______ _______ _____ _____    ______ ____
ROOT
ATOM      1  O   UNL     1       1.690  44.978  17.710  0.00  0.00    +0.000 OA
ATOM      2  O   UNL     1      -0.052  45.914  18.973  0.00  0.00    +0.000 OA
ATOM      3  C   UNL     1       1.822  42.488  17.684  0.00  0.00    +0.000 A 
ATOM      4  C   UNL     1       2.326  43.753  17.275  0.00  0.00    +0.000 A 
ATOM      5  C   UNL     1       2.426  41.311  17.271  0.00  0.00    +0.000 A 
ATOM      6  C   UNL     1       3.437  43.857  16.449  0.00  0.00    +0.000 A 
ATOM      7  C   UNL     1       3.540  41.420  16.443  0.00  0.00    +0.000 A 
ATOM      8  C   UNL     1       4.035  42.670  16.041  0.00  0.00    +0.000 A 
ATOM      9  C   UNL     1       0.684  42.564  18.525  0.00  0.00    +0.000 A 
ATOM     10  C   UNL     1       0.174  43.585  18.873  0.00  0.00    +0.000 A 
ATOM     11  C   UNL     1       0.548  44.936  18.557  0.00  0.00    +0.000 A 
ENDROOT
BRANCH   7  12
ATOM     12  O   UNL     1       4.193  40.303  15.991  0.00  0.00    +0.000 OA
ATOM     13  H   UNL     1       5.118  40.354  16.295  0.00  0.00    +0.000 HD
ENDBRANCH   7  12
BRANCH   8  14
ATOM     14  O   UNL     1       5.132  42.729  15.227  0.00  0.00    +0.000 OA
ATOM     15  H   UNL     1       5.829  43.157  15.764  0.00  0.00    +0.000 HD
ENDBRANCH   8  14
TORSDOF 2
ENDMDL
MODEL 9
REMARK VINA RESULT:      -4.5      2.731      4.427
REMARK  Name = 5281416_Esculetin.pdbqt.pdb
REMARK  2 active torsions:
REMARK  status: ('A' for Active; 'I' for Inactive)
REMARK    1  A    between atoms: C_7  and  O_12
REMARK    2  A    between atoms: C_8  and  O_14
REMARK                            x       y       z     vdW  Elec       q    Type
REMARK                         _______ _______ _______ _____ _____    ______ ____
ROOT
ATOM      1  O   UNL     1      13.665  49.200  11.745  0.00  0.00    +0.000 OA
ATOM      2  O   UNL     1      15.440  50.733  11.668  0.00  0.00    +0.000 OA
ATOM      3  C   UNL     1      13.379  47.738   9.745  0.00  0.00    +0.000 A 
ATOM      4  C   UNL     1      12.962  48.149  11.041  0.00  0.00    +0.000 A 
ATOM      5  C   UNL     1      12.711  46.733   9.065  0.00  0.00    +0.000 A 
ATOM      6  C   UNL     1      11.875  47.561  11.671  0.00  0.00    +0.000 A 
ATOM      7  C   UNL     1      11.620  46.146   9.700  0.00  0.00    +0.000 A 
ATOM      8  C   UNL     1      11.211  46.553  10.980  0.00  0.00    +0.000 A 
ATOM      9  C   UNL     1      14.505  48.442   9.250  0.00  0.00    +0.000 A 
ATOM     10  C   UNL     1      15.071  49.306   9.848  0.00  0.00    +0.000 A 
ATOM     11  C   UNL     1      14.787  49.840  11.152  0.00  0.00    +0.000 A 
ENDROOT
BRANCH   7  12
ATOM     12  O   UNL     1      10.907  45.145   9.094  0.00  0.00    +0.000 OA
ATOM     13  H   UNL     1      11.490  44.717   8.440  0.00  0.00    +0.000 HD
ENDBRANCH   7  12
BRANCH   8  14
ATOM     14  O   UNL     1      10.134  45.949  11.566  0.00  0.00    +0.000 OA
ATOM     15  H   UNL     1       9.771  45.349  10.883  0.00  0.00    +0.000 HD
ENDBRANCH   8  14
TORSDOF 2
ENDMDL
