MODEL 1
REMARK VINA RESULT:      -7.1      0.000      0.000
REMARK  Name = 5289155_Peridinin.pdbqt.pdb
REMARK  13 active torsions:
REMARK  status: ('A' for Active; 'I' for Inactive)
REMARK    1  A    between atoms: C_1  and  C_3
REMARK    2  A    between atoms: C_3  and  C_25
REMARK    3  A    between atoms: C_6  and  C_12
REMARK    4  A    between atoms: C_11  and  C_14
REMARK    5  A    between atoms: C_19  and  O_23
REMARK    6  A    between atoms: C_26  and  C_28
REMARK    7  A    between atoms: C_27  and  C_31
REMARK    8  A    between atoms: C_29  and  C_31
REMARK    9  A    between atoms: C_29  and  C_42
REMARK   10  A    between atoms: C_33  and  O_43
REMARK   11  A    between atoms: C_35  and  O_45
REMARK   12  A    between atoms: C_37  and  C_41
REMARK   13  A    between atoms: O_45  and  C_47
REMARK                            x       y       z     vdW  Elec       q    Type
REMARK                         _______ _______ _______ _____ _____    ______ ____
ROOT
ATOM      1  C   UNL     1      -8.080  41.849  12.437  0.00  0.00    +0.000 C 
ENDROOT
BRANCH   1   2
ATOM      2  C   UNL     1      -6.840  42.206  12.323  0.00  0.00    +0.000 C 
ATOM      3  C   UNL     1      -6.292  42.611  10.989  0.00  0.00    +0.000 C 
ATOM      4  O   UNL     1      -5.504  41.452  15.585  0.00  0.00    +0.000 OA
ATOM      5  O   UNL     1      -4.107  40.874  17.342  0.00  0.00    +0.000 OA
ATOM      6  C   UNL     1      -3.345  42.317  15.560  0.00  0.00    +0.000 C 
ATOM      7  C   UNL     1      -3.936  42.766  14.514  0.00  0.00    +0.000 C 
ATOM      8  C   UNL     1      -4.310  41.469  16.298  0.00  0.00    +0.000 C 
ATOM      9  C   UNL     1      -5.246  42.294  14.507  0.00  0.00    +0.000 C 
ATOM     10  C   UNL     1      -6.008  42.250  13.465  0.00  0.00    +0.000 C 
BRANCH   6  12
ATOM     11  C   UNL     1      -0.867  42.840  16.189  0.00  0.00    +0.000 C 
ATOM     12  C   UNL     1      -2.007  42.596  15.896  0.00  0.00    +0.000 C 
BRANCH  11  14
ATOM     13  O   UNL     1       0.887  42.404  17.742  0.00  0.00    +0.000 OA
ATOM     14  C   UNL     1       0.508  43.146  16.547  0.00  0.00    +0.000 C 
ATOM     15  C   UNL     1       1.559  42.016  16.547  0.00  0.00    +0.000 C 
ATOM     16  C   UNL     1       1.019  44.626  16.453  0.00  0.00    +0.000 C 
ATOM     17  C   UNL     1       2.934  42.403  16.551  0.00  0.00    +0.000 C 
ATOM     18  C   UNL     1       2.480  44.585  16.565  0.00  0.00    +0.000 C 
ATOM     19  C   UNL     1       3.547  43.667  16.590  0.00  0.00    +0.000 C 
ATOM     20  C   UNL     1       1.255  40.580  16.110  0.00  0.00    +0.000 C 
ATOM     21  C   UNL     1       0.591  45.128  15.048  0.00  0.00    +0.000 C 
ATOM     22  C   UNL     1       0.333  45.403  17.598  0.00  0.00    +0.000 C 
BRANCH  19  23
ATOM     23  O   UNL     1       4.727  43.932  15.963  0.00  0.00    +0.000 OA
ATOM     24  H   UNL     1       5.495  43.794  16.545  0.00  0.00    +0.000 HD
ENDBRANCH  19  23
ENDBRANCH  11  14
ENDBRANCH   6  12
ENDBRANCH   1   2
BRANCH   1  25
ATOM     25  C   UNL     1      -9.548  41.428  12.572  0.00  0.00    +0.000 C 
ATOM     26  C   UNL     1     -10.696  41.093  12.676  0.00  0.00    +0.000 C 
BRANCH  26  28
ATOM     27  C   UNL     1     -13.306  40.324  12.906  0.00  0.00    +0.000 C 
ATOM     28  C   UNL     1     -12.159  40.659  12.806  0.00  0.00    +0.000 C 
BRANCH  27  29
ATOM     29  C   UNL     1     -14.776  39.903  13.037  0.00  0.00    +0.000 C 
BRANCH  29  30
ATOM     30  C   UNL     1     -16.017  39.546  13.137  0.00  0.00    +0.000 C 
ATOM     31  C   UNL     1     -16.779  39.801  14.401  0.00  0.00    +0.000 C 
BRANCH  30  33
ATOM     32  C   UNL     1     -17.177  38.278  11.158  0.00  0.00    +0.000 C 
ATOM     33  C   UNL     1     -16.643  38.860  12.065  0.00  0.00    +0.000 C 
BRANCH  32  39
ATOM     34  C   UNL     1     -17.694  38.146   8.709  0.00  0.00    +0.000 C 
ATOM     35  C   UNL     1     -18.605  36.402  10.412  0.00  0.00    +0.000 C 
ATOM     36  C   UNL     1     -18.160  37.117   7.769  0.00  0.00    +0.000 C 
ATOM     37  C   UNL     1     -18.743  35.833   7.793  0.00  0.00    +0.000 C 
ATOM     38  C   UNL     1     -18.875  35.659   9.186  0.00  0.00    +0.000 C 
ATOM     39  C   UNL     1     -17.766  37.645  10.163  0.00  0.00    +0.000 C 
ATOM     40  C   UNL     1     -16.213  38.485   8.357  0.00  0.00    +0.000 C 
ATOM     41  C   UNL     1     -18.574  39.418   8.579  0.00  0.00    +0.000 C 
ATOM     42  C   UNL     1     -19.902  36.755  11.147  0.00  0.00    +0.000 C 
BRANCH  35  43
ATOM     43  O   UNL     1     -17.911  35.543  11.289  0.00  0.00    +0.000 OA
ATOM     44  H   UNL     1     -18.649  35.115  11.763  0.00  0.00    +0.000 HD
ENDBRANCH  35  43
BRANCH  37  45
ATOM     45  O   UNL     1     -19.809  35.560   6.946  0.00  0.00    +0.000 OA
BRANCH  45  47
ATOM     46  O   UNL     1     -19.559  35.284   4.630  0.00  0.00    +0.000 OA
ATOM     47  C   UNL     1     -19.355  35.004   5.797  0.00  0.00    +0.000 C 
ATOM     48  C   UNL     1     -18.456  33.835   6.000  0.00  0.00    +0.000 C 
ENDBRANCH  45  47
ENDBRANCH  37  45
ENDBRANCH  32  39
ENDBRANCH  30  33
ENDBRANCH  29  30
ENDBRANCH  27  29
ENDBRANCH  26  28
ENDBRANCH   1  25
TORSDOF 13
ENDMDL
MODEL 2
REMARK VINA RESULT:      -6.7      8.023      9.702
REMARK  Name = 5289155_Peridinin.pdbqt.pdb
REMARK  13 active torsions:
REMARK  status: ('A' for Active; 'I' for Inactive)
REMARK    1  A    between atoms: C_1  and  C_3
REMARK    2  A    between atoms: C_3  and  C_25
REMARK    3  A    between atoms: C_6  and  C_12
REMARK    4  A    between atoms: C_11  and  C_14
REMARK    5  A    between atoms: C_19  and  O_23
REMARK    6  A    between atoms: C_26  and  C_28
REMARK    7  A    between atoms: C_27  and  C_31
REMARK    8  A    between atoms: C_29  and  C_31
REMARK    9  A    between atoms: C_29  and  C_42
REMARK   10  A    between atoms: C_33  and  O_43
REMARK   11  A    between atoms: C_35  and  O_45
REMARK   12  A    between atoms: C_37  and  C_41
REMARK   13  A    between atoms: O_45  and  C_47
REMARK                            x       y       z     vdW  Elec       q    Type
REMARK                         _______ _______ _______ _____ _____    ______ ____
ROOT
ATOM      1  C   UNL     1     -10.719  42.338  19.122  0.00  0.00    +0.000 C 
ENDROOT
BRANCH   1   2
ATOM      2  C   UNL     1     -10.783  42.754  20.347  0.00  0.00    +0.000 C 
ATOM      3  C   UNL     1     -12.106  42.849  21.042  0.00  0.00    +0.000 C 
ATOM      4  O   UNL     1      -7.405  43.836  20.986  0.00  0.00    +0.000 OA
ATOM      5  O   UNL     1      -5.533  44.942  21.791  0.00  0.00    +0.000 OA
ATOM      6  C   UNL     1      -7.360  44.345  23.255  0.00  0.00    +0.000 C 
ATOM      7  C   UNL     1      -8.467  43.736  23.034  0.00  0.00    +0.000 C 
ATOM      8  C   UNL     1      -6.624  44.432  21.972  0.00  0.00    +0.000 C 
ATOM      9  C   UNL     1      -8.519  43.386  21.687  0.00  0.00    +0.000 C 
ATOM     10  C   UNL     1      -9.600  43.085  21.045  0.00  0.00    +0.000 C 
BRANCH   6  12
ATOM     11  C   UNL     1      -6.623  45.271  25.580  0.00  0.00    +0.000 C 
ATOM     12  C   UNL     1      -6.965  44.840  24.512  0.00  0.00    +0.000 C 
BRANCH  11  14
ATOM     13  O   UNL     1      -6.114  47.249  26.808  0.00  0.00    +0.000 OA
ATOM     14  C   UNL     1      -6.199  45.796  26.868  0.00  0.00    +0.000 C 
ATOM     15  C   UNL     1      -7.143  46.735  27.650  0.00  0.00    +0.000 C 
ATOM     16  C   UNL     1      -5.066  45.062  27.666  0.00  0.00    +0.000 C 
ATOM     17  C   UNL     1      -6.861  46.939  29.035  0.00  0.00    +0.000 C 
ATOM     18  C   UNL     1      -5.070  45.613  29.024  0.00  0.00    +0.000 C 
ATOM     19  C   UNL     1      -5.827  46.459  29.856  0.00  0.00    +0.000 C 
ATOM     20  C   UNL     1      -8.556  47.093  27.181  0.00  0.00    +0.000 C 
ATOM     21  C   UNL     1      -5.467  43.563  27.681  0.00  0.00    +0.000 C 
ATOM     22  C   UNL     1      -3.750  45.320  26.899  0.00  0.00    +0.000 C 
BRANCH  19  23
ATOM     23  O   UNL     1      -6.007  46.181  31.178  0.00  0.00    +0.000 OA
ATOM     24  H   UNL     1      -6.564  46.843  31.624  0.00  0.00    +0.000 HD
ENDBRANCH  19  23
ENDBRANCH  11  14
ENDBRANCH   6  12
ENDBRANCH   1   2
BRANCH   1  25
ATOM     25  C   UNL     1     -10.643  41.846  17.671  0.00  0.00    +0.000 C 
ATOM     26  C   UNL     1     -10.581  41.456  16.538  0.00  0.00    +0.000 C 
BRANCH  26  28
ATOM     27  C   UNL     1     -10.427  40.562  13.962  0.00  0.00    +0.000 C 
ATOM     28  C   UNL     1     -10.497  40.953  15.094  0.00  0.00    +0.000 C 
BRANCH  27  29
ATOM     29  C   UNL     1     -10.333  40.069  12.513  0.00  0.00    +0.000 C 
BRANCH  29  30
ATOM     30  C   UNL     1     -10.244  39.647  11.291  0.00  0.00    +0.000 C 
ATOM     31  C   UNL     1      -9.103  38.769  10.874  0.00  0.00    +0.000 C 
BRANCH  30  33
ATOM     32  C   UNL     1     -12.005  40.417   9.511  0.00  0.00    +0.000 C 
ATOM     33  C   UNL     1     -11.198  40.063  10.329  0.00  0.00    +0.000 C 
BRANCH  32  39
ATOM     34  C   UNL     1     -13.792  42.030   8.812  0.00  0.00    +0.000 C 
ATOM     35  C   UNL     1     -13.102  40.005   7.332  0.00  0.00    +0.000 C 
ATOM     36  C   UNL     1     -14.452  42.417   7.557  0.00  0.00    +0.000 C 
ATOM     37  C   UNL     1     -14.585  41.951   6.233  0.00  0.00    +0.000 C 
ATOM     38  C   UNL     1     -13.842  40.757   6.325  0.00  0.00    +0.000 C 
ATOM     39  C   UNL     1     -12.888  40.801   8.610  0.00  0.00    +0.000 C 
ATOM     40  C   UNL     1     -12.921  43.232   9.288  0.00  0.00    +0.000 C 
ATOM     41  C   UNL     1     -14.859  41.689   9.887  0.00  0.00    +0.000 C 
ATOM     42  C   UNL     1     -13.773  38.661   7.630  0.00  0.00    +0.000 C 
BRANCH  35  43
ATOM     43  O   UNL     1     -11.847  39.671   6.779  0.00  0.00    +0.000 OA
ATOM     44  H   UNL     1     -12.094  38.961   6.157  0.00  0.00    +0.000 HD
ENDBRANCH  35  43
BRANCH  37  45
ATOM     45  O   UNL     1     -15.841  41.954   5.640  0.00  0.00    +0.000 OA
BRANCH  45  47
ATOM     46  O   UNL     1     -15.578  44.097   4.724  0.00  0.00    +0.000 OA
ATOM     47  C   UNL     1     -15.904  42.925   4.696  0.00  0.00    +0.000 C 
ATOM     48  C   UNL     1     -16.487  42.479   3.402  0.00  0.00    +0.000 C 
ENDBRANCH  45  47
ENDBRANCH  37  45
ENDBRANCH  32  39
ENDBRANCH  30  33
ENDBRANCH  29  30
ENDBRANCH  27  29
ENDBRANCH  26  28
ENDBRANCH   1  25
TORSDOF 13
ENDMDL
MODEL 3
REMARK VINA RESULT:      -6.6     11.561     18.045
REMARK  Name = 5289155_Peridinin.pdbqt.pdb
REMARK  13 active torsions:
REMARK  status: ('A' for Active; 'I' for Inactive)
REMARK    1  A    between atoms: C_1  and  C_3
REMARK    2  A    between atoms: C_3  and  C_25
REMARK    3  A    between atoms: C_6  and  C_12
REMARK    4  A    between atoms: C_11  and  C_14
REMARK    5  A    between atoms: C_19  and  O_23
REMARK    6  A    between atoms: C_26  and  C_28
REMARK    7  A    between atoms: C_27  and  C_31
REMARK    8  A    between atoms: C_29  and  C_31
REMARK    9  A    between atoms: C_29  and  C_42
REMARK   10  A    between atoms: C_33  and  O_43
REMARK   11  A    between atoms: C_35  and  O_45
REMARK   12  A    between atoms: C_37  and  C_41
REMARK   13  A    between atoms: O_45  and  C_47
REMARK                            x       y       z     vdW  Elec       q    Type
REMARK                         _______ _______ _______ _____ _____    ______ ____
ROOT
ATOM      1  C   UNL     1      -0.414  53.828  19.759  0.00  0.00    +0.000 C 
ENDROOT
BRANCH   1   2
ATOM      2  C   UNL     1       0.303  54.907  19.727  0.00  0.00    +0.000 C 
ATOM      3  C   UNL     1       1.276  55.196  20.828  0.00  0.00    +0.000 C 
ATOM      4  O   UNL     1      -1.091  56.694  16.925  0.00  0.00    +0.000 OA
ATOM      5  O   UNL     1      -1.799  58.353  15.468  0.00  0.00    +0.000 OA
ATOM      6  C   UNL     1       0.317  58.520  16.621  0.00  0.00    +0.000 C 
ATOM      7  C   UNL     1       0.903  57.735  17.450  0.00  0.00    +0.000 C 
ATOM      8  C   UNL     1      -0.972  57.898  16.238  0.00  0.00    +0.000 C 
ATOM      9  C   UNL     1       0.103  56.610  17.635  0.00  0.00    +0.000 C 
ATOM     10  C   UNL     1       0.196  55.796  18.634  0.00  0.00    +0.000 C 
BRANCH   6  12
ATOM     11  C   UNL     1       1.290  60.806  15.824  0.00  0.00    +0.000 C 
ATOM     12  C   UNL     1       0.840  59.756  16.196  0.00  0.00    +0.000 C 
BRANCH  11  14
ATOM     13  O   UNL     1       2.070  62.024  13.929  0.00  0.00    +0.000 OA
ATOM     14  C   UNL     1       1.841  62.072  15.367  0.00  0.00    +0.000 C 
ATOM     15  C   UNL     1       1.046  62.921  14.353  0.00  0.00    +0.000 C 
ATOM     16  C   UNL     1       2.941  62.789  16.226  0.00  0.00    +0.000 C 
ATOM     17  C   UNL     1       1.431  64.288  14.203  0.00  0.00    +0.000 C 
ATOM     18  C   UNL     1       3.074  64.151  15.702  0.00  0.00    +0.000 C 
ATOM     19  C   UNL     1       2.458  65.039  14.800  0.00  0.00    +0.000 C 
ATOM     20  C   UNL     1      -0.349  62.545  13.846  0.00  0.00    +0.000 C 
ATOM     21  C   UNL     1       2.391  62.811  17.677  0.00  0.00    +0.000 C 
ATOM     22  C   UNL     1       4.227  61.946  16.088  0.00  0.00    +0.000 C 
BRANCH  19  23
ATOM     23  O   UNL     1       2.331  66.365  15.082  0.00  0.00    +0.000 OA
ATOM     24  H   UNL     1       2.496  66.928  14.304  0.00  0.00    +0.000 HD
ENDBRANCH  19  23
ENDBRANCH  11  14
ENDBRANCH   6  12
ENDBRANCH   1   2
BRANCH   1  25
ATOM     25  C   UNL     1      -1.263  52.552  19.797  0.00  0.00    +0.000 C 
ATOM     26  C   UNL     1      -1.928  51.554  19.821  0.00  0.00    +0.000 C 
BRANCH  26  28
ATOM     27  C   UNL     1      -3.441  49.280  19.867  0.00  0.00    +0.000 C 
ATOM     28  C   UNL     1      -2.779  50.280  19.844  0.00  0.00    +0.000 C 
BRANCH  27  29
ATOM     29  C   UNL     1      -4.283  47.998  19.899  0.00  0.00    +0.000 C 
BRANCH  29  30
ATOM     30  C   UNL     1      -4.986  46.911  19.919  0.00  0.00    +0.000 C 
ATOM     31  C   UNL     1      -6.324  46.887  20.594  0.00  0.00    +0.000 C 
BRANCH  30  33
ATOM     32  C   UNL     1      -4.027  44.711  18.867  0.00  0.00    +0.000 C 
ATOM     33  C   UNL     1      -4.466  45.721  19.348  0.00  0.00    +0.000 C 
BRANCH  32  39
ATOM     34  C   UNL     1      -3.802  42.217  18.957  0.00  0.00    +0.000 C 
ATOM     35  C   UNL     1      -2.667  43.641  17.100  0.00  0.00    +0.000 C 
ATOM     36  C   UNL     1      -3.436  41.142  18.025  0.00  0.00    +0.000 C 
ATOM     37  C   UNL     1      -2.833  40.984  16.760  0.00  0.00    +0.000 C 
ATOM     38  C   UNL     1      -2.533  42.331  16.471  0.00  0.00    +0.000 C 
ATOM     39  C   UNL     1      -3.550  43.603  18.337  0.00  0.00    +0.000 C 
ATOM     40  C   UNL     1      -5.320  42.072  19.285  0.00  0.00    +0.000 C 
ATOM     41  C   UNL     1      -2.965  42.096  20.259  0.00  0.00    +0.000 C 
ATOM     42  C   UNL     1      -1.298  44.247  17.423  0.00  0.00    +0.000 C 
BRANCH  35  43
ATOM     43  O   UNL     1      -3.237  44.514  16.150  0.00  0.00    +0.000 OA
ATOM     44  H   UNL     1      -2.587  44.462  15.425  0.00  0.00    +0.000 HD
ENDBRANCH  35  43
BRANCH  37  45
ATOM     45  O   UNL     1      -1.871  39.997  16.588  0.00  0.00    +0.000 OA
BRANCH  45  47
ATOM     46  O   UNL     1      -2.590  37.765  16.598  0.00  0.00    +0.000 OA
ATOM     47  C   UNL     1      -2.448  38.869  16.107  0.00  0.00    +0.000 C 
ATOM     48  C   UNL     1      -2.993  39.004  14.729  0.00  0.00    +0.000 C 
ENDBRANCH  45  47
ENDBRANCH  37  45
ENDBRANCH  32  39
ENDBRANCH  30  33
ENDBRANCH  29  30
ENDBRANCH  27  29
ENDBRANCH  26  28
ENDBRANCH   1  25
TORSDOF 13
ENDMDL
MODEL 4
REMARK VINA RESULT:      -6.6     31.589     34.937
REMARK  Name = 5289155_Peridinin.pdbqt.pdb
REMARK  13 active torsions:
REMARK  status: ('A' for Active; 'I' for Inactive)
REMARK    1  A    between atoms: C_1  and  C_3
REMARK    2  A    between atoms: C_3  and  C_25
REMARK    3  A    between atoms: C_6  and  C_12
REMARK    4  A    between atoms: C_11  and  C_14
REMARK    5  A    between atoms: C_19  and  O_23
REMARK    6  A    between atoms: C_26  and  C_28
REMARK    7  A    between atoms: C_27  and  C_31
REMARK    8  A    between atoms: C_29  and  C_31
REMARK    9  A    between atoms: C_29  and  C_42
REMARK   10  A    between atoms: C_33  and  O_43
REMARK   11  A    between atoms: C_35  and  O_45
REMARK   12  A    between atoms: C_37  and  C_41
REMARK   13  A    between atoms: O_45  and  C_47
REMARK                            x       y       z     vdW  Elec       q    Type
REMARK                         _______ _______ _______ _____ _____    ______ ____
ROOT
ATOM      1  C   UNL     1      10.047  53.276 -12.057  0.00  0.00    +0.000 C 
ENDROOT
BRANCH   1   2
ATOM      2  C   UNL     1      10.195  54.221 -11.183  0.00  0.00    +0.000 C 
ATOM      3  C   UNL     1      11.527  54.447 -10.536  0.00  0.00    +0.000 C 
ATOM      4  O   UNL     1       6.814  55.369 -10.690  0.00  0.00    +0.000 OA
ATOM      5  O   UNL     1       4.866  56.242  -9.786  0.00  0.00    +0.000 OA
ATOM      6  C   UNL     1       7.015  57.253  -9.340  0.00  0.00    +0.000 C 
ATOM      7  C   UNL     1       8.198  56.951  -9.733  0.00  0.00    +0.000 C 
ATOM      8  C   UNL     1       6.075  56.273  -9.934  0.00  0.00    +0.000 C 
ATOM      9  C   UNL     1       8.118  55.843 -10.571  0.00  0.00    +0.000 C 
ATOM     10  C   UNL     1       9.109  55.066 -10.864  0.00  0.00    +0.000 C 
BRANCH   6  12
ATOM     11  C   UNL     1       6.467  59.246  -7.748  0.00  0.00    +0.000 C 
ATOM     12  C   UNL     1       6.714  58.326  -8.481  0.00  0.00    +0.000 C 
BRANCH  11  14
ATOM     13  O   UNL     1       5.188  61.236  -7.463  0.00  0.00    +0.000 OA
ATOM     14  C   UNL     1       6.179  60.358  -6.856  0.00  0.00    +0.000 C 
ATOM     15  C   UNL     1       4.749  60.533  -6.303  0.00  0.00    +0.000 C 
ATOM     16  C   UNL     1       7.356  61.056  -6.089  0.00  0.00    +0.000 C 
ATOM     17  C   UNL     1       4.585  61.397  -5.178  0.00  0.00    +0.000 C 
ATOM     18  C   UNL     1       6.752  61.905  -5.058  0.00  0.00    +0.000 C 
ATOM     19  C   UNL     1       5.507  62.180  -4.462  0.00  0.00    +0.000 C 
ATOM     20  C   UNL     1       3.610  59.546  -6.578  0.00  0.00    +0.000 C 
ATOM     21  C   UNL     1       8.175  59.907  -5.443  0.00  0.00    +0.000 C 
ATOM     22  C   UNL     1       8.162  61.845  -7.144  0.00  0.00    +0.000 C 
BRANCH  19  23
ATOM     23  O   UNL     1       5.394  62.409  -3.124  0.00  0.00    +0.000 OA
ATOM     24  H   UNL     1       6.133  62.940  -2.775  0.00  0.00    +0.000 HD
ENDBRANCH  19  23
ENDBRANCH  11  14
ENDBRANCH   6  12
ENDBRANCH   1   2
BRANCH   1  25
ATOM     25  C   UNL     1       9.873  52.158 -13.091  0.00  0.00    +0.000 C 
ATOM     26  C   UNL     1       9.737  51.286 -13.905  0.00  0.00    +0.000 C 
BRANCH  26  28
ATOM     27  C   UNL     1       9.429  49.309 -15.763  0.00  0.00    +0.000 C 
ATOM     28  C   UNL     1       9.562  50.179 -14.949  0.00  0.00    +0.000 C 
BRANCH  27  29
ATOM     29  C   UNL     1       9.264  48.192 -16.802  0.00  0.00    +0.000 C 
BRANCH  29  30
ATOM     30  C   UNL     1       9.114  47.251 -17.680  0.00  0.00    +0.000 C 
ATOM     31  C   UNL     1       8.323  47.499 -18.929  0.00  0.00    +0.000 C 
BRANCH  30  33
ATOM     32  C   UNL     1      10.106  44.869 -17.224  0.00  0.00    +0.000 C 
ATOM     33  C   UNL     1       9.652  45.963 -17.434  0.00  0.00    +0.000 C 
BRANCH  32  39
ATOM     34  C   UNL     1      12.114  43.387 -16.993  0.00  0.00    +0.000 C 
ATOM     35  C   UNL     1       9.688  42.471 -16.788  0.00  0.00    +0.000 C 
ATOM     36  C   UNL     1      12.407  42.065 -16.421  0.00  0.00    +0.000 C 
ATOM     37  C   UNL     1      11.718  40.926 -15.957  0.00  0.00    +0.000 C 
ATOM     38  C   UNL     1      10.391  41.328 -16.217  0.00  0.00    +0.000 C 
ATOM     39  C   UNL     1      10.601  43.669 -16.999  0.00  0.00    +0.000 C 
ATOM     40  C   UNL     1      12.830  44.459 -16.115  0.00  0.00    +0.000 C 
ATOM     41  C   UNL     1      12.638  43.460 -18.452  0.00  0.00    +0.000 C 
ATOM     42  C   UNL     1       8.972  42.092 -18.088  0.00  0.00    +0.000 C 
BRANCH  35  43
ATOM     43  O   UNL     1       8.656  42.827 -15.894  0.00  0.00    +0.000 OA
ATOM     44  H   UNL     1       7.980  43.171 -16.508  0.00  0.00    +0.000 HD
ENDBRANCH  35  43
BRANCH  37  45
ATOM     45  O   UNL     1      12.158  39.666 -16.343  0.00  0.00    +0.000 OA
BRANCH  45  47
ATOM     46  O   UNL     1      13.082  39.139 -14.252  0.00  0.00    +0.000 OA
ATOM     47  C   UNL     1      13.089  39.214 -15.466  0.00  0.00    +0.000 C 
ATOM     48  C   UNL     1      14.346  38.738 -16.105  0.00  0.00    +0.000 C 
ENDBRANCH  45  47
ENDBRANCH  37  45
ENDBRANCH  32  39
ENDBRANCH  30  33
ENDBRANCH  29  30
ENDBRANCH  27  29
ENDBRANCH  26  28
ENDBRANCH   1  25
TORSDOF 13
ENDMDL
MODEL 5
REMARK VINA RESULT:      -6.5     19.963     24.126
REMARK  Name = 5289155_Peridinin.pdbqt.pdb
REMARK  13 active torsions:
REMARK  status: ('A' for Active; 'I' for Inactive)
REMARK    1  A    between atoms: C_1  and  C_3
REMARK    2  A    between atoms: C_3  and  C_25
REMARK    3  A    between atoms: C_6  and  C_12
REMARK    4  A    between atoms: C_11  and  C_14
REMARK    5  A    between atoms: C_19  and  O_23
REMARK    6  A    between atoms: C_26  and  C_28
REMARK    7  A    between atoms: C_27  and  C_31
REMARK    8  A    between atoms: C_29  and  C_31
REMARK    9  A    between atoms: C_29  and  C_42
REMARK   10  A    between atoms: C_33  and  O_43
REMARK   11  A    between atoms: C_35  and  O_45
REMARK   12  A    between atoms: C_37  and  C_41
REMARK   13  A    between atoms: O_45  and  C_47
REMARK                            x       y       z     vdW  Elec       q    Type
REMARK                         _______ _______ _______ _____ _____    ______ ____
ROOT
ATOM      1  C   UNL     1      11.705  39.146  17.117  0.00  0.00    +0.000 C 
ENDROOT
BRANCH   1   2
ATOM      2  C   UNL     1      11.748  38.036  16.449  0.00  0.00    +0.000 C 
ATOM      3  C   UNL     1      12.475  37.972  15.142  0.00  0.00    +0.000 C 
ATOM      4  O   UNL     1       9.492  35.920  18.301  0.00  0.00    +0.000 OA
ATOM      5  O   UNL     1       7.952  34.299  18.910  0.00  0.00    +0.000 OA
ATOM      6  C   UNL     1       9.717  33.817  17.332  0.00  0.00    +0.000 C 
ATOM      7  C   UNL     1      10.666  34.543  16.865  0.00  0.00    +0.000 C 
ATOM      8  C   UNL     1       8.929  34.648  18.273  0.00  0.00    +0.000 C 
ATOM      9  C   UNL     1      10.585  35.806  17.446  0.00  0.00    +0.000 C 
ATOM     10  C   UNL     1      11.139  36.873  16.971  0.00  0.00    +0.000 C 
BRANCH   6  12
ATOM     11  C   UNL     1       9.306  31.327  16.669  0.00  0.00    +0.000 C 
ATOM     12  C   UNL     1       9.493  32.476  16.970  0.00  0.00    +0.000 C 
BRANCH  11  14
ATOM     13  O   UNL     1       7.774  29.504  16.771  0.00  0.00    +0.000 OA
ATOM     14  C   UNL     1       9.088  29.935  16.312  0.00  0.00    +0.000 C 
ATOM     15  C   UNL     1       7.932  29.571  15.356  0.00  0.00    +0.000 C 
ATOM     16  C   UNL     1      10.259  28.904  16.476  0.00  0.00    +0.000 C 
ATOM     17  C   UNL     1       7.964  28.276  14.755  0.00  0.00    +0.000 C 
ATOM     18  C   UNL     1       9.862  27.686  15.764  0.00  0.00    +0.000 C 
ATOM     19  C   UNL     1       8.865  27.207  14.893  0.00  0.00    +0.000 C 
ATOM     20  C   UNL     1       7.030  30.612  14.687  0.00  0.00    +0.000 C 
ATOM     21  C   UNL     1      11.491  29.558  15.798  0.00  0.00    +0.000 C 
ATOM     22  C   UNL     1      10.453  28.696  17.994  0.00  0.00    +0.000 C 
BRANCH  19  23
ATOM     23  O   UNL     1       9.164  26.360  13.869  0.00  0.00    +0.000 OA
ATOM     24  H   UNL     1       9.228  25.433  14.160  0.00  0.00    +0.000 HD
ENDBRANCH  19  23
ENDBRANCH  11  14
ENDBRANCH   6  12
ENDBRANCH   1   2
BRANCH   1  25
ATOM     25  C   UNL     1      11.654  40.458  17.908  0.00  0.00    +0.000 C 
ATOM     26  C   UNL     1      11.616  41.488  18.522  0.00  0.00    +0.000 C 
BRANCH  26  28
ATOM     27  C   UNL     1      11.523  43.838  19.911  0.00  0.00    +0.000 C 
ATOM     28  C   UNL     1      11.567  42.807  19.300  0.00  0.00    +0.000 C 
BRANCH  27  29
ATOM     29  C   UNL     1      11.460  45.156  20.693  0.00  0.00    +0.000 C 
BRANCH  29  30
ATOM     30  C   UNL     1      11.396  46.268  21.355  0.00  0.00    +0.000 C 
ATOM     31  C   UNL     1      12.499  46.654  22.294  0.00  0.00    +0.000 C 
BRANCH  30  33
ATOM     32  C   UNL     1       9.282  47.800  21.138  0.00  0.00    +0.000 C 
ATOM     33  C   UNL     1      10.252  47.097  21.236  0.00  0.00    +0.000 C 
BRANCH  32  39
ATOM     34  C   UNL     1       8.326  50.093  20.807  0.00  0.00    +0.000 C 
ATOM     35  C   UNL     1       6.818  48.009  21.193  0.00  0.00    +0.000 C 
ATOM     36  C   UNL     1       7.027  50.665  20.423  0.00  0.00    +0.000 C 
ATOM     37  C   UNL     1       5.682  50.265  20.287  0.00  0.00    +0.000 C 
ATOM     38  C   UNL     1       5.790  48.923  20.706  0.00  0.00    +0.000 C 
ATOM     39  C   UNL     1       8.220  48.574  21.034  0.00  0.00    +0.000 C 
ATOM     40  C   UNL     1       9.333  50.368  19.648  0.00  0.00    +0.000 C 
ATOM     41  C   UNL     1       8.830  50.757  22.116  0.00  0.00    +0.000 C 
ATOM     42  C   UNL     1       6.555  47.596  22.645  0.00  0.00    +0.000 C 
BRANCH  35  43
ATOM     43  O   UNL     1       6.713  46.814  20.450  0.00  0.00    +0.000 OA
ATOM     44  H   UNL     1       6.293  46.220  21.099  0.00  0.00    +0.000 HD
ENDBRANCH  35  43
BRANCH  37  45
ATOM     45  O   UNL     1       4.680  51.082  20.795  0.00  0.00    +0.000 OA
BRANCH  45  47
ATOM     46  O   UNL     1       4.149  51.669  18.587  0.00  0.00    +0.000 OA
ATOM     47  C   UNL     1       4.130  51.813  19.795  0.00  0.00    +0.000 C 
ATOM     48  C   UNL     1       3.381  53.012  20.259  0.00  0.00    +0.000 C 
ENDBRANCH  45  47
ENDBRANCH  37  45
ENDBRANCH  32  39
ENDBRANCH  30  33
ENDBRANCH  29  30
ENDBRANCH  27  29
ENDBRANCH  26  28
ENDBRANCH   1  25
TORSDOF 13
ENDMDL
MODEL 6
REMARK VINA RESULT:      -6.5     19.097     25.348
REMARK  Name = 5289155_Peridinin.pdbqt.pdb
REMARK  13 active torsions:
REMARK  status: ('A' for Active; 'I' for Inactive)
REMARK    1  A    between atoms: C_1  and  C_3
REMARK    2  A    between atoms: C_3  and  C_25
REMARK    3  A    between atoms: C_6  and  C_12
REMARK    4  A    between atoms: C_11  and  C_14
REMARK    5  A    between atoms: C_19  and  O_23
REMARK    6  A    between atoms: C_26  and  C_28
REMARK    7  A    between atoms: C_27  and  C_31
REMARK    8  A    between atoms: C_29  and  C_31
REMARK    9  A    between atoms: C_29  and  C_42
REMARK   10  A    between atoms: C_33  and  O_43
REMARK   11  A    between atoms: C_35  and  O_45
REMARK   12  A    between atoms: C_37  and  C_41
REMARK   13  A    between atoms: O_45  and  C_47
REMARK                            x       y       z     vdW  Elec       q    Type
REMARK                         _______ _______ _______ _____ _____    ______ ____
ROOT
ATOM      1  C   UNL     1      -0.668  31.820  33.476  0.00  0.00    +0.000 C 
ENDROOT
BRANCH   1   2
ATOM      2  C   UNL     1      -0.673  30.586  33.873  0.00  0.00    +0.000 C 
ATOM      3  C   UNL     1      -0.609  30.266  35.335  0.00  0.00    +0.000 C 
ATOM      4  O   UNL     1      -0.397  28.763  30.776  0.00  0.00    +0.000 OA
ATOM      5  O   UNL     1       0.079  27.166  29.165  0.00  0.00    +0.000 OA
ATOM      6  C   UNL     1      -0.677  26.532  31.370  0.00  0.00    +0.000 C 
ATOM      7  C   UNL     1      -1.000  27.232  32.396  0.00  0.00    +0.000 C 
ATOM      8  C   UNL     1      -0.287  27.466  30.287  0.00  0.00    +0.000 C 
ATOM      9  C   UNL     1      -0.875  28.579  32.070  0.00  0.00    +0.000 C 
ATOM     10  C   UNL     1      -0.778  29.540  32.930  0.00  0.00    +0.000 C 
BRANCH   6  12
ATOM     11  C   UNL     1      -0.710  23.924  31.302  0.00  0.00    +0.000 C 
ATOM     12  C   UNL     1      -0.690  25.125  31.334  0.00  0.00    +0.000 C 
BRANCH  11  14
ATOM     13  O   UNL     1      -0.240  21.930  32.519  0.00  0.00    +0.000 OA
ATOM     14  C   UNL     1      -0.746  22.471  31.265  0.00  0.00    +0.000 C 
ATOM     15  C   UNL     1      -1.628  21.710  32.278  0.00  0.00    +0.000 C 
ATOM     16  C   UNL     1      -0.315  21.722  29.956  0.00  0.00    +0.000 C 
ATOM     17  C   UNL     1      -1.916  20.341  31.994  0.00  0.00    +0.000 C 
ATOM     18  C   UNL     1      -0.742  20.327  30.099  0.00  0.00    +0.000 C 
ATOM     19  C   UNL     1      -1.510  19.502  30.942  0.00  0.00    +0.000 C 
ATOM     20  C   UNL     1      -2.544  22.405  33.290  0.00  0.00    +0.000 C 
ATOM     21  C   UNL     1      -1.088  22.416  28.803  0.00  0.00    +0.000 C 
ATOM     22  C   UNL     1       1.215  21.890  29.835  0.00  0.00    +0.000 C 
BRANCH  19  23
ATOM     23  O   UNL     1      -2.305  18.516  30.439  0.00  0.00    +0.000 OA
ATOM     24  H   UNL     1      -1.962  18.153  29.602  0.00  0.00    +0.000 HD
ENDBRANCH  19  23
ENDBRANCH  11  14
ENDBRANCH   6  12
ENDBRANCH   1   2
BRANCH   1  25
ATOM     25  C   UNL     1      -0.662  33.279  33.006  0.00  0.00    +0.000 C 
ATOM     26  C   UNL     1      -0.652  34.421  32.637  0.00  0.00    +0.000 C 
BRANCH  26  28
ATOM     27  C   UNL     1      -0.611  37.018  31.794  0.00  0.00    +0.000 C 
ATOM     28  C   UNL     1      -0.632  35.878  32.166  0.00  0.00    +0.000 C 
BRANCH  27  29
ATOM     29  C   UNL     1      -0.577  38.476  31.316  0.00  0.00    +0.000 C 
BRANCH  29  30
ATOM     30  C   UNL     1      -0.537  39.706  30.913  0.00  0.00    +0.000 C 
ATOM     31  C   UNL     1       0.778  40.376  30.653  0.00  0.00    +0.000 C 
BRANCH  30  33
ATOM     32  C   UNL     1      -2.760  41.067  30.644  0.00  0.00    +0.000 C 
ATOM     33  C   UNL     1      -1.741  40.442  30.769  0.00  0.00    +0.000 C 
BRANCH  32  39
ATOM     34  C   UNL     1      -4.324  42.332  29.148  0.00  0.00    +0.000 C 
ATOM     35  C   UNL     1      -4.768  42.056  31.696  0.00  0.00    +0.000 C 
ATOM     36  C   UNL     1      -5.725  42.772  29.194  0.00  0.00    +0.000 C 
ATOM     37  C   UNL     1      -6.770  42.913  30.129  0.00  0.00    +0.000 C 
ATOM     38  C   UNL     1      -6.099  42.502  31.299  0.00  0.00    +0.000 C 
ATOM     39  C   UNL     1      -3.878  41.751  30.502  0.00  0.00    +0.000 C 
ATOM     40  C   UNL     1      -4.201  41.228  28.054  0.00  0.00    +0.000 C 
ATOM     41  C   UNL     1      -3.404  43.532  28.796  0.00  0.00    +0.000 C 
ATOM     42  C   UNL     1      -4.099  43.064  32.636  0.00  0.00    +0.000 C 
BRANCH  35  43
ATOM     43  O   UNL     1      -4.923  40.885  32.469  0.00  0.00    +0.000 OA
ATOM     44  H   UNL     1      -5.664  40.447  32.008  0.00  0.00    +0.000 HD
ENDBRANCH  35  43
BRANCH  37  45
ATOM     45  O   UNL     1      -7.528  44.077  30.125  0.00  0.00    +0.000 OA
BRANCH  45  47
ATOM     46  O   UNL     1      -7.683  44.785  32.356  0.00  0.00    +0.000 OA
ATOM     47  C   UNL     1      -7.240  44.819  31.223  0.00  0.00    +0.000 C 
ATOM     48  C   UNL     1      -6.208  45.866  30.996  0.00  0.00    +0.000 C 
ENDBRANCH  45  47
ENDBRANCH  37  45
ENDBRANCH  32  39
ENDBRANCH  30  33
ENDBRANCH  29  30
ENDBRANCH  27  29
ENDBRANCH  26  28
ENDBRANCH   1  25
TORSDOF 13
ENDMDL
MODEL 7
REMARK VINA RESULT:      -6.4     31.877     35.743
REMARK  Name = 5289155_Peridinin.pdbqt.pdb
REMARK  13 active torsions:
REMARK  status: ('A' for Active; 'I' for Inactive)
REMARK    1  A    between atoms: C_1  and  C_3
REMARK    2  A    between atoms: C_3  and  C_25
REMARK    3  A    between atoms: C_6  and  C_12
REMARK    4  A    between atoms: C_11  and  C_14
REMARK    5  A    between atoms: C_19  and  O_23
REMARK    6  A    between atoms: C_26  and  C_28
REMARK    7  A    between atoms: C_27  and  C_31
REMARK    8  A    between atoms: C_29  and  C_31
REMARK    9  A    between atoms: C_29  and  C_42
REMARK   10  A    between atoms: C_33  and  O_43
REMARK   11  A    between atoms: C_35  and  O_45
REMARK   12  A    between atoms: C_37  and  C_41
REMARK   13  A    between atoms: O_45  and  C_47
REMARK                            x       y       z     vdW  Elec       q    Type
REMARK                         _______ _______ _______ _____ _____    ______ ____
ROOT
ATOM      1  C   UNL     1       8.275  51.299 -14.878  0.00  0.00    +0.000 C 
ENDROOT
BRANCH   1   2
ATOM      2  C   UNL     1       7.756  52.320 -14.271  0.00  0.00    +0.000 C 
ATOM      3  C   UNL     1       6.470  52.912 -14.758  0.00  0.00    +0.000 C 
ATOM      4  O   UNL     1      10.330  53.223 -11.914  0.00  0.00    +0.000 OA
ATOM      5  O   UNL     1      11.736  54.390 -10.489  0.00  0.00    +0.000 OA
ATOM      6  C   UNL     1       9.372  54.877 -10.589  0.00  0.00    +0.000 C 
ATOM      7  C   UNL     1       8.424  54.363 -11.283  0.00  0.00    +0.000 C 
ATOM      8  C   UNL     1      10.628  54.175 -10.945  0.00  0.00    +0.000 C 
ATOM      9  C   UNL     1       8.952  53.344 -12.070  0.00  0.00    +0.000 C 
ATOM     10  C   UNL     1       8.383  52.854 -13.122  0.00  0.00    +0.000 C 
BRANCH   6  12
ATOM     11  C   UNL     1       9.050  56.831  -8.891  0.00  0.00    +0.000 C 
ATOM     12  C   UNL     1       9.203  55.934  -9.675  0.00  0.00    +0.000 C 
BRANCH  11  14
ATOM     13  O   UNL     1       7.646  58.656  -8.276  0.00  0.00    +0.000 OA
ATOM     14  C   UNL     1       8.855  57.915  -7.942  0.00  0.00    +0.000 C 
ATOM     15  C   UNL     1       7.592  57.924  -7.054  0.00  0.00    +0.000 C 
ATOM     16  C   UNL     1      10.088  58.764  -7.476  0.00  0.00    +0.000 C 
ATOM     17  C   UNL     1       7.604  58.780  -5.911  0.00  0.00    +0.000 C 
ATOM     18  C   UNL     1       9.656  59.551  -6.317  0.00  0.00    +0.000 C 
ATOM     19  C   UNL     1       8.569  59.682  -5.431  0.00  0.00    +0.000 C 
ATOM     20  C   UNL     1       6.550  56.802  -7.055  0.00  0.00    +0.000 C 
ATOM     21  C   UNL     1      11.174  57.735  -7.065  0.00  0.00    +0.000 C 
ATOM     22  C   UNL     1      10.511  59.628  -8.684  0.00  0.00    +0.000 C 
BRANCH  19  23
ATOM     23  O   UNL     1       8.760  59.918  -4.103  0.00  0.00    +0.000 OA
ATOM     24  H   UNL     1       8.783  59.097  -3.580  0.00  0.00    +0.000 HD
ENDBRANCH  19  23
ENDBRANCH  11  14
ENDBRANCH   6  12
ENDBRANCH   1   2
BRANCH   1  25
ATOM     25  C   UNL     1       8.890  50.092 -15.596  0.00  0.00    +0.000 C 
ATOM     26  C   UNL     1       9.370  49.145 -16.153  0.00  0.00    +0.000 C 
BRANCH  26  28
ATOM     27  C   UNL     1      10.467  46.981 -17.408  0.00  0.00    +0.000 C 
ATOM     28  C   UNL     1       9.983  47.931 -16.859  0.00  0.00    +0.000 C 
BRANCH  27  29
ATOM     29  C   UNL     1      11.094  45.769 -18.109  0.00  0.00    +0.000 C 
BRANCH  29  30
ATOM     30  C   UNL     1      11.615  44.746 -18.710  0.00  0.00    +0.000 C 
ATOM     31  C   UNL     1      11.738  44.726 -20.203  0.00  0.00    +0.000 C 
BRANCH  30  33
ATOM     32  C   UNL     1      12.365  42.657 -17.318  0.00  0.00    +0.000 C 
ATOM     33  C   UNL     1      12.022  43.616 -17.956  0.00  0.00    +0.000 C 
BRANCH  32  39
ATOM     34  C   UNL     1      12.024  40.243 -16.734  0.00  0.00    +0.000 C 
ATOM     35  C   UNL     1      13.880  41.687 -15.620  0.00  0.00    +0.000 C 
ATOM     36  C   UNL     1      12.813  39.173 -16.106  0.00  0.00    +0.000 C 
ATOM     37  C   UNL     1      13.991  39.020 -15.346  0.00  0.00    +0.000 C 
ATOM     38  C   UNL     1      14.370  40.373 -15.220  0.00  0.00    +0.000 C 
ATOM     39  C   UNL     1      12.740  41.601 -16.624  0.00  0.00    +0.000 C 
ATOM     40  C   UNL     1      11.840  39.884 -18.240  0.00  0.00    +0.000 C 
ATOM     41  C   UNL     1      10.639  40.355 -16.042  0.00  0.00    +0.000 C 
ATOM     42  C   UNL     1      13.476  42.526 -14.404  0.00  0.00    +0.000 C 
BRANCH  35  43
ATOM     43  O   UNL     1      14.958  42.386 -16.203  0.00  0.00    +0.000 OA
ATOM     44  H   UNL     1      14.826  42.188 -17.149  0.00  0.00    +0.000 HD
ENDBRANCH  35  43
BRANCH  37  45
ATOM     45  O   UNL     1      13.973  38.189 -14.234  0.00  0.00    +0.000 OA
BRANCH  45  47
ATOM     46  O   UNL     1      13.704  35.888 -14.604  0.00  0.00    +0.000 OA
ATOM     47  C   UNL     1      14.331  36.931 -14.592  0.00  0.00    +0.000 C 
ATOM     48  C   UNL     1      15.745  36.804 -15.036  0.00  0.00    +0.000 C 
ENDBRANCH  45  47
ENDBRANCH  37  45
ENDBRANCH  32  39
ENDBRANCH  30  33
ENDBRANCH  29  30
ENDBRANCH  27  29
ENDBRANCH  26  28
ENDBRANCH   1  25
TORSDOF 13
ENDMDL
MODEL 8
REMARK VINA RESULT:      -6.2     24.132     26.415
REMARK  Name = 5289155_Peridinin.pdbqt.pdb
REMARK  13 active torsions:
REMARK  status: ('A' for Active; 'I' for Inactive)
REMARK    1  A    between atoms: C_1  and  C_3
REMARK    2  A    between atoms: C_3  and  C_25
REMARK    3  A    between atoms: C_6  and  C_12
REMARK    4  A    between atoms: C_11  and  C_14
REMARK    5  A    between atoms: C_19  and  O_23
REMARK    6  A    between atoms: C_26  and  C_28
REMARK    7  A    between atoms: C_27  and  C_31
REMARK    8  A    between atoms: C_29  and  C_31
REMARK    9  A    between atoms: C_29  and  C_42
REMARK   10  A    between atoms: C_33  and  O_43
REMARK   11  A    between atoms: C_35  and  O_45
REMARK   12  A    between atoms: C_37  and  C_41
REMARK   13  A    between atoms: O_45  and  C_47
REMARK                            x       y       z     vdW  Elec       q    Type
REMARK                         _______ _______ _______ _____ _____    ______ ____
ROOT
ATOM      1  C   UNL     1      -3.116  62.081  -5.205  0.00  0.00    +0.000 C 
ENDROOT
BRANCH   1   2
ATOM      2  C   UNL     1      -1.867  62.197  -5.529  0.00  0.00    +0.000 C 
ATOM      3  C   UNL     1      -1.281  63.549  -5.799  0.00  0.00    +0.000 C 
ATOM      4  O   UNL     1      -0.842  58.767  -5.948  0.00  0.00    +0.000 OA
ATOM      5  O   UNL     1       0.221  56.827  -6.641  0.00  0.00    +0.000 OA
ATOM      6  C   UNL     1       1.461  58.865  -6.260  0.00  0.00    +0.000 C 
ATOM      7  C   UNL     1       1.089  60.031  -5.874  0.00  0.00    +0.000 C 
ATOM      8  C   UNL     1       0.258  58.001  -6.317  0.00  0.00    +0.000 C 
ATOM      9  C   UNL     1      -0.284  60.005  -5.646  0.00  0.00    +0.000 C 
ATOM     10  C   UNL     1      -1.042  61.051  -5.590  0.00  0.00    +0.000 C 
BRANCH   6  12
ATOM     11  C   UNL     1       3.918  58.227  -6.859  0.00  0.00    +0.000 C 
ATOM     12  C   UNL     1       2.788  58.522  -6.578  0.00  0.00    +0.000 C 
BRANCH  11  14
ATOM     13  O   UNL     1       5.847  57.002  -6.182  0.00  0.00    +0.000 OA
ATOM     14  C   UNL     1       5.283  57.866  -7.210  0.00  0.00    +0.000 C 
ATOM     15  C   UNL     1       5.635  56.383  -7.448  0.00  0.00    +0.000 C 
ATOM     16  C   UNL     1       6.239  58.956  -7.809  0.00  0.00    +0.000 C 
ATOM     17  C   UNL     1       6.861  56.103  -8.124  0.00  0.00    +0.000 C 
ATOM     18  C   UNL     1       7.409  58.253  -8.343  0.00  0.00    +0.000 C 
ATOM     19  C   UNL     1       7.873  56.951  -8.609  0.00  0.00    +0.000 C 
ATOM     20  C   UNL     1       4.602  55.253  -7.414  0.00  0.00    +0.000 C 
ATOM     21  C   UNL     1       5.437  59.633  -8.952  0.00  0.00    +0.000 C 
ATOM     22  C   UNL     1       6.576  59.928  -6.658  0.00  0.00    +0.000 C 
BRANCH  19  23
ATOM     23  O   UNL     1       8.595  56.668  -9.729  0.00  0.00    +0.000 OA
ATOM     24  H   UNL     1       8.103  56.861 -10.547  0.00  0.00    +0.000 HD
ENDBRANCH  19  23
ENDBRANCH  11  14
ENDBRANCH   6  12
ENDBRANCH   1   2
BRANCH   1  25
ATOM     25  C   UNL     1      -4.594  61.944  -4.823  0.00  0.00    +0.000 C 
ATOM     26  C   UNL     1      -5.752  61.833  -4.528  0.00  0.00    +0.000 C 
BRANCH  26  28
ATOM     27  C   UNL     1      -8.390  61.568  -3.870  0.00  0.00    +0.000 C 
ATOM     28  C   UNL     1      -7.231  61.688  -4.158  0.00  0.00    +0.000 C 
BRANCH  27  29
ATOM     29  C   UNL     1      -9.872  61.410  -3.506  0.00  0.00    +0.000 C 
BRANCH  29  30
ATOM     30  C   UNL     1     -11.126  61.283  -3.208  0.00  0.00    +0.000 C 
ATOM     31  C   UNL     1     -11.984  62.496  -3.013  0.00  0.00    +0.000 C 
BRANCH  30  33
ATOM     32  C   UNL     1     -12.146  58.897  -2.846  0.00  0.00    +0.000 C 
ATOM     33  C   UNL     1     -11.678  59.993  -3.010  0.00  0.00    +0.000 C 
BRANCH  32  39
ATOM     34  C   UNL     1     -11.783  56.426  -2.640  0.00  0.00    +0.000 C 
ATOM     35  C   UNL     1     -14.155  57.488  -2.533  0.00  0.00    +0.000 C 
ATOM     36  C   UNL     1     -12.536  55.274  -2.125  0.00  0.00    +0.000 C 
ATOM     37  C   UNL     1     -13.849  54.946  -1.731  0.00  0.00    +0.000 C 
ATOM     38  C   UNL     1     -14.491  56.172  -2.000  0.00  0.00    +0.000 C 
ATOM     39  C   UNL     1     -12.654  57.694  -2.667  0.00  0.00    +0.000 C 
ATOM     40  C   UNL     1     -10.563  56.664  -1.697  0.00  0.00    +0.000 C 
ATOM     41  C   UNL     1     -11.288  56.134  -4.082  0.00  0.00    +0.000 C 
ATOM     42  C   UNL     1     -14.865  57.749  -3.865  0.00  0.00    +0.000 C 
BRANCH  35  43
ATOM     43  O   UNL     1     -14.678  58.454  -1.647  0.00  0.00    +0.000 OA
ATOM     44  H   UNL     1     -15.096  59.079  -2.268  0.00  0.00    +0.000 HD
ENDBRANCH  35  43
BRANCH  37  45
ATOM     45  O   UNL     1     -14.406  53.750  -2.166  0.00  0.00    +0.000 OA
BRANCH  45  47
ATOM     46  O   UNL     1     -13.560  52.462  -0.398  0.00  0.00    +0.000 OA
ATOM     47  C   UNL     1     -14.434  52.857  -1.147  0.00  0.00    +0.000 C 
ATOM     48  C   UNL     1     -15.769  52.241  -0.913  0.00  0.00    +0.000 C 
ENDBRANCH  45  47
ENDBRANCH  37  45
ENDBRANCH  32  39
ENDBRANCH  30  33
ENDBRANCH  29  30
ENDBRANCH  27  29
ENDBRANCH  26  28
ENDBRANCH   1  25
TORSDOF 13
ENDMDL
MODEL 9
REMARK VINA RESULT:      -6.1     30.733     35.821
REMARK  Name = 5289155_Peridinin.pdbqt.pdb
REMARK  13 active torsions:
REMARK  status: ('A' for Active; 'I' for Inactive)
REMARK    1  A    between atoms: C_1  and  C_3
REMARK    2  A    between atoms: C_3  and  C_25
REMARK    3  A    between atoms: C_6  and  C_12
REMARK    4  A    between atoms: C_11  and  C_14
REMARK    5  A    between atoms: C_19  and  O_23
REMARK    6  A    between atoms: C_26  and  C_28
REMARK    7  A    between atoms: C_27  and  C_31
REMARK    8  A    between atoms: C_29  and  C_31
REMARK    9  A    between atoms: C_29  and  C_42
REMARK   10  A    between atoms: C_33  and  O_43
REMARK   11  A    between atoms: C_35  and  O_45
REMARK   12  A    between atoms: C_37  and  C_41
REMARK   13  A    between atoms: O_45  and  C_47
REMARK                            x       y       z     vdW  Elec       q    Type
REMARK                         _______ _______ _______ _____ _____    ______ ____
ROOT
ATOM      1  C   UNL     1       9.932  50.672 -15.581  0.00  0.00    +0.000 C 
ENDROOT
BRANCH   1   2
ATOM      2  C   UNL     1      10.086  49.910 -16.618  0.00  0.00    +0.000 C 
ATOM      3  C   UNL     1      10.699  50.457 -17.870  0.00  0.00    +0.000 C 
ATOM      4  O   UNL     1       8.353  46.903 -15.647  0.00  0.00    +0.000 OA
ATOM      5  O   UNL     1       7.139  44.928 -15.657  0.00  0.00    +0.000 OA
ATOM      6  C   UNL     1       8.814  45.375 -17.340  0.00  0.00    +0.000 C 
ATOM      7  C   UNL     1       9.596  46.376 -17.521  0.00  0.00    +0.000 C 
ATOM      8  C   UNL     1       7.993  45.652 -16.138  0.00  0.00    +0.000 C 
ATOM      9  C   UNL     1       9.372  47.303 -16.506  0.00  0.00    +0.000 C 
ATOM     10  C   UNL     1       9.712  48.549 -16.558  0.00  0.00    +0.000 C 
BRANCH   6  12
ATOM     11  C   UNL     1       8.723  43.280 -18.892  0.00  0.00    +0.000 C 
ATOM     12  C   UNL     1       8.769  44.243 -18.174  0.00  0.00    +0.000 C 
BRANCH  11  14
ATOM     13  O   UNL     1       9.993  41.580 -19.978  0.00  0.00    +0.000 OA
ATOM     14  C   UNL     1       8.656  42.117 -19.762  0.00  0.00    +0.000 C 
ATOM     15  C   UNL     1       9.115  40.744 -19.227  0.00  0.00    +0.000 C 
ATOM     16  C   UNL     1       7.703  42.140 -21.008  0.00  0.00    +0.000 C 
ATOM     17  C   UNL     1       8.711  39.588 -19.962  0.00  0.00    +0.000 C 
ATOM     18  C   UNL     1       7.608  40.763 -21.502  0.00  0.00    +0.000 C 
ATOM     19  C   UNL     1       7.971  39.450 -21.149  0.00  0.00    +0.000 C 
ATOM     20  C   UNL     1       9.575  40.510 -17.785  0.00  0.00    +0.000 C 
ATOM     21  C   UNL     1       6.329  42.628 -20.475  0.00  0.00    +0.000 C 
ATOM     22  C   UNL     1       8.330  43.119 -22.025  0.00  0.00    +0.000 C 
BRANCH  19  23
ATOM     23  O   UNL     1       7.138  38.396 -21.377  0.00  0.00    +0.000 OA
ATOM     24  H   UNL     1       7.083  38.165 -22.322  0.00  0.00    +0.000 HD
ENDBRANCH  19  23
ENDBRANCH  11  14
ENDBRANCH   6  12
ENDBRANCH   1   2
BRANCH   1  25
ATOM     25  C   UNL     1       9.749  51.573 -14.354  0.00  0.00    +0.000 C 
ATOM     26  C   UNL     1       9.607  52.282 -13.397  0.00  0.00    +0.000 C 
BRANCH  26  28
ATOM     27  C   UNL     1       9.280  53.904 -11.224  0.00  0.00    +0.000 C 
ATOM     28  C   UNL     1       9.425  53.194 -12.180  0.00  0.00    +0.000 C 
BRANCH  27  29
ATOM     29  C   UNL     1       9.091  54.806  -9.998  0.00  0.00    +0.000 C 
BRANCH  29  30
ATOM     30  C   UNL     1       8.942  55.571  -8.963  0.00  0.00    +0.000 C 
ATOM     31  C   UNL     1      10.108  55.872  -8.070  0.00  0.00    +0.000 C 
BRANCH  30  33
ATOM     32  C   UNL     1       6.572  56.514  -8.364  0.00  0.00    +0.000 C 
ATOM     33  C   UNL     1       7.660  56.082  -8.640  0.00  0.00    +0.000 C 
BRANCH  32  39
ATOM     34  C   UNL     1       4.127  56.103  -7.997  0.00  0.00    +0.000 C 
ATOM     35  C   UNL     1       5.176  58.476  -7.799  0.00  0.00    +0.000 C 
ATOM     36  C   UNL     1       3.012  56.802  -7.342  0.00  0.00    +0.000 C 
ATOM     37  C   UNL     1       2.706  58.079  -6.829  0.00  0.00    +0.000 C 
ATOM     38  C   UNL     1       3.902  58.755  -7.144  0.00  0.00    +0.000 C 
ATOM     39  C   UNL     1       5.383  56.992  -8.057  0.00  0.00    +0.000 C 
ATOM     40  C   UNL     1       4.446  54.823  -7.166  0.00  0.00    +0.000 C 
ATOM     41  C   UNL     1       3.728  55.710  -9.445  0.00  0.00    +0.000 C 
ATOM     42  C   UNL     1       5.328  59.283  -9.092  0.00  0.00    +0.000 C 
BRANCH  35  43
ATOM     43  O   UNL     1       6.203  58.946  -6.953  0.00  0.00    +0.000 OA
ATOM     44  H   UNL     1       6.789  58.168  -6.911  0.00  0.00    +0.000 HD
ENDBRANCH  35  43
BRANCH  37  45
ATOM     45  O   UNL     1       1.476  58.650  -7.130  0.00  0.00    +0.000 OA
BRANCH  45  47
ATOM     46  O   UNL     1       0.742  57.573  -9.080  0.00  0.00    +0.000 OA
ATOM     47  C   UNL     1       1.209  58.504  -8.451  0.00  0.00    +0.000 C 
ATOM     48  C   UNL     1       1.563  59.689  -9.278  0.00  0.00    +0.000 C 
ENDBRANCH  45  47
ENDBRANCH  37  45
ENDBRANCH  32  39
ENDBRANCH  30  33
ENDBRANCH  29  30
ENDBRANCH  27  29
ENDBRANCH  26  28
ENDBRANCH   1  25
TORSDOF 13
ENDMDL
