MODEL 1
REMARK VINA RESULT:      -7.1      0.000      0.000
REMARK  Name = 5318517_Andrographolide.pdbqt.pdb
REMARK  6 active torsions:
REMARK  status: ('A' for Active; 'I' for Inactive)
REMARK    1  A    between atoms: C_3  and  C_16
REMARK    2  A    between atoms: C_4  and  C_19
REMARK    3  A    between atoms: C_6  and  O_14
REMARK    4  A    between atoms: C_16  and  O_17
REMARK    5  A    between atoms: C_22  and  C_23
REMARK    6  A    between atoms: C_24  and  O_27
REMARK                            x       y       z     vdW  Elec       q    Type
REMARK                         _______ _______ _______ _____ _____    ______ ____
ROOT
ATOM      1  C   UNL     1       8.097  34.692  16.710  0.00  0.00    +0.000 C 
ATOM      2  C   UNL     1       9.647  34.761  16.562  0.00  0.00    +0.000 C 
ATOM      3  C   UNL     1      10.406  36.092  16.413  0.00  0.00    +0.000 C 
ATOM      4  C   UNL     1       7.396  33.411  16.174  0.00  0.00    +0.000 C 
ATOM      5  C   UNL     1       7.606  35.866  15.994  0.00  0.00    +0.000 C 
ATOM      6  C   UNL     1       9.612  37.302  15.833  0.00  0.00    +0.000 C 
ATOM      7  C   UNL     1      10.275  33.484  16.533  0.00  0.00    +0.000 C 
ATOM      8  C   UNL     1       8.245  37.137  15.548  0.00  0.00    +0.000 C 
ATOM      9  C   UNL     1       7.774  34.804  18.231  0.00  0.00    +0.000 C 
ATOM     10  C   UNL     1       9.511  32.213  16.346  0.00  0.00    +0.000 C 
ATOM     11  C   UNL     1       8.115  32.129  16.164  0.00  0.00    +0.000 C 
ATOM     12  C   UNL     1      11.599  35.855  15.417  0.00  0.00    +0.000 C 
ATOM     13  C   UNL     1       7.604  30.960  15.774  0.00  0.00    +0.000 C 
ENDROOT
BRANCH   6  14
ATOM     14  O   UNL     1      10.177  38.564  15.790  0.00  0.00    +0.000 OA
ATOM     15  H   UNL     1       9.509  39.270  15.853  0.00  0.00    +0.000 HD
ENDBRANCH   6  14
BRANCH   4  16
ATOM     16  C   UNL     1       6.008  33.446  15.808  0.00  0.00    +0.000 C 
ATOM     17  C   UNL     1       4.525  33.482  15.428  0.00  0.00    +0.000 C 
BRANCH  17  20
ATOM     18  O   UNL     1       0.965  33.598  15.420  0.00  0.00    +0.000 OA
ATOM     19  O   UNL     1       2.247  33.104  17.305  0.00  0.00    +0.000 OA
ATOM     20  C   UNL     1       3.269  33.521  15.111  0.00  0.00    +0.000 C 
ATOM     21  C   UNL     1       2.695  33.806  13.821  0.00  0.00    +0.000 C 
ATOM     22  C   UNL     1       2.147  33.370  16.120  0.00  0.00    +0.000 C 
ATOM     23  C   UNL     1       1.344  33.838  14.174  0.00  0.00    +0.000 C 
BRANCH  21  24
ATOM     24  O   UNL     1       3.296  34.701  12.982  0.00  0.00    +0.000 OA
ATOM     25  H   UNL     1       2.723  35.466  12.798  0.00  0.00    +0.000 HD
ENDBRANCH  21  24
ENDBRANCH  17  20
ENDBRANCH   4  16
BRANCH   3  26
ATOM     26  C   UNL     1      10.926  36.469  17.758  0.00  0.00    +0.000 C 
BRANCH  26  27
ATOM     27  O   UNL     1      11.380  36.809  18.968  0.00  0.00    +0.000 OA
ATOM     28  H   UNL     1      10.694  37.283  19.471  0.00  0.00    +0.000 HD
ENDBRANCH  26  27
ENDBRANCH   3  26
TORSDOF 6
ENDMDL
MODEL 2
REMARK VINA RESULT:      -6.8      1.671      2.112
REMARK  Name = 5318517_Andrographolide.pdbqt.pdb
REMARK  6 active torsions:
REMARK  status: ('A' for Active; 'I' for Inactive)
REMARK    1  A    between atoms: C_3  and  C_16
REMARK    2  A    between atoms: C_4  and  C_19
REMARK    3  A    between atoms: C_6  and  O_14
REMARK    4  A    between atoms: C_16  and  O_17
REMARK    5  A    between atoms: C_22  and  C_23
REMARK    6  A    between atoms: C_24  and  O_27
REMARK                            x       y       z     vdW  Elec       q    Type
REMARK                         _______ _______ _______ _____ _____    ______ ____
ROOT
ATOM      1  C   UNL     1       8.646  34.858  16.568  0.00  0.00    +0.000 C 
ATOM      2  C   UNL     1       9.991  35.482  16.089  0.00  0.00    +0.000 C 
ATOM      3  C   UNL     1      10.162  36.991  15.840  0.00  0.00    +0.000 C 
ATOM      4  C   UNL     1       8.358  33.391  16.139  0.00  0.00    +0.000 C 
ATOM      5  C   UNL     1       7.617  35.744  16.033  0.00  0.00    +0.000 C 
ATOM      6  C   UNL     1       8.875  37.806  15.505  0.00  0.00    +0.000 C 
ATOM      7  C   UNL     1      11.017  34.521  15.863  0.00  0.00    +0.000 C 
ATOM      8  C   UNL     1       7.634  37.144  15.518  0.00  0.00    +0.000 C 
ATOM      9  C   UNL     1       8.648  34.901  18.127  0.00  0.00    +0.000 C 
ATOM     10  C   UNL     1      10.746  33.053  15.788  0.00  0.00    +0.000 C 
ATOM     11  C   UNL     1       9.473  32.460  15.912  0.00  0.00    +0.000 C 
ATOM     12  C   UNL     1      11.107  37.169  14.597  0.00  0.00    +0.000 C 
ATOM     13  C   UNL     1       9.349  31.172  15.588  0.00  0.00    +0.000 C 
ENDROOT
BRANCH   6  14
ATOM     14  O   UNL     1       8.918  39.185  15.399  0.00  0.00    +0.000 OA
ATOM     15  H   UNL     1       8.030  39.582  15.388  0.00  0.00    +0.000 HD
ENDBRANCH   6  14
BRANCH   4  16
ATOM     16  C   UNL     1       7.008  32.904  16.087  0.00  0.00    +0.000 C 
ATOM     17  C   UNL     1       5.571  32.378  16.042  0.00  0.00    +0.000 C 
BRANCH  17  20
ATOM     18  O   UNL     1       2.065  31.941  15.586  0.00  0.00    +0.000 OA
ATOM     19  O   UNL     1       3.157  33.994  15.398  0.00  0.00    +0.000 OA
ATOM     20  C   UNL     1       4.352  31.938  16.010  0.00  0.00    +0.000 C 
ATOM     21  C   UNL     1       3.898  30.586  16.217  0.00  0.00    +0.000 C 
ATOM     22  C   UNL     1       3.163  32.797  15.627  0.00  0.00    +0.000 C 
ATOM     23  C   UNL     1       2.546  30.750  15.911  0.00  0.00    +0.000 C 
BRANCH  21  24
ATOM     24  O   UNL     1       4.663  29.532  15.804  0.00  0.00    +0.000 OA
ATOM     25  H   UNL     1       4.210  29.001  15.126  0.00  0.00    +0.000 HD
ENDBRANCH  21  24
ENDBRANCH  17  20
ENDBRANCH   4  16
BRANCH   3  26
ATOM     26  C   UNL     1      10.792  37.581  17.055  0.00  0.00    +0.000 C 
BRANCH  26  27
ATOM     27  O   UNL     1      11.358  38.099  18.149  0.00  0.00    +0.000 OA
ATOM     28  H   UNL     1      10.996  37.681  18.952  0.00  0.00    +0.000 HD
ENDBRANCH  26  27
ENDBRANCH   3  26
TORSDOF 6
ENDMDL
MODEL 3
REMARK VINA RESULT:      -6.7      2.114      2.891
REMARK  Name = 5318517_Andrographolide.pdbqt.pdb
REMARK  6 active torsions:
REMARK  status: ('A' for Active; 'I' for Inactive)
REMARK    1  A    between atoms: C_3  and  C_16
REMARK    2  A    between atoms: C_4  and  C_19
REMARK    3  A    between atoms: C_6  and  O_14
REMARK    4  A    between atoms: C_16  and  O_17
REMARK    5  A    between atoms: C_22  and  C_23
REMARK    6  A    between atoms: C_24  and  O_27
REMARK                            x       y       z     vdW  Elec       q    Type
REMARK                         _______ _______ _______ _____ _____    ______ ____
ROOT
ATOM      1  C   UNL     1       8.579  35.597  17.109  0.00  0.00    +0.000 C 
ATOM      2  C   UNL     1       9.865  36.472  17.007  0.00  0.00    +0.000 C 
ATOM      3  C   UNL     1       9.839  37.927  16.503  0.00  0.00    +0.000 C 
ATOM      4  C   UNL     1       8.759  34.061  16.946  0.00  0.00    +0.000 C 
ATOM      5  C   UNL     1       7.700  36.110  16.063  0.00  0.00    +0.000 C 
ATOM      6  C   UNL     1       8.662  38.332  15.565  0.00  0.00    +0.000 C 
ATOM      7  C   UNL     1      11.055  35.784  17.376  0.00  0.00    +0.000 C 
ATOM      8  C   UNL     1       7.661  37.384  15.289  0.00  0.00    +0.000 C 
ATOM      9  C   UNL     1       7.961  35.851  18.518  0.00  0.00    +0.000 C 
ATOM     10  C   UNL     1      11.111  34.299  17.541  0.00  0.00    +0.000 C 
ATOM     11  C   UNL     1      10.024  33.423  17.339  0.00  0.00    +0.000 C 
ATOM     12  C   UNL     1      11.147  38.168  15.666  0.00  0.00    +0.000 C 
ATOM     13  C   UNL     1      10.277  32.114  17.288  0.00  0.00    +0.000 C 
ENDROOT
BRANCH   6  14
ATOM     14  O   UNL     1       8.488  39.649  15.176  0.00  0.00    +0.000 OA
ATOM     15  H   UNL     1       8.364  39.736  14.214  0.00  0.00    +0.000 HD
ENDBRANCH   6  14
BRANCH   4  16
ATOM     16  C   UNL     1       7.653  33.243  16.533  0.00  0.00    +0.000 C 
ATOM     17  C   UNL     1       6.469  32.372  16.104  0.00  0.00    +0.000 C 
BRANCH  17  20
ATOM     18  O   UNL     1       4.220  29.714  15.354  0.00  0.00    +0.000 OA
ATOM     19  O   UNL     1       6.492  29.414  15.787  0.00  0.00    +0.000 OA
ATOM     20  C   UNL     1       5.462  31.642  15.740  0.00  0.00    +0.000 C 
ATOM     21  C   UNL     1       4.114  32.074  15.469  0.00  0.00    +0.000 C 
ATOM     22  C   UNL     1       5.517  30.131  15.643  0.00  0.00    +0.000 C 
ATOM     23  C   UNL     1       3.509  30.830  15.283  0.00  0.00    +0.000 C 
BRANCH  21  24
ATOM     24  O   UNL     1       3.564  33.104  16.178  0.00  0.00    +0.000 OA
ATOM     25  H   UNL     1       4.207  33.506  16.789  0.00  0.00    +0.000 HD
ENDBRANCH  21  24
ENDBRANCH  17  20
ENDBRANCH   4  16
BRANCH   3  26
ATOM     26  C   UNL     1       9.820  38.818  17.698  0.00  0.00    +0.000 C 
BRANCH  26  27
ATOM     27  O   UNL     1       9.815  39.620  18.767  0.00  0.00    +0.000 OA
ATOM     28  H   UNL     1       9.334  39.204  19.505  0.00  0.00    +0.000 HD
ENDBRANCH  26  27
ENDBRANCH   3  26
TORSDOF 6
ENDMDL
MODEL 4
REMARK VINA RESULT:      -6.6      2.613      8.329
REMARK  Name = 5318517_Andrographolide.pdbqt.pdb
REMARK  6 active torsions:
REMARK  status: ('A' for Active; 'I' for Inactive)
REMARK    1  A    between atoms: C_3  and  C_16
REMARK    2  A    between atoms: C_4  and  C_19
REMARK    3  A    between atoms: C_6  and  O_14
REMARK    4  A    between atoms: C_16  and  O_17
REMARK    5  A    between atoms: C_22  and  C_23
REMARK    6  A    between atoms: C_24  and  O_27
REMARK                            x       y       z     vdW  Elec       q    Type
REMARK                         _______ _______ _______ _____ _____    ______ ____
ROOT
ATOM      1  C   UNL     1       2.588  32.277  15.326  0.00  0.00    +0.000 C 
ATOM      2  C   UNL     1       1.405  31.284  15.540  0.00  0.00    +0.000 C 
ATOM      3  C   UNL     1      -0.009  31.752  15.928  0.00  0.00    +0.000 C 
ATOM      4  C   UNL     1       4.017  31.744  15.624  0.00  0.00    +0.000 C 
ATOM      5  C   UNL     1       2.284  33.406  16.201  0.00  0.00    +0.000 C 
ATOM      6  C   UNL     1      -0.128  33.121  16.663  0.00  0.00    +0.000 C 
ATOM      7  C   UNL     1       1.774  29.917  15.389  0.00  0.00    +0.000 C 
ATOM      8  C   UNL     1       1.038  33.881  16.868  0.00  0.00    +0.000 C 
ATOM      9  C   UNL     1       2.552  32.719  13.831  0.00  0.00    +0.000 C 
ATOM     10  C   UNL     1       3.198  29.466  15.342  0.00  0.00    +0.000 C 
ATOM     11  C   UNL     1       4.319  30.315  15.456  0.00  0.00    +0.000 C 
ATOM     12  C   UNL     1      -0.611  30.689  16.917  0.00  0.00    +0.000 C 
ATOM     13  C   UNL     1       5.514  29.751  15.636  0.00  0.00    +0.000 C 
ENDROOT
BRANCH   6  14
ATOM     14  O   UNL     1      -1.367  33.677  16.929  0.00  0.00    +0.000 OA
ATOM     15  H   UNL     1      -1.957  33.059  17.396  0.00  0.00    +0.000 HD
ENDBRANCH   6  14
BRANCH   4  16
ATOM     16  C   UNL     1       5.079  32.658  15.939  0.00  0.00    +0.000 C 
ATOM     17  C   UNL     1       6.207  33.634  16.286  0.00  0.00    +0.000 C 
BRANCH  17  20
ATOM     18  O   UNL     1       8.373  36.440  16.629  0.00  0.00    +0.000 OA
ATOM     19  O   UNL     1       6.652  36.308  15.060  0.00  0.00    +0.000 OA
ATOM     20  C   UNL     1       7.166  34.453  16.585  0.00  0.00    +0.000 C 
ATOM     21  C   UNL     1       8.181  34.290  17.596  0.00  0.00    +0.000 C 
ATOM     22  C   UNL     1       7.316  35.827  15.962  0.00  0.00    +0.000 C 
ATOM     23  C   UNL     1       8.789  35.544  17.512  0.00  0.00    +0.000 C 
BRANCH  21  24
ATOM     24  O   UNL     1       7.891  33.647  18.765  0.00  0.00    +0.000 OA
ATOM     25  H   UNL     1       7.789  34.271  19.506  0.00  0.00    +0.000 HD
ENDBRANCH  21  24
ENDBRANCH  17  20
ENDBRANCH   4  16
BRANCH   3  26
ATOM     26  C   UNL     1      -0.822  31.813  14.680  0.00  0.00    +0.000 C 
BRANCH  26  27
ATOM     27  O   UNL     1      -1.557  31.878  13.566  0.00  0.00    +0.000 OA
ATOM     28  H   UNL     1      -1.757  32.805  13.341  0.00  0.00    +0.000 HD
ENDBRANCH  26  27
ENDBRANCH   3  26
TORSDOF 6
ENDMDL
MODEL 5
REMARK VINA RESULT:      -6.4     14.241     18.490
REMARK  Name = 5318517_Andrographolide.pdbqt.pdb
REMARK  6 active torsions:
REMARK  status: ('A' for Active; 'I' for Inactive)
REMARK    1  A    between atoms: C_3  and  C_16
REMARK    2  A    between atoms: C_4  and  C_19
REMARK    3  A    between atoms: C_6  and  O_14
REMARK    4  A    between atoms: C_16  and  O_17
REMARK    5  A    between atoms: C_22  and  C_23
REMARK    6  A    between atoms: C_24  and  O_27
REMARK                            x       y       z     vdW  Elec       q    Type
REMARK                         _______ _______ _______ _____ _____    ______ ____
ROOT
ATOM      1  C   UNL     1      12.869  48.804  11.733  0.00  0.00    +0.000 C 
ATOM      2  C   UNL     1      12.249  47.651  10.886  0.00  0.00    +0.000 C 
ATOM      3  C   UNL     1      13.081  46.803   9.907  0.00  0.00    +0.000 C 
ATOM      4  C   UNL     1      11.928  49.981  12.115  0.00  0.00    +0.000 C 
ATOM      5  C   UNL     1      13.981  49.297  10.926  0.00  0.00    +0.000 C 
ATOM      6  C   UNL     1      14.379  47.448   9.333  0.00  0.00    +0.000 C 
ATOM      7  C   UNL     1      10.846  47.498  11.072  0.00  0.00    +0.000 C 
ATOM      8  C   UNL     1      14.755  48.725   9.787  0.00  0.00    +0.000 C 
ATOM      9  C   UNL     1      13.393  48.170  13.058  0.00  0.00    +0.000 C 
ATOM     10  C   UNL     1      10.006  48.525  11.759  0.00  0.00    +0.000 C 
ATOM     11  C   UNL     1      10.486  49.746  12.277  0.00  0.00    +0.000 C 
ATOM     12  C   UNL     1      12.180  46.488   8.659  0.00  0.00    +0.000 C 
ATOM     13  C   UNL     1       9.590  50.663  12.647  0.00  0.00    +0.000 C 
ENDROOT
BRANCH   6  14
ATOM     14  O   UNL     1      15.252  46.709   8.554  0.00  0.00    +0.000 OA
ATOM     15  H   UNL     1      15.081  46.819   7.602  0.00  0.00    +0.000 HD
ENDBRANCH   6  14
BRANCH   4  16
ATOM     16  C   UNL     1      12.474  51.269  12.436  0.00  0.00    +0.000 C 
ATOM     17  C   UNL     1      13.051  52.648  12.769  0.00  0.00    +0.000 C 
BRANCH  17  20
ATOM     18  O   UNL     1      15.056  55.573  13.103  0.00  0.00    +0.000 OA
ATOM     19  O   UNL     1      15.869  53.515  12.367  0.00  0.00    +0.000 OA
ATOM     20  C   UNL     1      13.531  53.817  13.055  0.00  0.00    +0.000 C 
ATOM     21  C   UNL     1      12.819  54.961  13.567  0.00  0.00    +0.000 C 
ATOM     22  C   UNL     1      14.967  54.221  12.782  0.00  0.00    +0.000 C 
ATOM     23  C   UNL     1      13.843  55.909  13.515  0.00  0.00    +0.000 C 
BRANCH  21  24
ATOM     24  O   UNL     1      11.527  55.194  13.188  0.00  0.00    +0.000 OA
ATOM     25  H   UNL     1      11.388  56.124  12.935  0.00  0.00    +0.000 HD
ENDBRANCH  21  24
ENDBRANCH  17  20
ENDBRANCH   4  16
BRANCH   3  26
ATOM     26  C   UNL     1      13.451  45.540  10.607  0.00  0.00    +0.000 C 
BRANCH  26  27
ATOM     27  O   UNL     1      13.787  44.403  11.223  0.00  0.00    +0.000 OA
ATOM     28  H   UNL     1      13.823  44.533  12.188  0.00  0.00    +0.000 HD
ENDBRANCH  26  27
ENDBRANCH   3  26
TORSDOF 6
ENDMDL
MODEL 6
REMARK VINA RESULT:      -6.4      3.001      4.761
REMARK  Name = 5318517_Andrographolide.pdbqt.pdb
REMARK  6 active torsions:
REMARK  status: ('A' for Active; 'I' for Inactive)
REMARK    1  A    between atoms: C_3  and  C_16
REMARK    2  A    between atoms: C_4  and  C_19
REMARK    3  A    between atoms: C_6  and  O_14
REMARK    4  A    between atoms: C_16  and  O_17
REMARK    5  A    between atoms: C_22  and  C_23
REMARK    6  A    between atoms: C_24  and  O_27
REMARK                            x       y       z     vdW  Elec       q    Type
REMARK                         _______ _______ _______ _____ _____    ______ ____
ROOT
ATOM      1  C   UNL     1       8.884  31.798  16.060  0.00  0.00    +0.000 C 
ATOM      2  C   UNL     1      10.076  31.416  16.988  0.00  0.00    +0.000 C 
ATOM      3  C   UNL     1      10.724  30.020  16.972  0.00  0.00    +0.000 C 
ATOM      4  C   UNL     1       7.899  32.879  16.588  0.00  0.00    +0.000 C 
ATOM      5  C   UNL     1       8.173  30.543  15.836  0.00  0.00    +0.000 C 
ATOM      6  C   UNL     1       9.846  28.835  16.468  0.00  0.00    +0.000 C 
ATOM      7  C   UNL     1      10.467  32.460  17.874  0.00  0.00    +0.000 C 
ATOM      8  C   UNL     1       8.550  29.109  15.995  0.00  0.00    +0.000 C 
ATOM      9  C   UNL     1       9.492  32.328  14.725  0.00  0.00    +0.000 C 
ATOM     10  C   UNL     1       9.629  33.676  18.109  0.00  0.00    +0.000 C 
ATOM     11  C   UNL     1       8.375  33.920  17.511  0.00  0.00    +0.000 C 
ATOM     12  C   UNL     1      11.116  29.655  18.449  0.00  0.00    +0.000 C 
ATOM     13  C   UNL     1       7.637  34.921  17.993  0.00  0.00    +0.000 C 
ENDROOT
BRANCH   6  14
ATOM     14  O   UNL     1      10.389  27.574  16.295  0.00  0.00    +0.000 OA
ATOM     15  H   UNL     1      11.063  27.368  16.967  0.00  0.00    +0.000 HD
ENDBRANCH   6  14
BRANCH   4  16
ATOM     16  C   UNL     1       6.557  32.944  16.081  0.00  0.00    +0.000 C 
ATOM     17  C   UNL     1       5.128  33.006  15.533  0.00  0.00    +0.000 C 
BRANCH  17  20
ATOM     18  O   UNL     1       1.645  32.577  14.924  0.00  0.00    +0.000 OA
ATOM     19  O   UNL     1       2.898  31.208  16.336  0.00  0.00    +0.000 OA
ATOM     20  C   UNL     1       3.918  33.049  15.072  0.00  0.00    +0.000 C 
ATOM     21  C   UNL     1       3.367  33.992  14.131  0.00  0.00    +0.000 C 
ATOM     22  C   UNL     1       2.806  32.138  15.555  0.00  0.00    +0.000 C 
ATOM     23  C   UNL     1       2.028  33.597  14.170  0.00  0.00    +0.000 C 
BRANCH  21  24
ATOM     24  O   UNL     1       3.791  35.290  14.128  0.00  0.00    +0.000 OA
ATOM     25  H   UNL     1       4.763  35.353  14.115  0.00  0.00    +0.000 HD
ENDBRANCH  21  24
ENDBRANCH  17  20
ENDBRANCH   4  16
BRANCH   3  26
ATOM     26  C   UNL     1      11.945  30.099  16.120  0.00  0.00    +0.000 C 
BRANCH  26  27
ATOM     27  O   UNL     1      13.045  30.174  15.366  0.00  0.00    +0.000 OA
ATOM     28  H   UNL     1      13.025  29.502  14.661  0.00  0.00    +0.000 HD
ENDBRANCH  26  27
ENDBRANCH   3  26
TORSDOF 6
ENDMDL
MODEL 7
REMARK VINA RESULT:      -6.3      3.899      7.485
REMARK  Name = 5318517_Andrographolide.pdbqt.pdb
REMARK  6 active torsions:
REMARK  status: ('A' for Active; 'I' for Inactive)
REMARK    1  A    between atoms: C_3  and  C_16
REMARK    2  A    between atoms: C_4  and  C_19
REMARK    3  A    between atoms: C_6  and  O_14
REMARK    4  A    between atoms: C_16  and  O_17
REMARK    5  A    between atoms: C_22  and  C_23
REMARK    6  A    between atoms: C_24  and  O_27
REMARK                            x       y       z     vdW  Elec       q    Type
REMARK                         _______ _______ _______ _____ _____    ______ ____
ROOT
ATOM      1  C   UNL     1       9.714  30.438  16.088  0.00  0.00    +0.000 C 
ATOM      2  C   UNL     1       9.243  28.996  15.730  0.00  0.00    +0.000 C 
ATOM      3  C   UNL     1      10.219  27.894  15.281  0.00  0.00    +0.000 C 
ATOM      4  C   UNL     1       8.696  31.590  15.850  0.00  0.00    +0.000 C 
ATOM      5  C   UNL     1      10.906  30.650  15.273  0.00  0.00    +0.000 C 
ATOM      6  C   UNL     1      11.560  28.353  14.634  0.00  0.00    +0.000 C 
ATOM      7  C   UNL     1       7.832  28.819  15.812  0.00  0.00    +0.000 C 
ATOM      8  C   UNL     1      11.837  29.730  14.559  0.00  0.00    +0.000 C 
ATOM      9  C   UNL     1      10.079  30.439  17.604  0.00  0.00    +0.000 C 
ATOM     10  C   UNL     1       6.880  29.967  15.923  0.00  0.00    +0.000 C 
ATOM     11  C   UNL     1       7.253  31.327  15.940  0.00  0.00    +0.000 C 
ATOM     12  C   UNL     1       9.496  27.030  14.185  0.00  0.00    +0.000 C 
ATOM     13  C   UNL     1       6.291  32.240  15.803  0.00  0.00    +0.000 C 
ENDROOT
BRANCH   6  14
ATOM     14  O   UNL     1      12.548  27.434  14.325  0.00  0.00    +0.000 OA
ATOM     15  H   UNL     1      13.255  27.413  14.995  0.00  0.00    +0.000 HD
ENDBRANCH   6  14
BRANCH   4  16
ATOM     16  C   UNL     1       9.159  32.937  15.669  0.00  0.00    +0.000 C 
ATOM     17  C   UNL     1       9.661  34.372  15.482  0.00  0.00    +0.000 C 
BRANCH  17  20
ATOM     18  O   UNL     1      10.026  37.906  15.229  0.00  0.00    +0.000 OA
ATOM     19  O   UNL     1       7.968  36.811  15.303  0.00  0.00    +0.000 OA
ATOM     20  C   UNL     1      10.094  35.583  15.320  0.00  0.00    +0.000 C 
ATOM     21  C   UNL     1      11.463  36.027  15.250  0.00  0.00    +0.000 C 
ATOM     22  C   UNL     1       9.186  36.797  15.285  0.00  0.00    +0.000 C 
ATOM     23  C   UNL     1      11.253  37.408  15.221  0.00  0.00    +0.000 C 
BRANCH  21  24
ATOM     24  O   UNL     1      12.428  35.406  15.990  0.00  0.00    +0.000 OA
ATOM     25  H   UNL     1      13.159  36.010  16.210  0.00  0.00    +0.000 HD
ENDBRANCH  21  24
ENDBRANCH  17  20
ENDBRANCH   4  16
BRANCH   3  26
ATOM     26  C   UNL     1      10.531  27.055  16.473  0.00  0.00    +0.000 C 
BRANCH  26  27
ATOM     27  O   UNL     1      10.821  26.298  17.536  0.00  0.00    +0.000 OA
ATOM     28  H   UNL     1      10.841  26.838  18.346  0.00  0.00    +0.000 HD
ENDBRANCH  26  27
ENDBRANCH   3  26
TORSDOF 6
ENDMDL
MODEL 8
REMARK VINA RESULT:      -6.2      3.532      8.559
REMARK  Name = 5318517_Andrographolide.pdbqt.pdb
REMARK  6 active torsions:
REMARK  status: ('A' for Active; 'I' for Inactive)
REMARK    1  A    between atoms: C_3  and  C_16
REMARK    2  A    between atoms: C_4  and  C_19
REMARK    3  A    between atoms: C_6  and  O_14
REMARK    4  A    between atoms: C_16  and  O_17
REMARK    5  A    between atoms: C_22  and  C_23
REMARK    6  A    between atoms: C_24  and  O_27
REMARK                            x       y       z     vdW  Elec       q    Type
REMARK                         _______ _______ _______ _____ _____    ______ ____
ROOT
ATOM      1  C   UNL     1       9.489  36.956  16.706  0.00  0.00    +0.000 C 
ATOM      2  C   UNL     1       9.470  35.411  16.495  0.00  0.00    +0.000 C 
ATOM      3  C   UNL     1       8.696  34.459  17.425  0.00  0.00    +0.000 C 
ATOM      4  C   UNL     1      10.755  37.716  16.219  0.00  0.00    +0.000 C 
ATOM      5  C   UNL     1       9.323  37.134  18.145  0.00  0.00    +0.000 C 
ATOM      6  C   UNL     1       8.420  34.952  18.877  0.00  0.00    +0.000 C 
ATOM      7  C   UNL     1      10.268  34.975  15.400  0.00  0.00    +0.000 C 
ATOM      8  C   UNL     1       8.823  36.251  19.237  0.00  0.00    +0.000 C 
ATOM      9  C   UNL     1       8.264  37.540  15.937  0.00  0.00    +0.000 C 
ATOM     10  C   UNL     1      11.262  35.861  14.722  0.00  0.00    +0.000 C 
ATOM     11  C   UNL     1      11.536  37.196  15.087  0.00  0.00    +0.000 C 
ATOM     12  C   UNL     1       9.546  33.146  17.580  0.00  0.00    +0.000 C 
ATOM     13  C   UNL     1      12.608  37.783  14.554  0.00  0.00    +0.000 C 
ENDROOT
BRANCH   6  14
ATOM     14  O   UNL     1       7.620  34.217  19.734  0.00  0.00    +0.000 OA
ATOM     15  H   UNL     1       6.889  33.774  19.268  0.00  0.00    +0.000 HD
ENDBRANCH   6  14
BRANCH   4  16
ATOM     16  C   UNL     1      11.094  38.992  16.784  0.00  0.00    +0.000 C 
ATOM     17  C   UNL     1      11.467  40.350  17.386  0.00  0.00    +0.000 C 
BRANCH  17  20
ATOM     18  O   UNL     1      12.341  43.760  17.926  0.00  0.00    +0.000 OA
ATOM     19  O   UNL     1      12.416  42.711  15.844  0.00  0.00    +0.000 OA
ATOM     20  C   UNL     1      11.785  41.502  17.886  0.00  0.00    +0.000 C 
ATOM     21  C   UNL     1      11.700  41.918  19.264  0.00  0.00    +0.000 C 
ATOM     22  C   UNL     1      12.217  42.688  17.046  0.00  0.00    +0.000 C 
ATOM     23  C   UNL     1      12.035  43.266  19.116  0.00  0.00    +0.000 C 
BRANCH  21  24
ATOM     24  O   UNL     1      10.694  41.453  20.063  0.00  0.00    +0.000 OA
ATOM     25  H   UNL     1      10.568  42.015  20.848  0.00  0.00    +0.000 HD
ENDBRANCH  21  24
ENDBRANCH  17  20
ENDBRANCH   4  16
BRANCH   3  26
ATOM     26  C   UNL     1       7.391  34.153  16.773  0.00  0.00    +0.000 C 
BRANCH  26  27
ATOM     27  O   UNL     1       6.226  33.879  16.178  0.00  0.00    +0.000 OA
ATOM     28  H   UNL     1       6.279  33.034  15.696  0.00  0.00    +0.000 HD
ENDBRANCH  26  27
ENDBRANCH   3  26
TORSDOF 6
ENDMDL
MODEL 9
REMARK VINA RESULT:      -6.1     24.923     27.462
REMARK  Name = 5318517_Andrographolide.pdbqt.pdb
REMARK  6 active torsions:
REMARK  status: ('A' for Active; 'I' for Inactive)
REMARK    1  A    between atoms: C_3  and  C_16
REMARK    2  A    between atoms: C_4  and  C_19
REMARK    3  A    between atoms: C_6  and  O_14
REMARK    4  A    between atoms: C_16  and  O_17
REMARK    5  A    between atoms: C_22  and  C_23
REMARK    6  A    between atoms: C_24  and  O_27
REMARK                            x       y       z     vdW  Elec       q    Type
REMARK                         _______ _______ _______ _____ _____    ______ ____
ROOT
ATOM      1  C   UNL     1     -12.155  19.871  29.178  0.00  0.00    +0.000 C 
ATOM      2  C   UNL     1     -10.987  19.163  29.930  0.00  0.00    +0.000 C 
ATOM      3  C   UNL     1      -9.607  19.818  30.119  0.00  0.00    +0.000 C 
ATOM      4  C   UNL     1     -13.184  18.956  28.456  0.00  0.00    +0.000 C 
ATOM      5  C   UNL     1     -11.495  20.741  28.209  0.00  0.00    +0.000 C 
ATOM      6  C   UNL     1      -9.190  20.909  29.087  0.00  0.00    +0.000 C 
ATOM      7  C   UNL     1     -11.308  17.849  30.375  0.00  0.00    +0.000 C 
ATOM      8  C   UNL     1     -10.112  21.284  28.093  0.00  0.00    +0.000 C 
ATOM      9  C   UNL     1     -12.934  20.716  30.231  0.00  0.00    +0.000 C 
ATOM     10  C   UNL     1     -12.518  17.110  29.902  0.00  0.00    +0.000 C 
ATOM     11  C   UNL     1     -13.453  17.605  28.969  0.00  0.00    +0.000 C 
ATOM     12  C   UNL     1      -8.520  18.689  30.000  0.00  0.00    +0.000 C 
ATOM     13  C   UNL     1     -14.344  16.750  28.463  0.00  0.00    +0.000 C 
ENDROOT
BRANCH   6  14
ATOM     14  O   UNL     1      -8.028  21.640  29.259  0.00  0.00    +0.000 OA
ATOM     15  H   UNL     1      -8.129  22.566  28.979  0.00  0.00    +0.000 HD
ENDBRANCH   6  14
BRANCH   4  16
ATOM     16  C   UNL     1     -13.966  19.467  27.366  0.00  0.00    +0.000 C 
ATOM     17  C   UNL     1     -14.794  20.022  26.203  0.00  0.00    +0.000 C 
BRANCH  17  20
ATOM     18  O   UNL     1     -17.339  20.845  23.851  0.00  0.00    +0.000 OA
ATOM     19  O   UNL     1     -17.516  19.120  25.411  0.00  0.00    +0.000 OA
ATOM     20  C   UNL     1     -15.487  20.489  25.213  0.00  0.00    +0.000 C 
ATOM     21  C   UNL     1     -15.137  21.567  24.322  0.00  0.00    +0.000 C 
ATOM     22  C   UNL     1     -16.893  20.025  24.884  0.00  0.00    +0.000 C 
ATOM     23  C   UNL     1     -16.330  21.667  23.604  0.00  0.00    +0.000 C 
BRANCH  21  24
ATOM     24  O   UNL     1     -14.418  22.634  24.782  0.00  0.00    +0.000 OA
ATOM     25  H   UNL     1     -14.614  22.827  25.715  0.00  0.00    +0.000 HD
ENDBRANCH  21  24
ENDBRANCH  17  20
ENDBRANCH   4  16
BRANCH   3  26
ATOM     26  C   UNL     1      -9.576  20.420  31.482  0.00  0.00    +0.000 C 
BRANCH  26  27
ATOM     27  O   UNL     1      -9.550  20.949  32.709  0.00  0.00    +0.000 OA
ATOM     28  H   UNL     1      -9.741  20.269  33.380  0.00  0.00    +0.000 HD
ENDBRANCH  26  27
ENDBRANCH   3  26
TORSDOF 6
ENDMDL
