MODEL 1
REMARK VINA RESULT:      -8.7      0.000      0.000
REMARK  Name = 5326018_Caulerpin.pdbqt.pdb
REMARK  4 active torsions:
REMARK  status: ('A' for Active; 'I' for Inactive)
REMARK    1  A    between atoms: C_11  and  C_26
REMARK    2  A    between atoms: C_12  and  C_30
REMARK    3  A    between atoms: C_26  and  O_27
REMARK    4  A    between atoms: C_30  and  O_31
REMARK                            x       y       z     vdW  Elec       q    Type
REMARK                         _______ _______ _______ _____ _____    ______ ____
ROOT
ATOM      1  N   UNL     1       3.322  30.939  15.176  0.00  0.00    +0.000 N 
ATOM      2  N   UNL     1       9.379  32.316  17.205  0.00  0.00    +0.000 N 
ATOM      3  C   UNL     1       5.442  30.303  15.301  0.00  0.00    +0.000 C 
ATOM      4  C   UNL     1       7.355  33.074  16.711  0.00  0.00    +0.000 C 
ATOM      5  C   UNL     1       4.603  31.413  15.372  0.00  0.00    +0.000 C 
ATOM      6  C   UNL     1       8.227  32.007  16.511  0.00  0.00    +0.000 C 
ATOM      7  C   UNL     1       4.668  29.159  14.993  0.00  0.00    +0.000 A 
ATOM      8  C   UNL     1       8.009  34.067  17.480  0.00  0.00    +0.000 A 
ATOM      9  C   UNL     1       3.343  29.586  14.916  0.00  0.00    +0.000 A 
ATOM     10  C   UNL     1       9.278  33.569  17.772  0.00  0.00    +0.000 A 
ATOM     11  C   UNL     1       4.860  32.798  15.667  0.00  0.00    +0.000 C 
ATOM     12  C   UNL     1       8.071  30.749  15.827  0.00  0.00    +0.000 C 
ATOM     13  C   UNL     1       6.016  33.084  16.209  0.00  0.00    +0.000 C 
ATOM     14  C   UNL     1       6.850  30.381  15.536  0.00  0.00    +0.000 C 
ATOM     15  C   UNL     1       4.956  27.796  14.790  0.00  0.00    +0.000 A 
ATOM     16  C   UNL     1       7.646  35.334  17.973  0.00  0.00    +0.000 A 
ATOM     17  C   UNL     1       2.282  28.716  14.638  0.00  0.00    +0.000 A 
ATOM     18  C   UNL     1      10.213  34.278  18.534  0.00  0.00    +0.000 A 
ATOM     19  C   UNL     1       3.909  26.916  14.506  0.00  0.00    +0.000 A 
ATOM     20  C   UNL     1       8.569  36.058  18.730  0.00  0.00    +0.000 A 
ATOM     21  C   UNL     1       2.597  27.372  14.432  0.00  0.00    +0.000 A 
ATOM     22  C   UNL     1       9.829  35.536  19.003  0.00  0.00    +0.000 A 
ATOM     23  H   UNL     1       2.466  31.476  15.220  0.00  0.00    +0.000 HD
ATOM     24  H   UNL     1      10.196  31.728  17.315  0.00  0.00    +0.000 HD
ENDROOT
BRANCH  11  26
ATOM     25  O   UNL     1       4.355  34.876  14.593  0.00  0.00    +0.000 OA
ATOM     26  C   UNL     1       3.979  33.940  15.289  0.00  0.00    +0.000 C 
BRANCH  26  27
ATOM     27  O   UNL     1       2.738  33.733  15.819  0.00  0.00    +0.000 OA
ATOM     28  C   UNL     1       1.619  34.045  15.032  0.00  0.00    +0.000 C 
ENDBRANCH  26  27
ENDBRANCH  11  26
BRANCH  12  30
ATOM     29  O   UNL     1      10.344  30.292  15.232  0.00  0.00    +0.000 OA
ATOM     30  C   UNL     1       9.185  29.901  15.312  0.00  0.00    +0.000 C 
BRANCH  30  31
ATOM     31  O   UNL     1       8.689  28.670  14.993  0.00  0.00    +0.000 OA
ATOM     32  C   UNL     1       9.594  27.671  14.605  0.00  0.00    +0.000 C 
ENDBRANCH  30  31
ENDBRANCH  12  30
TORSDOF 4
ENDMDL
MODEL 2
REMARK VINA RESULT:      -8.2      2.077      3.106
REMARK  Name = 5326018_Caulerpin.pdbqt.pdb
REMARK  4 active torsions:
REMARK  status: ('A' for Active; 'I' for Inactive)
REMARK    1  A    between atoms: C_11  and  C_26
REMARK    2  A    between atoms: C_12  and  C_30
REMARK    3  A    between atoms: C_26  and  O_27
REMARK    4  A    between atoms: C_30  and  O_31
REMARK                            x       y       z     vdW  Elec       q    Type
REMARK                         _______ _______ _______ _____ _____    ______ ____
ROOT
ATOM      1  N   UNL     1       4.805  30.967  15.705  0.00  0.00    +0.000 N 
ATOM      2  N   UNL     1      11.066  29.393  16.714  0.00  0.00    +0.000 N 
ATOM      3  C   UNL     1       6.460  29.542  15.322  0.00  0.00    +0.000 C 
ATOM      4  C   UNL     1       9.507  30.969  16.739  0.00  0.00    +0.000 C 
ATOM      5  C   UNL     1       6.179  30.848  15.720  0.00  0.00    +0.000 C 
ATOM      6  C   UNL     1       9.820  29.717  16.216  0.00  0.00    +0.000 C 
ATOM      7  C   UNL     1       5.247  28.887  15.000  0.00  0.00    +0.000 A 
ATOM      8  C   UNL     1      10.600  31.435  17.508  0.00  0.00    +0.000 A 
ATOM      9  C   UNL     1       4.225  29.804  15.244  0.00  0.00    +0.000 A 
ATOM     10  C   UNL     1      11.566  30.431  17.472  0.00  0.00    +0.000 A 
ATOM     11  C   UNL     1       7.027  31.923  16.165  0.00  0.00    +0.000 C 
ATOM     12  C   UNL     1       9.074  28.801  15.394  0.00  0.00    +0.000 C 
ATOM     13  C   UNL     1       8.249  31.609  16.511  0.00  0.00    +0.000 C 
ATOM     14  C   UNL     1       7.787  29.011  15.291  0.00  0.00    +0.000 C 
ATOM     15  C   UNL     1       4.910  27.600  14.542  0.00  0.00    +0.000 A 
ATOM     16  C   UNL     1      10.862  32.604  18.247  0.00  0.00    +0.000 A 
ATOM     17  C   UNL     1       2.873  29.501  15.049  0.00  0.00    +0.000 A 
ATOM     18  C   UNL     1      12.793  30.535  18.138  0.00  0.00    +0.000 A 
ATOM     19  C   UNL     1       3.566  27.282  14.336  0.00  0.00    +0.000 A 
ATOM     20  C   UNL     1      12.083  32.727  18.912  0.00  0.00    +0.000 A 
ATOM     21  C   UNL     1       2.568  28.219  14.585  0.00  0.00    +0.000 A 
ATOM     22  C   UNL     1      13.029  31.709  18.856  0.00  0.00    +0.000 A 
ATOM     23  H   UNL     1       4.265  31.772  15.993  0.00  0.00    +0.000 HD
ATOM     24  H   UNL     1      11.567  28.525  16.574  0.00  0.00    +0.000 HD
ENDROOT
BRANCH  11  26
ATOM     25  O   UNL     1       5.629  33.797  15.654  0.00  0.00    +0.000 OA
ATOM     26  C   UNL     1       6.670  33.371  16.140  0.00  0.00    +0.000 C 
BRANCH  26  27
ATOM     27  O   UNL     1       7.664  34.079  16.752  0.00  0.00    +0.000 OA
ATOM     28  C   UNL     1       7.947  35.369  16.279  0.00  0.00    +0.000 C 
ENDBRANCH  26  27
ENDBRANCH  11  26
BRANCH  12  30
ATOM     29  O   UNL     1       9.171  26.599  14.459  0.00  0.00    +0.000 OA
ATOM     30  C   UNL     1       9.662  27.718  14.552  0.00  0.00    +0.000 C 
BRANCH  30  31
ATOM     31  O   UNL     1      10.774  28.203  13.926  0.00  0.00    +0.000 OA
ATOM     32  C   UNL     1      11.965  27.469  14.027  0.00  0.00    +0.000 C 
ENDBRANCH  30  31
ENDBRANCH  12  30
TORSDOF 4
ENDMDL
MODEL 3
REMARK VINA RESULT:      -8.2      2.118      7.895
REMARK  Name = 5326018_Caulerpin.pdbqt.pdb
REMARK  4 active torsions:
REMARK  status: ('A' for Active; 'I' for Inactive)
REMARK    1  A    between atoms: C_11  and  C_26
REMARK    2  A    between atoms: C_12  and  C_30
REMARK    3  A    between atoms: C_26  and  O_27
REMARK    4  A    between atoms: C_30  and  O_31
REMARK                            x       y       z     vdW  Elec       q    Type
REMARK                         _______ _______ _______ _____ _____    ______ ____
ROOT
ATOM      1  N   UNL     1      11.075  29.306  16.764  0.00  0.00    +0.000 N 
ATOM      2  N   UNL     1       4.872  31.074  15.728  0.00  0.00    +0.000 N 
ATOM      3  C   UNL     1       9.573  30.936  16.753  0.00  0.00    +0.000 C 
ATOM      4  C   UNL     1       6.474  29.583  15.377  0.00  0.00    +0.000 C 
ATOM      5  C   UNL     1       9.841  29.661  16.260  0.00  0.00    +0.000 C 
ATOM      6  C   UNL     1       6.241  30.906  15.743  0.00  0.00    +0.000 C 
ATOM      7  C   UNL     1      10.684  31.382  17.508  0.00  0.00    +0.000 A 
ATOM      8  C   UNL     1       5.238  28.963  15.074  0.00  0.00    +0.000 A 
ATOM      9  C   UNL     1      11.615  30.343  17.496  0.00  0.00    +0.000 A 
ATOM     10  C   UNL     1       4.249  29.921  15.297  0.00  0.00    +0.000 A 
ATOM     11  C   UNL     1       9.061  28.752  15.463  0.00  0.00    +0.000 C 
ATOM     12  C   UNL     1       7.126  31.962  16.161  0.00  0.00    +0.000 C 
ATOM     13  C   UNL     1       7.782  29.005  15.357  0.00  0.00    +0.000 C 
ATOM     14  C   UNL     1       8.337  31.614  16.513  0.00  0.00    +0.000 C 
ATOM     15  C   UNL     1      10.988  32.558  18.218  0.00  0.00    +0.000 A 
ATOM     16  C   UNL     1       4.854  27.678  14.648  0.00  0.00    +0.000 A 
ATOM     17  C   UNL     1      12.845  30.421  18.157  0.00  0.00    +0.000 A 
ATOM     18  C   UNL     1       2.887  29.661  15.112  0.00  0.00    +0.000 A 
ATOM     19  C   UNL     1      12.215  32.655  18.878  0.00  0.00    +0.000 A 
ATOM     20  C   UNL     1       3.500  27.403  14.453  0.00  0.00    +0.000 A 
ATOM     21  C   UNL     1      13.125  31.604  18.845  0.00  0.00    +0.000 A 
ATOM     22  C   UNL     1       2.536  28.380  14.680  0.00  0.00    +0.000 A 
ATOM     23  H   UNL     1      11.545  28.418  16.645  0.00  0.00    +0.000 HD
ATOM     24  H   UNL     1       4.359  31.905  15.998  0.00  0.00    +0.000 HD
ENDROOT
BRANCH  11  26
ATOM     25  O   UNL     1       9.138  26.498  14.664  0.00  0.00    +0.000 OA
ATOM     26  C   UNL     1       9.608  27.629  14.647  0.00  0.00    +0.000 C 
BRANCH  26  27
ATOM     27  O   UNL     1      10.656  28.093  13.906  0.00  0.00    +0.000 OA
ATOM     28  C   UNL     1      11.883  27.420  13.996  0.00  0.00    +0.000 C 
ENDBRANCH  26  27
ENDBRANCH  11  26
BRANCH  12  30
ATOM     29  O   UNL     1       5.712  33.864  15.826  0.00  0.00    +0.000 OA
ATOM     30  C   UNL     1       6.821  33.421  16.100  0.00  0.00    +0.000 C 
BRANCH  30  31
ATOM     31  O   UNL     1       7.950  34.120  16.417  0.00  0.00    +0.000 OA
ATOM     32  C   UNL     1       7.877  35.521  16.447  0.00  0.00    +0.000 C 
ENDBRANCH  30  31
ENDBRANCH  12  30
TORSDOF 4
ENDMDL
MODEL 4
REMARK VINA RESULT:      -7.7     14.380     18.187
REMARK  Name = 5326018_Caulerpin.pdbqt.pdb
REMARK  4 active torsions:
REMARK  status: ('A' for Active; 'I' for Inactive)
REMARK    1  A    between atoms: C_11  and  C_26
REMARK    2  A    between atoms: C_12  and  C_30
REMARK    3  A    between atoms: C_26  and  O_27
REMARK    4  A    between atoms: C_30  and  O_31
REMARK                            x       y       z     vdW  Elec       q    Type
REMARK                         _______ _______ _______ _____ _____    ______ ____
ROOT
ATOM      1  N   UNL     1      -3.910  45.339  12.157  0.00  0.00    +0.000 N 
ATOM      2  N   UNL     1      -8.430  40.773  13.342  0.00  0.00    +0.000 N 
ATOM      3  C   UNL     1      -5.333  43.858  11.325  0.00  0.00    +0.000 C 
ATOM      4  C   UNL     1      -6.732  41.968  14.118  0.00  0.00    +0.000 C 
ATOM      5  C   UNL     1      -4.631  44.207  12.476  0.00  0.00    +0.000 C 
ATOM      6  C   UNL     1      -7.339  41.519  12.948  0.00  0.00    +0.000 C 
ATOM      7  C   UNL     1      -4.983  44.749  10.282  0.00  0.00    +0.000 A 
ATOM      8  C   UNL     1      -7.425  41.435  15.231  0.00  0.00    +0.000 A 
ATOM      9  C   UNL     1      -4.085  45.665  10.829  0.00  0.00    +0.000 A 
ATOM     10  C   UNL     1      -8.483  40.685  14.717  0.00  0.00    +0.000 A 
ATOM     11  C   UNL     1      -4.625  43.657  13.806  0.00  0.00    +0.000 C 
ATOM     12  C   UNL     1      -7.056  41.768  11.558  0.00  0.00    +0.000 C 
ATOM     13  C   UNL     1      -5.604  42.847  14.117  0.00  0.00    +0.000 C 
ATOM     14  C   UNL     1      -6.263  42.772  11.286  0.00  0.00    +0.000 C 
ATOM     15  C   UNL     1      -5.351  44.881   8.931  0.00  0.00    +0.000 A 
ATOM     16  C   UNL     1      -7.273  41.526  16.627  0.00  0.00    +0.000 A 
ATOM     17  C   UNL     1      -3.527  46.713  10.088  0.00  0.00    +0.000 A 
ATOM     18  C   UNL     1      -9.401  40.013  15.532  0.00  0.00    +0.000 A 
ATOM     19  C   UNL     1      -4.799  45.918   8.175  0.00  0.00    +0.000 A 
ATOM     20  C   UNL     1      -8.176  40.857  17.454  0.00  0.00    +0.000 A 
ATOM     21  C   UNL     1      -3.903  46.815   8.747  0.00  0.00    +0.000 A 
ATOM     22  C   UNL     1      -9.220  40.114  16.913  0.00  0.00    +0.000 A 
ATOM     23  H   UNL     1      -3.333  45.886  12.784  0.00  0.00    +0.000 HD
ATOM     24  H   UNL     1      -9.122  40.345  12.739  0.00  0.00    +0.000 HD
ENDROOT
BRANCH  11  26
ATOM     25  O   UNL     1      -3.074  44.922  15.117  0.00  0.00    +0.000 OA
ATOM     26  C   UNL     1      -3.533  43.829  14.808  0.00  0.00    +0.000 C 
BRANCH  26  27
ATOM     27  O   UNL     1      -3.188  42.603  15.298  0.00  0.00    +0.000 OA
ATOM     28  C   UNL     1      -2.073  41.957  14.744  0.00  0.00    +0.000 C 
ENDBRANCH  26  27
ENDBRANCH  11  26
BRANCH  12  30
ATOM     29  O   UNL     1      -6.717  40.518   9.546  0.00  0.00    +0.000 OA
ATOM     30  C   UNL     1      -7.484  40.903  10.420  0.00  0.00    +0.000 C 
BRANCH  30  31
ATOM     31  O   UNL     1      -8.813  40.625  10.555  0.00  0.00    +0.000 OA
ATOM     32  C   UNL     1      -9.725  41.343   9.764  0.00  0.00    +0.000 C 
ENDBRANCH  30  31
ENDBRANCH  12  30
TORSDOF 4
ENDMDL
MODEL 5
REMARK VINA RESULT:      -7.5      2.896      6.724
REMARK  Name = 5326018_Caulerpin.pdbqt.pdb
REMARK  4 active torsions:
REMARK  status: ('A' for Active; 'I' for Inactive)
REMARK    1  A    between atoms: C_11  and  C_26
REMARK    2  A    between atoms: C_12  and  C_30
REMARK    3  A    between atoms: C_26  and  O_27
REMARK    4  A    between atoms: C_30  and  O_31
REMARK                            x       y       z     vdW  Elec       q    Type
REMARK                         _______ _______ _______ _____ _____    ______ ____
ROOT
ATOM      1  N   UNL     1       7.104  35.694  15.765  0.00  0.00    +0.000 N 
ATOM      2  N   UNL     1      10.738  30.265  15.858  0.00  0.00    +0.000 N 
ATOM      3  C   UNL     1       9.081  34.774  16.162  0.00  0.00    +0.000 C 
ATOM      4  C   UNL     1       8.708  31.156  15.857  0.00  0.00    +0.000 C 
ATOM      5  C   UNL     1       7.723  34.491  16.035  0.00  0.00    +0.000 C 
ATOM      6  C   UNL     1      10.047  31.429  16.123  0.00  0.00    +0.000 C 
ATOM      7  C   UNL     1       9.275  36.171  16.034  0.00  0.00    +0.000 A 
ATOM      8  C   UNL     1       8.579  29.794  15.490  0.00  0.00    +0.000 A 
ATOM      9  C   UNL     1       8.019  36.725  15.791  0.00  0.00    +0.000 A 
ATOM     10  C   UNL     1       9.865  29.257  15.503  0.00  0.00    +0.000 A 
ATOM     11  C   UNL     1       6.990  33.252  16.063  0.00  0.00    +0.000 C 
ATOM     12  C   UNL     1      10.726  32.638  16.511  0.00  0.00    +0.000 C 
ATOM     13  C   UNL     1       7.684  32.150  15.939  0.00  0.00    +0.000 C 
ATOM     14  C   UNL     1      10.068  33.759  16.366  0.00  0.00    +0.000 C 
ATOM     15  C   UNL     1      10.395  37.021  16.083  0.00  0.00    +0.000 A 
ATOM     16  C   UNL     1       7.500  28.965  15.131  0.00  0.00    +0.000 A 
ATOM     17  C   UNL     1       7.821  38.096  15.596  0.00  0.00    +0.000 A 
ATOM     18  C   UNL     1      10.132  27.922  15.178  0.00  0.00    +0.000 A 
ATOM     19  C   UNL     1      10.215  38.393  15.897  0.00  0.00    +0.000 A 
ATOM     20  C   UNL     1       7.747  27.630  14.809  0.00  0.00    +0.000 A 
ATOM     21  C   UNL     1       8.948  38.918  15.659  0.00  0.00    +0.000 A 
ATOM     22  C   UNL     1       9.042  27.121  14.834  0.00  0.00    +0.000 A 
ATOM     23  H   UNL     1       6.123  35.837  15.562  0.00  0.00    +0.000 HD
ATOM     24  H   UNL     1      11.741  30.132  15.896  0.00  0.00    +0.000 HD
ENDROOT
BRANCH  11  26
ATOM     25  O   UNL     1       5.095  32.504  17.317  0.00  0.00    +0.000 OA
ATOM     26  C   UNL     1       5.533  33.117  16.351  0.00  0.00    +0.000 C 
BRANCH  26  27
ATOM     27  O   UNL     1       4.831  33.793  15.396  0.00  0.00    +0.000 OA
ATOM     28  C   UNL     1       3.441  33.609  15.339  0.00  0.00    +0.000 C 
ENDBRANCH  26  27
ENDBRANCH  11  26
BRANCH  12  30
ATOM     29  O   UNL     1      13.098  32.348  16.642  0.00  0.00    +0.000 OA
ATOM     30  C   UNL     1      12.058  32.705  17.181  0.00  0.00    +0.000 C 
BRANCH  30  31
ATOM     31  O   UNL     1      11.896  33.236  18.428  0.00  0.00    +0.000 OA
ATOM     32  C   UNL     1      11.727  32.355  19.507  0.00  0.00    +0.000 C 
ENDBRANCH  30  31
ENDBRANCH  12  30
TORSDOF 4
ENDMDL
MODEL 6
REMARK VINA RESULT:      -7.3     11.194     14.018
REMARK  Name = 5326018_Caulerpin.pdbqt.pdb
REMARK  4 active torsions:
REMARK  status: ('A' for Active; 'I' for Inactive)
REMARK    1  A    between atoms: C_11  and  C_26
REMARK    2  A    between atoms: C_12  and  C_30
REMARK    3  A    between atoms: C_26  and  O_27
REMARK    4  A    between atoms: C_30  and  O_31
REMARK                            x       y       z     vdW  Elec       q    Type
REMARK                         _______ _______ _______ _____ _____    ______ ____
ROOT
ATOM      1  N   UNL     1      -1.107  42.995  17.792  0.00  0.00    +0.000 N 
ATOM      2  N   UNL     1       4.756  45.856  18.154  0.00  0.00    +0.000 N 
ATOM      3  C   UNL     1       0.981  43.079  17.052  0.00  0.00    +0.000 C 
ATOM      4  C   UNL     1       2.582  45.989  18.568  0.00  0.00    +0.000 C 
ATOM      5  C   UNL     1       0.000  43.815  17.714  0.00  0.00    +0.000 C 
ATOM      6  C   UNL     1       3.533  45.330  17.793  0.00  0.00    +0.000 C 
ATOM      7  C   UNL     1       0.440  41.829  16.669  0.00  0.00    +0.000 A 
ATOM      8  C   UNL     1       3.230  46.969  19.358  0.00  0.00    +0.000 A 
ATOM      9  C   UNL     1      -0.872  41.803  17.140  0.00  0.00    +0.000 A 
ATOM     10  C   UNL     1       4.592  46.869  19.076  0.00  0.00    +0.000 A 
ATOM     11  C   UNL     1       0.018  45.120  18.320  0.00  0.00    +0.000 C 
ATOM     12  C   UNL     1       3.425  44.252  16.845  0.00  0.00    +0.000 C 
ATOM     13  C   UNL     1       1.192  45.657  18.535  0.00  0.00    +0.000 C 
ATOM     14  C   UNL     1       2.310  43.568  16.850  0.00  0.00    +0.000 C 
ATOM     15  C   UNL     1       0.938  40.706  15.983  0.00  0.00    +0.000 A 
ATOM     16  C   UNL     1       2.800  47.923  20.300  0.00  0.00    +0.000 A 
ATOM     17  C   UNL     1      -1.721  40.706  16.957  0.00  0.00    +0.000 A 
ATOM     18  C   UNL     1       5.554  47.680  19.687  0.00  0.00    +0.000 A 
ATOM     19  C   UNL     1       0.102  39.604  15.786  0.00  0.00    +0.000 A 
ATOM     20  C   UNL     1       3.745  48.745  20.914  0.00  0.00    +0.000 A 
ATOM     21  C   UNL     1      -1.204  39.609  16.265  0.00  0.00    +0.000 A 
ATOM     22  C   UNL     1       5.097  48.624  20.610  0.00  0.00    +0.000 A 
ATOM     23  H   UNL     1      -1.980  43.200  18.261  0.00  0.00    +0.000 HD
ATOM     24  H   UNL     1       5.665  45.561  17.820  0.00  0.00    +0.000 HD
ENDROOT
BRANCH  11  26
ATOM     25  O   UNL     1      -1.248  46.742  19.540  0.00  0.00    +0.000 OA
ATOM     26  C   UNL     1      -1.182  45.960  18.600  0.00  0.00    +0.000 C 
BRANCH  26  27
ATOM     27  O   UNL     1      -2.123  45.715  17.642  0.00  0.00    +0.000 OA
ATOM     28  C   UNL     1      -2.064  46.450  16.449  0.00  0.00    +0.000 C 
ENDBRANCH  26  27
ENDBRANCH  11  26
BRANCH  12  30
ATOM     29  O   UNL     1       4.770  42.795  15.504  0.00  0.00    +0.000 OA
ATOM     30  C   UNL     1       4.418  43.937  15.777  0.00  0.00    +0.000 C 
BRANCH  30  31
ATOM     31  O   UNL     1       4.812  45.102  15.185  0.00  0.00    +0.000 OA
ATOM     32  C   UNL     1       3.905  45.754  14.335  0.00  0.00    +0.000 C 
ENDBRANCH  30  31
ENDBRANCH  12  30
TORSDOF 4
ENDMDL
MODEL 7
REMARK VINA RESULT:      -7.2     33.957     36.420
REMARK  Name = 5326018_Caulerpin.pdbqt.pdb
REMARK  4 active torsions:
REMARK  status: ('A' for Active; 'I' for Inactive)
REMARK    1  A    between atoms: C_11  and  C_26
REMARK    2  A    between atoms: C_12  and  C_30
REMARK    3  A    between atoms: C_26  and  O_27
REMARK    4  A    between atoms: C_30  and  O_31
REMARK                            x       y       z     vdW  Elec       q    Type
REMARK                         _______ _______ _______ _____ _____    ______ ____
ROOT
ATOM      1  N   UNL     1       1.426  56.901  -6.987  0.00  0.00    +0.000 N 
ATOM      2  N   UNL     1       1.409  62.896  -4.391  0.00  0.00    +0.000 N 
ATOM      3  C   UNL     1       2.562  58.755  -6.557  0.00  0.00    +0.000 C 
ATOM      4  C   UNL     1       0.224  61.200  -5.185  0.00  0.00    +0.000 C 
ATOM      5  C   UNL     1       1.275  58.238  -6.685  0.00  0.00    +0.000 C 
ATOM      6  C   UNL     1       1.493  61.771  -5.185  0.00  0.00    +0.000 C 
ATOM      7  C   UNL     1       3.500  57.736  -6.851  0.00  0.00    +0.000 A 
ATOM      8  C   UNL     1      -0.653  62.022  -4.436  0.00  0.00    +0.000 A 
ATOM      9  C   UNL     1       2.761  56.584  -7.121  0.00  0.00    +0.000 A 
ATOM     10  C   UNL     1       0.114  63.081  -3.953  0.00  0.00    +0.000 A 
ATOM     11  C   UNL     1      -0.024  58.826  -6.486  0.00  0.00    +0.000 C 
ATOM     12  C   UNL     1       2.741  61.350  -5.767  0.00  0.00    +0.000 C 
ATOM     13  C   UNL     1      -0.068  59.962  -5.840  0.00  0.00    +0.000 C 
ATOM     14  C   UNL     1       2.818  60.106  -6.166  0.00  0.00    +0.000 C 
ATOM     15  C   UNL     1       4.904  57.669  -6.896  0.00  0.00    +0.000 A 
ATOM     16  C   UNL     1      -2.019  61.965  -4.104  0.00  0.00    +0.000 A 
ATOM     17  C   UNL     1       3.358  55.360  -7.443  0.00  0.00    +0.000 A 
ATOM     18  C   UNL     1      -0.418  64.098  -3.152  0.00  0.00    +0.000 A 
ATOM     19  C   UNL     1       5.517  56.457  -7.221  0.00  0.00    +0.000 A 
ATOM     20  C   UNL     1      -2.567  62.974  -3.311  0.00  0.00    +0.000 A 
ATOM     21  C   UNL     1       4.754  55.325  -7.490  0.00  0.00    +0.000 A 
ATOM     22  C   UNL     1      -1.778  64.021  -2.847  0.00  0.00    +0.000 A 
ATOM     23  H   UNL     1       0.688  56.217  -7.092  0.00  0.00    +0.000 HD
ATOM     24  H   UNL     1       2.168  63.515  -4.133  0.00  0.00    +0.000 HD
ENDROOT
BRANCH  11  26
ATOM     25  O   UNL     1      -1.454  57.159  -7.437  0.00  0.00    +0.000 OA
ATOM     26  C   UNL     1      -1.301  58.317  -7.066  0.00  0.00    +0.000 C 
BRANCH  26  27
ATOM     27  O   UNL     1      -2.214  59.331  -7.076  0.00  0.00    +0.000 OA
ATOM     28  C   UNL     1      -3.536  59.029  -7.437  0.00  0.00    +0.000 C 
ENDBRANCH  26  27
ENDBRANCH  11  26
BRANCH  12  30
ATOM     29  O   UNL     1       3.773  63.394  -6.465  0.00  0.00    +0.000 OA
ATOM     30  C   UNL     1       3.899  62.241  -6.070  0.00  0.00    +0.000 C 
BRANCH  30  31
ATOM     31  O   UNL     1       5.055  61.563  -5.810  0.00  0.00    +0.000 OA
ATOM     32  C   UNL     1       5.691  61.785  -4.579  0.00  0.00    +0.000 C 
ENDBRANCH  30  31
ENDBRANCH  12  30
TORSDOF 4
ENDMDL
MODEL 8
REMARK VINA RESULT:      -7.0      3.197      7.581
REMARK  Name = 5326018_Caulerpin.pdbqt.pdb
REMARK  4 active torsions:
REMARK  status: ('A' for Active; 'I' for Inactive)
REMARK    1  A    between atoms: C_11  and  C_26
REMARK    2  A    between atoms: C_12  and  C_30
REMARK    3  A    between atoms: C_26  and  O_27
REMARK    4  A    between atoms: C_30  and  O_31
REMARK                            x       y       z     vdW  Elec       q    Type
REMARK                         _______ _______ _______ _____ _____    ______ ____
ROOT
ATOM      1  N   UNL     1       9.611  36.073  16.136  0.00  0.00    +0.000 N 
ATOM      2  N   UNL     1      10.814  29.674  15.592  0.00  0.00    +0.000 N 
ATOM      3  C   UNL     1      11.110  34.441  16.193  0.00  0.00    +0.000 C 
ATOM      4  C   UNL     1       9.316  31.272  15.935  0.00  0.00    +0.000 C 
ATOM      5  C   UNL     1       9.746  34.709  16.292  0.00  0.00    +0.000 C 
ATOM      6  C   UNL     1      10.680  30.993  15.975  0.00  0.00    +0.000 C 
ATOM      7  C   UNL     1      11.810  35.662  16.041  0.00  0.00    +0.000 A 
ATOM      8  C   UNL     1       8.613  30.093  15.587  0.00  0.00    +0.000 A 
ATOM      9  C   UNL     1      10.847  36.670  16.014  0.00  0.00    +0.000 A 
ATOM     10  C   UNL     1       9.575  29.104  15.383  0.00  0.00    +0.000 A 
ATOM     11  C   UNL     1       8.603  33.847  16.436  0.00  0.00    +0.000 C 
ATOM     12  C   UNL     1      11.826  31.819  16.250  0.00  0.00    +0.000 C 
ATOM     13  C   UNL     1       8.785  32.575  16.192  0.00  0.00    +0.000 C 
ATOM     14  C   UNL     1      11.642  33.114  16.223  0.00  0.00    +0.000 C 
ATOM     15  C   UNL     1      13.166  36.013  15.907  0.00  0.00    +0.000 A 
ATOM     16  C   UNL     1       7.256  29.767  15.409  0.00  0.00    +0.000 A 
ATOM     17  C   UNL     1      11.171  38.023  15.862  0.00  0.00    +0.000 A 
ATOM     18  C   UNL     1       9.249  27.796  15.010  0.00  0.00    +0.000 A 
ATOM     19  C   UNL     1      13.507  37.359  15.761  0.00  0.00    +0.000 A 
ATOM     20  C   UNL     1       6.912  28.465  15.043  0.00  0.00    +0.000 A 
ATOM     21  C   UNL     1      12.525  38.344  15.740  0.00  0.00    +0.000 A 
ATOM     22  C   UNL     1       7.894  27.499  14.849  0.00  0.00    +0.000 A 
ATOM     23  H   UNL     1       8.744  36.594  16.100  0.00  0.00    +0.000 HD
ATOM     24  H   UNL     1      11.680  29.165  15.462  0.00  0.00    +0.000 HD
ENDROOT
BRANCH  11  26
ATOM     25  O   UNL     1       6.211  33.852  16.501  0.00  0.00    +0.000 OA
ATOM     26  C   UNL     1       7.270  34.260  16.963  0.00  0.00    +0.000 C 
BRANCH  26  27
ATOM     27  O   UNL     1       7.457  35.111  18.013  0.00  0.00    +0.000 OA
ATOM     28  C   UNL     1       7.844  34.567  19.247  0.00  0.00    +0.000 C 
ENDBRANCH  26  27
ENDBRANCH  11  26
BRANCH  12  30
ATOM     29  O   UNL     1      13.434  30.135  16.804  0.00  0.00    +0.000 OA
ATOM     30  C   UNL     1      13.164  31.325  16.689  0.00  0.00    +0.000 C 
BRANCH  30  31
ATOM     31  O   UNL     1      13.981  32.397  16.898  0.00  0.00    +0.000 OA
ATOM     32  C   UNL     1      15.145  32.205  17.659  0.00  0.00    +0.000 C 
ENDBRANCH  30  31
ENDBRANCH  12  30
TORSDOF 4
ENDMDL
MODEL 9
REMARK VINA RESULT:      -6.8     28.061     31.031
REMARK  Name = 5326018_Caulerpin.pdbqt.pdb
REMARK  4 active torsions:
REMARK  status: ('A' for Active; 'I' for Inactive)
REMARK    1  A    between atoms: C_11  and  C_26
REMARK    2  A    between atoms: C_12  and  C_30
REMARK    3  A    between atoms: C_26  and  O_27
REMARK    4  A    between atoms: C_30  and  O_31
REMARK                            x       y       z     vdW  Elec       q    Type
REMARK                         _______ _______ _______ _____ _____    ______ ____
ROOT
ATOM      1  N   UNL     1      -3.027  60.314   9.879  0.00  0.00    +0.000 N 
ATOM      2  N   UNL     1      -1.371  61.135  16.145  0.00  0.00    +0.000 N 
ATOM      3  C   UNL     1      -2.118  61.627  11.415  0.00  0.00    +0.000 C 
ATOM      4  C   UNL     1      -2.609  60.042  14.667  0.00  0.00    +0.000 C 
ATOM      5  C   UNL     1      -2.966  60.537  11.239  0.00  0.00    +0.000 C 
ATOM      6  C   UNL     1      -1.876  61.209  14.864  0.00  0.00    +0.000 C 
ATOM      7  C   UNL     1      -1.715  62.108  10.146  0.00  0.00    +0.000 A 
ATOM      8  C   UNL     1      -2.601  59.285  15.863  0.00  0.00    +0.000 A 
ATOM      9  C   UNL     1      -2.302  61.270   9.200  0.00  0.00    +0.000 A 
ATOM     10  C   UNL     1      -1.822  59.994  16.776  0.00  0.00    +0.000 A 
ATOM     11  C   UNL     1      -3.636  59.674  12.177  0.00  0.00    +0.000 C 
ATOM     12  C   UNL     1      -1.552  62.304  13.986  0.00  0.00    +0.000 C 
ATOM     13  C   UNL     1      -3.224  59.716  13.418  0.00  0.00    +0.000 C 
ATOM     14  C   UNL     1      -1.740  62.113  12.706  0.00  0.00    +0.000 C 
ATOM     15  C   UNL     1      -0.894  63.162   9.705  0.00  0.00    +0.000 A 
ATOM     16  C   UNL     1      -3.164  58.057  16.260  0.00  0.00    +0.000 A 
ATOM     17  C   UNL     1      -2.115  61.434   7.823  0.00  0.00    +0.000 A 
ATOM     18  C   UNL     1      -1.577  59.540  18.077  0.00  0.00    +0.000 A 
ATOM     19  C   UNL     1      -0.701  63.344   8.334  0.00  0.00    +0.000 A 
ATOM     20  C   UNL     1      -2.935  57.593  17.556  0.00  0.00    +0.000 A 
ATOM     21  C   UNL     1      -1.303  62.494   7.412  0.00  0.00    +0.000 A 
ATOM     22  C   UNL     1      -2.156  58.324  18.446  0.00  0.00    +0.000 A 
ATOM     23  H   UNL     1      -3.514  59.560   9.410  0.00  0.00    +0.000 HD
ATOM     24  H   UNL     1      -0.747  61.796  16.590  0.00  0.00    +0.000 HD
ENDROOT
BRANCH  11  26
ATOM     25  O   UNL     1      -5.915  58.995  12.442  0.00  0.00    +0.000 OA
ATOM     26  C   UNL     1      -4.837  58.841  11.880  0.00  0.00    +0.000 C 
BRANCH  26  27
ATOM     27  O   UNL     1      -4.520  57.947  10.899  0.00  0.00    +0.000 OA
ATOM     28  C   UNL     1      -3.991  56.704  11.280  0.00  0.00    +0.000 C 
ENDBRANCH  26  27
ENDBRANCH  11  26
BRANCH  12  30
ATOM     29  O   UNL     1      -1.760  64.315  15.267  0.00  0.00    +0.000 OA
ATOM     30  C   UNL     1      -1.146  63.672  14.424  0.00  0.00    +0.000 C 
BRANCH  30  31
ATOM     31  O   UNL     1      -0.011  64.028  13.756  0.00  0.00    +0.000 OA
ATOM     32  C   UNL     1       1.215  63.519  14.212  0.00  0.00    +0.000 C 
ENDBRANCH  30  31
ENDBRANCH  12  30
TORSDOF 4
ENDMDL
