MODEL 1
REMARK VINA RESULT:      -4.2      0.000      0.000
REMARK  Name = 5350_Sulforaphane.pdbqt.pdb
REMARK  3 active torsions:
REMARK  status: ('A' for Active; 'I' for Inactive)
REMARK    1  A    between atoms: C_1  and  C_2
REMARK    2  A    between atoms: C_3  and  N_5
REMARK    3  A    between atoms: C_7  and  S_8
REMARK                            x       y       z     vdW  Elec       q    Type
REMARK                         _______ _______ _______ _____ _____    ______ ____
ROOT
ATOM      1  C   UNL     1       0.893  30.277  15.124  0.00  0.00    +0.000 C 
ATOM      2  C   UNL     1      -0.172  31.333  15.438  0.00  0.00    +0.000 C 
ENDROOT
BRANCH   2   3
ATOM      3  S   UNL     1      -1.394  32.550  15.801  0.00  0.00    +0.000 S 
ATOM      4  O   UNL     1      -1.576  32.878  14.348  0.00  0.00    +0.000 OA
ATOM      5  C   UNL     1      -0.204  33.831  16.008  0.00  0.00    +0.000 C 
ENDBRANCH   2   3
BRANCH   1   6
ATOM      6  C   UNL     1       1.956  29.220  14.812  0.00  0.00    +0.000 C 
ATOM      7  C   UNL     1       3.022  28.162  14.500  0.00  0.00    +0.000 C 
BRANCH   7   9
ATOM      8  S   UNL     1       6.494  28.154  14.873  0.00  0.00    +0.000 S 
ATOM      9  N   UNL     1       3.961  27.247  14.224  0.00  0.00    +0.000 NA
ATOM     10  C   UNL     1       5.026  27.650  14.507  0.00  0.00    +0.000 C 
ENDBRANCH   7   9
ENDBRANCH   1   6
TORSDOF 3
ENDMDL
MODEL 2
REMARK VINA RESULT:      -3.8      4.226      6.969
REMARK  Name = 5350_Sulforaphane.pdbqt.pdb
REMARK  3 active torsions:
REMARK  status: ('A' for Active; 'I' for Inactive)
REMARK    1  A    between atoms: C_1  and  C_2
REMARK    2  A    between atoms: C_3  and  N_5
REMARK    3  A    between atoms: C_7  and  S_8
REMARK                            x       y       z     vdW  Elec       q    Type
REMARK                         _______ _______ _______ _____ _____    ______ ____
ROOT
ATOM      1  C   UNL     1       3.986  30.206  15.752  0.00  0.00    +0.000 C 
ATOM      2  C   UNL     1       5.442  29.921  15.368  0.00  0.00    +0.000 C 
ENDROOT
BRANCH   2   3
ATOM      3  S   UNL     1       7.115  29.592  14.923  0.00  0.00    +0.000 S 
ATOM      4  O   UNL     1       7.536  29.495  16.359  0.00  0.00    +0.000 OA
ATOM      5  C   UNL     1       7.539  31.299  14.846  0.00  0.00    +0.000 C 
ENDBRANCH   2   3
BRANCH   1   6
ATOM      6  C   UNL     1       2.531  30.488  16.136  0.00  0.00    +0.000 C 
ATOM      7  C   UNL     1       1.074  30.771  16.521  0.00  0.00    +0.000 C 
BRANCH   7   9
ATOM      8  S   UNL     1      -1.352  32.940  15.255  0.00  0.00    +0.000 S 
ATOM      9  N   UNL     1      -0.199  31.007  16.866  0.00  0.00    +0.000 NA
ATOM     10  C   UNL     1      -0.670  31.828  16.172  0.00  0.00    +0.000 C 
ENDBRANCH   7   9
ENDBRANCH   1   6
TORSDOF 3
ENDMDL
MODEL 3
REMARK VINA RESULT:      -3.8      4.050      7.161
REMARK  Name = 5350_Sulforaphane.pdbqt.pdb
REMARK  3 active torsions:
REMARK  status: ('A' for Active; 'I' for Inactive)
REMARK    1  A    between atoms: C_1  and  C_2
REMARK    2  A    between atoms: C_3  and  N_5
REMARK    3  A    between atoms: C_7  and  S_8
REMARK                            x       y       z     vdW  Elec       q    Type
REMARK                         _______ _______ _______ _____ _____    ______ ____
ROOT
ATOM      1  C   UNL     1       3.555  30.875  15.755  0.00  0.00    +0.000 C 
ATOM      2  C   UNL     1       4.600  29.785  15.493  0.00  0.00    +0.000 C 
ENDROOT
BRANCH   2   3
ATOM      3  S   UNL     1       5.799  28.529  15.194  0.00  0.00    +0.000 S 
ATOM      4  O   UNL     1       6.389  29.290  14.043  0.00  0.00    +0.000 OA
ATOM      5  C   UNL     1       4.732  27.619  14.130  0.00  0.00    +0.000 C 
ENDBRANCH   2   3
BRANCH   1   6
ATOM      6  C   UNL     1       2.513  31.966  16.018  0.00  0.00    +0.000 C 
ATOM      7  C   UNL     1       1.470  33.058  16.283  0.00  0.00    +0.000 C 
BRANCH   7   9
ATOM      8  S   UNL     1      -1.740  33.612  15.023  0.00  0.00    +0.000 S 
ATOM      9  N   UNL     1       0.553  34.005  16.523  0.00  0.00    +0.000 NA
ATOM     10  C   UNL     1      -0.411  33.820  15.879  0.00  0.00    +0.000 C 
ENDBRANCH   7   9
ENDBRANCH   1   6
TORSDOF 3
ENDMDL
MODEL 4
REMARK VINA RESULT:      -3.7      6.769      8.653
REMARK  Name = 5350_Sulforaphane.pdbqt.pdb
REMARK  3 active torsions:
REMARK  status: ('A' for Active; 'I' for Inactive)
REMARK    1  A    between atoms: C_1  and  C_2
REMARK    2  A    between atoms: C_3  and  N_5
REMARK    3  A    between atoms: C_7  and  S_8
REMARK                            x       y       z     vdW  Elec       q    Type
REMARK                         _______ _______ _______ _____ _____    ______ ____
ROOT
ATOM      1  C   UNL     1      -1.047  38.157  15.723  0.00  0.00    +0.000 C 
ATOM      2  C   UNL     1      -0.940  39.684  15.652  0.00  0.00    +0.000 C 
ENDROOT
BRANCH   2   3
ATOM      3  S   UNL     1      -0.818  41.440  15.575  0.00  0.00    +0.000 S 
ATOM      4  O   UNL     1      -0.175  41.391  14.221  0.00  0.00    +0.000 OA
ATOM      5  C   UNL     1       0.743  41.472  16.388  0.00  0.00    +0.000 C 
ENDBRANCH   2   3
BRANCH   1   6
ATOM      6  C   UNL     1      -1.156  36.631  15.791  0.00  0.00    +0.000 C 
ATOM      7  C   UNL     1      -1.266  35.104  15.860  0.00  0.00    +0.000 C 
BRANCH   7   9
ATOM      8  S   UNL     1      -2.841  32.730  13.840  0.00  0.00    +0.000 S 
ATOM      9  N   UNL     1      -1.356  33.768  15.931  0.00  0.00    +0.000 NA
ATOM     10  C   UNL     1      -1.988  33.348  15.037  0.00  0.00    +0.000 C 
ENDBRANCH   7   9
ENDBRANCH   1   6
TORSDOF 3
ENDMDL
MODEL 5
REMARK VINA RESULT:      -3.7      4.163      7.208
REMARK  Name = 5350_Sulforaphane.pdbqt.pdb
REMARK  3 active torsions:
REMARK  status: ('A' for Active; 'I' for Inactive)
REMARK    1  A    between atoms: C_1  and  C_2
REMARK    2  A    between atoms: C_3  and  N_5
REMARK    3  A    between atoms: C_7  and  S_8
REMARK                            x       y       z     vdW  Elec       q    Type
REMARK                         _______ _______ _______ _____ _____    ______ ____
ROOT
ATOM      1  C   UNL     1       5.402  29.464  15.749  0.00  0.00    +0.000 C 
ATOM      2  C   UNL     1       6.919  29.546  15.950  0.00  0.00    +0.000 C 
ENDROOT
BRANCH   2   3
ATOM      3  S   UNL     1       8.663  29.644  16.184  0.00  0.00    +0.000 S 
ATOM      4  O   UNL     1       8.800  30.701  15.129  0.00  0.00    +0.000 OA
ATOM      5  C   UNL     1       8.994  28.356  15.029  0.00  0.00    +0.000 C 
ENDBRANCH   2   3
BRANCH   1   6
ATOM      6  C   UNL     1       3.886  29.383  15.546  0.00  0.00    +0.000 C 
ATOM      7  C   UNL     1       2.369  29.302  15.342  0.00  0.00    +0.000 C 
BRANCH   7   9
ATOM      8  S   UNL     1      -0.251  31.325  16.456  0.00  0.00    +0.000 S 
ATOM      9  N   UNL     1       1.041  29.240  15.174  0.00  0.00    +0.000 NA
ATOM     10  C   UNL     1       0.512  30.132  15.724  0.00  0.00    +0.000 C 
ENDBRANCH   7   9
ENDBRANCH   1   6
TORSDOF 3
ENDMDL
MODEL 6
REMARK VINA RESULT:      -3.7      5.463      7.269
REMARK  Name = 5350_Sulforaphane.pdbqt.pdb
REMARK  3 active torsions:
REMARK  status: ('A' for Active; 'I' for Inactive)
REMARK    1  A    between atoms: C_1  and  C_2
REMARK    2  A    between atoms: C_3  and  N_5
REMARK    3  A    between atoms: C_7  and  S_8
REMARK                            x       y       z     vdW  Elec       q    Type
REMARK                         _______ _______ _______ _____ _____    ______ ____
ROOT
ATOM      1  C   UNL     1      -1.401  37.252  14.920  0.00  0.00    +0.000 C 
ATOM      2  C   UNL     1      -2.021  38.589  14.499  0.00  0.00    +0.000 C 
ENDROOT
BRANCH   2   3
ATOM      3  S   UNL     1      -2.733  40.127  14.018  0.00  0.00    +0.000 S 
ATOM      4  O   UNL     1      -2.235  39.980  12.611  0.00  0.00    +0.000 OA
ATOM      5  C   UNL     1      -1.313  41.052  14.494  0.00  0.00    +0.000 C 
ENDBRANCH   2   3
BRANCH   1   6
ATOM      6  C   UNL     1      -0.785  35.915  15.342  0.00  0.00    +0.000 C 
ATOM      7  C   UNL     1      -0.168  34.576  15.763  0.00  0.00    +0.000 C 
BRANCH   7   9
ATOM      8  S   UNL     1       3.067  33.287  15.504  0.00  0.00    +0.000 S 
ATOM      9  N   UNL     1       0.377  33.412  16.142  0.00  0.00    +0.000 NA
ATOM     10  C   UNL     1       1.517  33.379  15.863  0.00  0.00    +0.000 C 
ENDBRANCH   7   9
ENDBRANCH   1   6
TORSDOF 3
ENDMDL
MODEL 7
REMARK VINA RESULT:      -3.6      4.135      5.147
REMARK  Name = 5350_Sulforaphane.pdbqt.pdb
REMARK  3 active torsions:
REMARK  status: ('A' for Active; 'I' for Inactive)
REMARK    1  A    between atoms: C_1  and  C_2
REMARK    2  A    between atoms: C_3  and  N_5
REMARK    3  A    between atoms: C_7  and  S_8
REMARK                            x       y       z     vdW  Elec       q    Type
REMARK                         _______ _______ _______ _____ _____    ______ ____
ROOT
ATOM      1  C   UNL     1       5.855  29.427  15.191  0.00  0.00    +0.000 C 
ATOM      2  C   UNL     1       4.663  30.378  15.343  0.00  0.00    +0.000 C 
ENDROOT
BRANCH   2   3
ATOM      3  S   UNL     1       3.291  31.470  15.514  0.00  0.00    +0.000 S 
ATOM      4  O   UNL     1       3.677  31.823  16.920  0.00  0.00    +0.000 OA
ATOM      5  C   UNL     1       2.210  30.192  16.061  0.00  0.00    +0.000 C 
ENDBRANCH   2   3
BRANCH   1   6
ATOM      6  C   UNL     1       7.047  28.478  15.038  0.00  0.00    +0.000 C 
ATOM      7  C   UNL     1       8.241  27.529  14.885  0.00  0.00    +0.000 C 
BRANCH   7   9
ATOM      8  S   UNL     1      11.625  28.111  14.247  0.00  0.00    +0.000 S 
ATOM      9  N   UNL     1       9.292  26.708  14.747  0.00  0.00    +0.000 NA
ATOM     10  C   UNL     1      10.270  27.322  14.536  0.00  0.00    +0.000 C 
ENDBRANCH   7   9
ENDBRANCH   1   6
TORSDOF 3
ENDMDL
MODEL 8
REMARK VINA RESULT:      -3.6      3.102      3.453
REMARK  Name = 5350_Sulforaphane.pdbqt.pdb
REMARK  3 active torsions:
REMARK  status: ('A' for Active; 'I' for Inactive)
REMARK    1  A    between atoms: C_1  and  C_2
REMARK    2  A    between atoms: C_3  and  N_5
REMARK    3  A    between atoms: C_7  and  S_8
REMARK                            x       y       z     vdW  Elec       q    Type
REMARK                         _______ _______ _______ _____ _____    ______ ____
ROOT
ATOM      1  C   UNL     1       4.275  31.000  15.339  0.00  0.00    +0.000 C 
ATOM      2  C   UNL     1       3.238  32.124  15.447  0.00  0.00    +0.000 C 
ENDROOT
BRANCH   2   3
ATOM      3  S   UNL     1       2.045  33.414  15.567  0.00  0.00    +0.000 S 
ATOM      4  O   UNL     1       1.960  33.272  17.058  0.00  0.00    +0.000 OA
ATOM      5  C   UNL     1       0.686  32.321  15.320  0.00  0.00    +0.000 C 
ENDBRANCH   2   3
BRANCH   1   6
ATOM      6  C   UNL     1       5.312  29.879  15.230  0.00  0.00    +0.000 C 
ATOM      7  C   UNL     1       6.352  28.757  15.121  0.00  0.00    +0.000 C 
BRANCH   7   9
ATOM      8  S   UNL     1       9.838  28.706  15.307  0.00  0.00    +0.000 S 
ATOM      9  N   UNL     1       7.250  27.768  15.021  0.00  0.00    +0.000 NA
ATOM     10  C   UNL     1       8.340  28.186  15.146  0.00  0.00    +0.000 C 
ENDBRANCH   7   9
ENDBRANCH   1   6
TORSDOF 3
ENDMDL
MODEL 9
REMARK VINA RESULT:      -3.5      3.532      3.689
REMARK  Name = 5350_Sulforaphane.pdbqt.pdb
REMARK  3 active torsions:
REMARK  status: ('A' for Active; 'I' for Inactive)
REMARK    1  A    between atoms: C_1  and  C_2
REMARK    2  A    between atoms: C_3  and  N_5
REMARK    3  A    between atoms: C_7  and  S_8
REMARK                            x       y       z     vdW  Elec       q    Type
REMARK                         _______ _______ _______ _____ _____    ______ ____
ROOT
ATOM      1  C   UNL     1       2.923  33.224  15.610  0.00  0.00    +0.000 C 
ATOM      2  C   UNL     1       1.465  33.694  15.549  0.00  0.00    +0.000 C 
ENDROOT
BRANCH   2   3
ATOM      3  S   UNL     1      -0.211  34.232  15.476  0.00  0.00    +0.000 S 
ATOM      4  O   UNL     1      -0.120  34.877  16.827  0.00  0.00    +0.000 OA
ATOM      5  C   UNL     1      -0.831  32.733  16.160  0.00  0.00    +0.000 C 
ENDBRANCH   2   3
BRANCH   1   6
ATOM      6  C   UNL     1       4.380  32.757  15.669  0.00  0.00    +0.000 C 
ATOM      7  C   UNL     1       5.839  32.289  15.729  0.00  0.00    +0.000 C 
BRANCH   7   9
ATOM      8  S   UNL     1       7.340  29.176  15.227  0.00  0.00    +0.000 S 
ATOM      9  N   UNL     1       7.115  31.881  15.768  0.00  0.00    +0.000 NA
ATOM     10  C   UNL     1       7.189  30.733  15.536  0.00  0.00    +0.000 C 
ENDBRANCH   7   9
ENDBRANCH   1   6
TORSDOF 3
ENDMDL
