MODEL 1
REMARK VINA RESULT:      -6.2      0.000      0.000
REMARK  Name = 5357283_Methylferulate.pdbqt.pdb
REMARK  5 active torsions:
REMARK  status: ('A' for Active; 'I' for Inactive)
REMARK    1  A    between atoms: C_1  and  C_11
REMARK    2  A    between atoms: C_2  and  O_7
REMARK    3  A    between atoms: C_5  and  O_9
REMARK    4  A    between atoms: C_12  and  C_14
REMARK    5  A    between atoms: C_14  and  O_15
REMARK                            x       y       z     vdW  Elec       q    Type
REMARK                         _______ _______ _______ _____ _____    ______ ____
ROOT
ATOM      1  C   UNL     1       3.751  29.451  15.517  0.00  0.00    +0.000 A 
ATOM      2  C   UNL     1       6.175  29.416  15.588  0.00  0.00    +0.000 A 
ATOM      3  C   UNL     1       4.958  30.008  15.938  0.00  0.00    +0.000 A 
ATOM      4  C   UNL     1       3.749  28.295  14.741  0.00  0.00    +0.000 A 
ATOM      5  C   UNL     1       6.157  28.256  14.809  0.00  0.00    +0.000 A 
ATOM      6  C   UNL     1       4.953  27.695  14.386  0.00  0.00    +0.000 A 
ENDROOT
BRANCH   2   7
ATOM      7  O   UNL     1       7.406  29.899  15.961  0.00  0.00    +0.000 OA
ATOM      8  C   UNL     1       7.769  31.128  15.388  0.00  0.00    +0.000 C 
ENDBRANCH   2   7
BRANCH   5   9
ATOM      9  O   UNL     1       7.338  27.661  14.457  0.00  0.00    +0.000 OA
ATOM     10  H   UNL     1       8.064  28.094  14.943  0.00  0.00    +0.000 HD
ENDBRANCH   5   9
BRANCH   1  11
ATOM     11  C   UNL     1       2.519  30.069  15.883  0.00  0.00    +0.000 C 
ATOM     12  C   UNL     1       1.481  30.591  16.191  0.00  0.00    +0.000 C 
BRANCH  12  14
ATOM     13  O   UNL     1      -0.510  30.662  17.363  0.00  0.00    +0.000 OA
ATOM     14  C   UNL     1       0.235  31.219  16.567  0.00  0.00    +0.000 C 
BRANCH  14  15
ATOM     15  O   UNL     1       0.074  32.416  15.931  0.00  0.00    +0.000 OA
ATOM     16  C   UNL     1       0.964  33.456  16.249  0.00  0.00    +0.000 C 
ENDBRANCH  14  15
ENDBRANCH  12  14
ENDBRANCH   1  11
TORSDOF 5
ENDMDL
MODEL 2
REMARK VINA RESULT:      -6.2      1.659      6.451
REMARK  Name = 5357283_Methylferulate.pdbqt.pdb
REMARK  5 active torsions:
REMARK  status: ('A' for Active; 'I' for Inactive)
REMARK    1  A    between atoms: C_1  and  C_11
REMARK    2  A    between atoms: C_2  and  O_7
REMARK    3  A    between atoms: C_5  and  O_9
REMARK    4  A    between atoms: C_12  and  C_14
REMARK    5  A    between atoms: C_14  and  O_15
REMARK                            x       y       z     vdW  Elec       q    Type
REMARK                         _______ _______ _______ _____ _____    ______ ____
ROOT
ATOM      1  C   UNL     1       1.674  30.784  15.583  0.00  0.00    +0.000 A 
ATOM      2  C   UNL     1       0.735  33.014  15.422  0.00  0.00    +0.000 A 
ATOM      3  C   UNL     1       1.756  32.103  15.138  0.00  0.00    +0.000 A 
ATOM      4  C   UNL     1       0.568  30.362  16.317  0.00  0.00    +0.000 A 
ATOM      5  C   UNL     1      -0.368  32.577  16.160  0.00  0.00    +0.000 A 
ATOM      6  C   UNL     1      -0.455  31.259  16.607  0.00  0.00    +0.000 A 
ENDROOT
BRANCH   2   7
ATOM      7  O   UNL     1       0.738  34.329  15.022  0.00  0.00    +0.000 OA
ATOM      8  C   UNL     1       1.696  34.661  14.052  0.00  0.00    +0.000 C 
ENDBRANCH   2   7
BRANCH   5   9
ATOM      9  O   UNL     1      -1.378  33.454  16.448  0.00  0.00    +0.000 OA
ATOM     10  H   UNL     1      -1.766  33.213  17.310  0.00  0.00    +0.000 HD
ENDBRANCH   5   9
BRANCH   1  11
ATOM     11  C   UNL     1       2.725  29.868  15.284  0.00  0.00    +0.000 C 
ATOM     12  C   UNL     1       3.613  29.097  15.033  0.00  0.00    +0.000 C 
BRANCH  12  14
ATOM     13  O   UNL     1       4.499  27.287  13.901  0.00  0.00    +0.000 OA
ATOM     14  C   UNL     1       4.680  28.173  14.726  0.00  0.00    +0.000 C 
BRANCH  14  15
ATOM     15  O   UNL     1       5.799  28.453  15.456  0.00  0.00    +0.000 OA
ATOM     16  C   UNL     1       7.048  28.298  14.831  0.00  0.00    +0.000 C 
ENDBRANCH  14  15
ENDBRANCH  12  14
ENDBRANCH   1  11
TORSDOF 5
ENDMDL
MODEL 3
REMARK VINA RESULT:      -6.2      1.909      6.303
REMARK  Name = 5357283_Methylferulate.pdbqt.pdb
REMARK  5 active torsions:
REMARK  status: ('A' for Active; 'I' for Inactive)
REMARK    1  A    between atoms: C_1  and  C_11
REMARK    2  A    between atoms: C_2  and  O_7
REMARK    3  A    between atoms: C_5  and  O_9
REMARK    4  A    between atoms: C_12  and  C_14
REMARK    5  A    between atoms: C_14  and  O_15
REMARK                            x       y       z     vdW  Elec       q    Type
REMARK                         _______ _______ _______ _____ _____    ______ ____
ROOT
ATOM      1  C   UNL     1       4.772  28.452  14.950  0.00  0.00    +0.000 A 
ATOM      2  C   UNL     1       2.913  29.754  15.805  0.00  0.00    +0.000 A 
ATOM      3  C   UNL     1       4.284  29.488  15.746  0.00  0.00    +0.000 A 
ATOM      4  C   UNL     1       3.892  27.671  14.204  0.00  0.00    +0.000 A 
ATOM      5  C   UNL     1       2.043  28.963  15.051  0.00  0.00    +0.000 A 
ATOM      6  C   UNL     1       2.525  27.925  14.254  0.00  0.00    +0.000 A 
ENDROOT
BRANCH   2   7
ATOM      7  O   UNL     1       2.351  30.754  16.562  0.00  0.00    +0.000 OA
ATOM      8  C   UNL     1       2.740  32.059  16.220  0.00  0.00    +0.000 C 
ENDBRANCH   2   7
BRANCH   5   9
ATOM      9  O   UNL     1       0.697  29.209  15.095  0.00  0.00    +0.000 OA
ATOM     10  H   UNL     1       0.493  29.940  14.484  0.00  0.00    +0.000 HD
ENDBRANCH   5   9
BRANCH   1  11
ATOM     11  C   UNL     1       6.173  28.193  14.903  0.00  0.00    +0.000 C 
ATOM     12  C   UNL     1       7.355  27.977  14.864  0.00  0.00    +0.000 C 
BRANCH  12  14
ATOM     13  O   UNL     1       9.182  26.607  14.509  0.00  0.00    +0.000 OA
ATOM     14  C   UNL     1       8.776  27.721  14.814  0.00  0.00    +0.000 C 
BRANCH  14  15
ATOM     15  O   UNL     1       9.491  28.838  15.137  0.00  0.00    +0.000 OA
ATOM     16  C   UNL     1       9.375  29.338  16.445  0.00  0.00    +0.000 C 
ENDBRANCH  14  15
ENDBRANCH  12  14
ENDBRANCH   1  11
TORSDOF 5
ENDMDL
MODEL 4
REMARK VINA RESULT:      -5.9      2.980      4.626
REMARK  Name = 5357283_Methylferulate.pdbqt.pdb
REMARK  5 active torsions:
REMARK  status: ('A' for Active; 'I' for Inactive)
REMARK    1  A    between atoms: C_1  and  C_11
REMARK    2  A    between atoms: C_2  and  O_7
REMARK    3  A    between atoms: C_5  and  O_9
REMARK    4  A    between atoms: C_12  and  C_14
REMARK    5  A    between atoms: C_14  and  O_15
REMARK                            x       y       z     vdW  Elec       q    Type
REMARK                         _______ _______ _______ _____ _____    ______ ____
ROOT
ATOM      1  C   UNL     1       0.775  31.554  15.449  0.00  0.00    +0.000 A 
ATOM      2  C   UNL     1       2.565  29.992  15.938  0.00  0.00    +0.000 A 
ATOM      3  C   UNL     1       1.299  30.262  15.411  0.00  0.00    +0.000 A 
ATOM      4  C   UNL     1       1.513  32.590  16.016  0.00  0.00    +0.000 A 
ATOM      5  C   UNL     1       3.294  31.041  16.503  0.00  0.00    +0.000 A 
ATOM      6  C   UNL     1       2.775  32.335  16.544  0.00  0.00    +0.000 A 
ENDROOT
BRANCH   2   7
ATOM      7  O   UNL     1       3.153  28.750  15.941  0.00  0.00    +0.000 OA
ATOM      8  C   UNL     1       3.313  28.157  14.678  0.00  0.00    +0.000 C 
ENDBRANCH   2   7
BRANCH   5   9
ATOM      9  O   UNL     1       4.536  30.797  17.023  0.00  0.00    +0.000 OA
ATOM     10  H   UNL     1       4.556  29.887  17.372  0.00  0.00    +0.000 HD
ENDBRANCH   5   9
BRANCH   1  11
ATOM     11  C   UNL     1      -0.519  31.811  14.908  0.00  0.00    +0.000 C 
ATOM     12  C   UNL     1      -1.609  32.029  14.451  0.00  0.00    +0.000 C 
BRANCH  12  14
ATOM     13  O   UNL     1      -3.125  33.339  13.299  0.00  0.00    +0.000 OA
ATOM     14  C   UNL     1      -2.920  32.295  13.905  0.00  0.00    +0.000 C 
BRANCH  14  15
ATOM     15  O   UNL     1      -3.782  31.270  14.169  0.00  0.00    +0.000 OA
ATOM     16  C   UNL     1      -4.681  31.426  15.239  0.00  0.00    +0.000 C 
ENDBRANCH  14  15
ENDBRANCH  12  14
ENDBRANCH   1  11
TORSDOF 5
ENDMDL
MODEL 5
REMARK VINA RESULT:      -5.9      2.255      7.308
REMARK  Name = 5357283_Methylferulate.pdbqt.pdb
REMARK  5 active torsions:
REMARK  status: ('A' for Active; 'I' for Inactive)
REMARK    1  A    between atoms: C_1  and  C_11
REMARK    2  A    between atoms: C_2  and  O_7
REMARK    3  A    between atoms: C_5  and  O_9
REMARK    4  A    between atoms: C_12  and  C_14
REMARK    5  A    between atoms: C_14  and  O_15
REMARK                            x       y       z     vdW  Elec       q    Type
REMARK                         _______ _______ _______ _____ _____    ______ ____
ROOT
ATOM      1  C   UNL     1       0.846  31.713  15.690  0.00  0.00    +0.000 A 
ATOM      2  C   UNL     1      -1.465  32.443  15.596  0.00  0.00    +0.000 A 
ATOM      3  C   UNL     1      -0.500  31.443  15.445  0.00  0.00    +0.000 A 
ATOM      4  C   UNL     1       1.241  32.988  16.090  0.00  0.00    +0.000 A 
ATOM      5  C   UNL     1      -1.054  33.717  15.998  0.00  0.00    +0.000 A 
ATOM      6  C   UNL     1       0.290  33.992  16.245  0.00  0.00    +0.000 A 
ENDROOT
BRANCH   2   7
ATOM      7  O   UNL     1      -2.809  32.261  15.376  0.00  0.00    +0.000 OA
ATOM      8  C   UNL     1      -3.190  32.165  14.028  0.00  0.00    +0.000 C 
ENDBRANCH   2   7
BRANCH   5   9
ATOM      9  O   UNL     1      -1.984  34.709  16.153  0.00  0.00    +0.000 OA
ATOM     10  H   UNL     1      -2.777  34.477  15.637  0.00  0.00    +0.000 HD
ENDBRANCH   5   9
BRANCH   1  11
ATOM     11  C   UNL     1       1.816  30.682  15.529  0.00  0.00    +0.000 C 
ATOM     12  C   UNL     1       2.635  29.811  15.396  0.00  0.00    +0.000 C 
BRANCH  12  14
ATOM     13  O   UNL     1       3.287  27.676  14.799  0.00  0.00    +0.000 OA
ATOM     14  C   UNL     1       3.622  28.769  15.237  0.00  0.00    +0.000 C 
BRANCH  14  15
ATOM     15  O   UNL     1       4.859  29.196  15.627  0.00  0.00    +0.000 OA
ATOM     16  C   UNL     1       5.980  28.504  15.136  0.00  0.00    +0.000 C 
ENDBRANCH  14  15
ENDBRANCH  12  14
ENDBRANCH   1  11
TORSDOF 5
ENDMDL
MODEL 6
REMARK VINA RESULT:      -5.4     18.187     19.199
REMARK  Name = 5357283_Methylferulate.pdbqt.pdb
REMARK  5 active torsions:
REMARK  status: ('A' for Active; 'I' for Inactive)
REMARK    1  A    between atoms: C_1  and  C_11
REMARK    2  A    between atoms: C_2  and  O_7
REMARK    3  A    between atoms: C_5  and  O_9
REMARK    4  A    between atoms: C_12  and  C_14
REMARK    5  A    between atoms: C_14  and  O_15
REMARK                            x       y       z     vdW  Elec       q    Type
REMARK                         _______ _______ _______ _____ _____    ______ ____
ROOT
ATOM      1  C   UNL     1      13.674  44.859   9.519  0.00  0.00    +0.000 A 
ATOM      2  C   UNL     1      16.017  44.783   8.899  0.00  0.00    +0.000 A 
ATOM      3  C   UNL     1      14.957  45.402   9.567  0.00  0.00    +0.000 A 
ATOM      4  C   UNL     1      13.437  43.689   8.801  0.00  0.00    +0.000 A 
ATOM      5  C   UNL     1      15.765  43.610   8.183  0.00  0.00    +0.000 A 
ATOM      6  C   UNL     1      14.484  43.062   8.132  0.00  0.00    +0.000 A 
ENDROOT
BRANCH   2   7
ATOM      7  O   UNL     1      17.309  45.252   8.895  0.00  0.00    +0.000 OA
ATOM      8  C   UNL     1      17.931  45.313  10.152  0.00  0.00    +0.000 C 
ENDBRANCH   2   7
BRANCH   5   9
ATOM      9  O   UNL     1      16.790  42.988   7.523  0.00  0.00    +0.000 OA
ATOM     10  H   UNL     1      16.436  42.204   7.064  0.00  0.00    +0.000 HD
ENDBRANCH   5   9
BRANCH   1  11
ATOM     11  C   UNL     1      12.604  45.504  10.206  0.00  0.00    +0.000 C 
ATOM     12  C   UNL     1      11.701  46.048  10.783  0.00  0.00    +0.000 C 
BRANCH  12  14
ATOM     13  O   UNL     1      10.242  46.282  12.561  0.00  0.00    +0.000 OA
ATOM     14  C   UNL     1      10.615  46.705  11.474  0.00  0.00    +0.000 C 
BRANCH  14  15
ATOM     15  O   UNL     1      10.143  47.766  10.756  0.00  0.00    +0.000 OA
ATOM     16  C   UNL     1       9.950  48.983  11.430  0.00  0.00    +0.000 C 
ENDBRANCH  14  15
ENDBRANCH  12  14
ENDBRANCH   1  11
TORSDOF 5
ENDMDL
MODEL 7
REMARK VINA RESULT:      -5.4      1.686      6.058
REMARK  Name = 5357283_Methylferulate.pdbqt.pdb
REMARK  5 active torsions:
REMARK  status: ('A' for Active; 'I' for Inactive)
REMARK    1  A    between atoms: C_1  and  C_11
REMARK    2  A    between atoms: C_2  and  O_7
REMARK    3  A    between atoms: C_5  and  O_9
REMARK    4  A    between atoms: C_12  and  C_14
REMARK    5  A    between atoms: C_14  and  O_15
REMARK                            x       y       z     vdW  Elec       q    Type
REMARK                         _______ _______ _______ _____ _____    ______ ____
ROOT
ATOM      1  C   UNL     1       4.687  29.495  15.405  0.00  0.00    +0.000 A 
ATOM      2  C   UNL     1       2.371  29.989  15.931  0.00  0.00    +0.000 A 
ATOM      3  C   UNL     1       3.731  30.302  16.021  0.00  0.00    +0.000 A 
ATOM      4  C   UNL     1       4.292  28.366  14.691  0.00  0.00    +0.000 A 
ATOM      5  C   UNL     1       1.991  28.853  15.212  0.00  0.00    +0.000 A 
ATOM      6  C   UNL     1       2.942  28.043  14.593  0.00  0.00    +0.000 A 
ENDROOT
BRANCH   2   7
ATOM      7  O   UNL     1       1.367  30.729  16.508  0.00  0.00    +0.000 OA
ATOM      8  C   UNL     1       1.657  32.088  16.702  0.00  0.00    +0.000 C 
ENDBRANCH   2   7
BRANCH   5   9
ATOM      9  O   UNL     1       0.664  28.531  15.111  0.00  0.00    +0.000 OA
ATOM     10  H   UNL     1       0.143  29.354  15.098  0.00  0.00    +0.000 HD
ENDBRANCH   5   9
BRANCH   1  11
ATOM     11  C   UNL     1       6.069  29.829  15.508  0.00  0.00    +0.000 C 
ATOM     12  C   UNL     1       7.235  30.109  15.594  0.00  0.00    +0.000 C 
BRANCH  12  14
ATOM     13  O   UNL     1       9.421  29.627  16.167  0.00  0.00    +0.000 OA
ATOM     14  C   UNL     1       8.637  30.441  15.697  0.00  0.00    +0.000 C 
BRANCH  14  15
ATOM     15  O   UNL     1       8.883  31.698  15.222  0.00  0.00    +0.000 OA
ATOM     16  C   UNL     1      10.199  32.011  14.841  0.00  0.00    +0.000 C 
ENDBRANCH  14  15
ENDBRANCH  12  14
ENDBRANCH   1  11
TORSDOF 5
ENDMDL
MODEL 8
REMARK VINA RESULT:      -5.3      3.006      7.021
REMARK  Name = 5357283_Methylferulate.pdbqt.pdb
REMARK  5 active torsions:
REMARK  status: ('A' for Active; 'I' for Inactive)
REMARK    1  A    between atoms: C_1  and  C_11
REMARK    2  A    between atoms: C_2  and  O_7
REMARK    3  A    between atoms: C_5  and  O_9
REMARK    4  A    between atoms: C_12  and  C_14
REMARK    5  A    between atoms: C_14  and  O_15
REMARK                            x       y       z     vdW  Elec       q    Type
REMARK                         _______ _______ _______ _____ _____    ______ ____
ROOT
ATOM      1  C   UNL     1       3.704  33.555  15.389  0.00  0.00    +0.000 A 
ATOM      2  C   UNL     1       1.369  33.062  15.822  0.00  0.00    +0.000 A 
ATOM      3  C   UNL     1       2.718  32.959  16.174  0.00  0.00    +0.000 A 
ATOM      4  C   UNL     1       3.351  34.262  14.242  0.00  0.00    +0.000 A 
ATOM      5  C   UNL     1       1.030  33.775  14.669  0.00  0.00    +0.000 A 
ATOM      6  C   UNL     1       2.012  34.373  13.880  0.00  0.00    +0.000 A 
ENDROOT
BRANCH   2   7
ATOM      7  O   UNL     1       0.337  32.506  16.539  0.00  0.00    +0.000 OA
ATOM      8  C   UNL     1       0.370  31.107  16.654  0.00  0.00    +0.000 C 
ENDBRANCH   2   7
BRANCH   5   9
ATOM      9  O   UNL     1      -0.285  33.888  14.308  0.00  0.00    +0.000 OA
ATOM     10  H   UNL     1      -0.371  33.660  13.364  0.00  0.00    +0.000 HD
ENDBRANCH   5   9
BRANCH   1  11
ATOM     11  C   UNL     1       5.075  33.439  15.763  0.00  0.00    +0.000 C 
ATOM     12  C   UNL     1       6.231  33.342  16.080  0.00  0.00    +0.000 C 
BRANCH  12  14
ATOM     13  O   UNL     1       8.211  34.207  16.900  0.00  0.00    +0.000 OA
ATOM     14  C   UNL     1       7.620  33.230  16.458  0.00  0.00    +0.000 C 
BRANCH  14  15
ATOM     15  O   UNL     1       8.088  31.964  16.250  0.00  0.00    +0.000 OA
ATOM     16  C   UNL     1       8.033  31.449  14.943  0.00  0.00    +0.000 C 
ENDBRANCH  14  15
ENDBRANCH  12  14
ENDBRANCH   1  11
TORSDOF 5
ENDMDL
MODEL 9
REMARK VINA RESULT:      -5.3      2.272      6.944
REMARK  Name = 5357283_Methylferulate.pdbqt.pdb
REMARK  5 active torsions:
REMARK  status: ('A' for Active; 'I' for Inactive)
REMARK    1  A    between atoms: C_1  and  C_11
REMARK    2  A    between atoms: C_2  and  O_7
REMARK    3  A    between atoms: C_5  and  O_9
REMARK    4  A    between atoms: C_12  and  C_14
REMARK    5  A    between atoms: C_14  and  O_15
REMARK                            x       y       z     vdW  Elec       q    Type
REMARK                         _______ _______ _______ _____ _____    ______ ____
ROOT
ATOM      1  C   UNL     1       5.617  29.535  15.632  0.00  0.00    +0.000 A 
ATOM      2  C   UNL     1       3.201  29.443  15.831  0.00  0.00    +0.000 A 
ATOM      3  C   UNL     1       4.419  28.829  15.522  0.00  0.00    +0.000 A 
ATOM      4  C   UNL     1       5.610  30.863  16.052  0.00  0.00    +0.000 A 
ATOM      5  C   UNL     1       3.210  30.775  16.252  0.00  0.00    +0.000 A 
ATOM      6  C   UNL     1       4.405  31.485  16.363  0.00  0.00    +0.000 A 
ENDROOT
BRANCH   2   7
ATOM      7  O   UNL     1       1.979  28.821  15.751  0.00  0.00    +0.000 OA
ATOM      8  C   UNL     1       1.628  28.347  14.477  0.00  0.00    +0.000 C 
ENDBRANCH   2   7
BRANCH   5   9
ATOM      9  O   UNL     1       2.028  31.394  16.560  0.00  0.00    +0.000 OA
ATOM     10  H   UNL     1       2.222  32.285  16.904  0.00  0.00    +0.000 HD
ENDBRANCH   5   9
BRANCH   1  11
ATOM     11  C   UNL     1       6.849  28.893  15.311  0.00  0.00    +0.000 C 
ATOM     12  C   UNL     1       7.888  28.351  15.042  0.00  0.00    +0.000 C 
BRANCH  12  14
ATOM     13  O   UNL     1       9.148  26.512  14.435  0.00  0.00    +0.000 OA
ATOM     14  C   UNL     1       9.138  27.701  14.723  0.00  0.00    +0.000 C 
BRANCH  14  15
ATOM     15  O   UNL     1      10.183  28.576  14.800  0.00  0.00    +0.000 OA
ATOM     16  C   UNL     1      11.387  28.116  15.361  0.00  0.00    +0.000 C 
ENDBRANCH  14  15
ENDBRANCH  12  14
ENDBRANCH   1  11
TORSDOF 5
ENDMDL
