MODEL 1
REMARK VINA RESULT:      -7.5      0.000      0.000
REMARK  Name = 5358691_Yuanhuacine.pdbqt.pdb
REMARK  12 active torsions:
REMARK  status: ('A' for Active; 'I' for Inactive)
REMARK    1  A    between atoms: C_9  and  C_48
REMARK    2  A    between atoms: C_13  and  C_23
REMARK    3  A    between atoms: C_14  and  O_26
REMARK    4  A    between atoms: C_15  and  O_28
REMARK    5  A    between atoms: C_16  and  O_39
REMARK    6  A    between atoms: C_17  and  C_30
REMARK    7  A    between atoms: C_31  and  C_32
REMARK    8  A    between atoms: C_33  and  C_34
REMARK    9  A    between atoms: C_35  and  C_36
REMARK   10  A    between atoms: O_39  and  C_41
REMARK   11  A    between atoms: C_41  and  C_42
REMARK   12  A    between atoms: C_48  and  O_49
REMARK                            x       y       z     vdW  Elec       q    Type
REMARK                         _______ _______ _______ _____ _____    ______ ____
ROOT
ATOM      1  O   UNL     1      -1.011  43.512  15.687  0.00  0.00    +0.000 OA
ATOM      2  O   UNL     1      -3.023  40.816  16.658  0.00  0.00    +0.000 OA
ATOM      3  O   UNL     1      -2.738  40.977  14.307  0.00  0.00    +0.000 OA
ATOM      4  O   UNL     1      -4.642  39.998  15.128  0.00  0.00    +0.000 OA
ATOM      5  O   UNL     1      -2.501  45.416  20.299  0.00  0.00    +0.000 OA
ATOM      6  C   UNL     1      -3.258  42.894  15.418  0.00  0.00    +0.000 C 
ATOM      7  C   UNL     1      -3.532  42.183  16.751  0.00  0.00    +0.000 C 
ATOM      8  C   UNL     1      -2.230  43.865  15.167  0.00  0.00    +0.000 C 
ATOM      9  C   UNL     1      -1.488  44.833  15.976  0.00  0.00    +0.000 C 
ATOM     10  C   UNL     1      -3.710  41.974  14.366  0.00  0.00    +0.000 C 
ATOM     11  C   UNL     1      -2.825  42.839  17.897  0.00  0.00    +0.000 C 
ATOM     12  C   UNL     1      -5.073  42.123  16.975  0.00  0.00    +0.000 C 
ATOM     13  C   UNL     1      -5.075  41.281  14.593  0.00  0.00    +0.000 C 
ATOM     14  C   UNL     1      -2.923  44.330  18.130  0.00  0.00    +0.000 C 
ATOM     15  C   UNL     1      -1.971  45.180  17.340  0.00  0.00    +0.000 C 
ATOM     16  C   UNL     1      -5.831  41.902  15.754  0.00  0.00    +0.000 C 
ATOM     17  C   UNL     1      -3.250  40.176  15.379  0.00  0.00    +0.000 C 
ATOM     18  C   UNL     1      -2.402  42.222  19.103  0.00  0.00    +0.000 C 
ATOM     19  C   UNL     1      -5.786  42.041  18.325  0.00  0.00    +0.000 C 
ATOM     20  C   UNL     1      -2.550  44.375  19.649  0.00  0.00    +0.000 C 
ATOM     21  C   UNL     1      -2.255  42.986  20.133  0.00  0.00    +0.000 C 
ATOM     22  C   UNL     1      -1.435  42.624  21.327  0.00  0.00    +0.000 C 
ENDROOT
BRANCH  13  23
ATOM     23  C   UNL     1      -5.830  41.153  13.249  0.00  0.00    +0.000 C 
ATOM     24  C   UNL     1      -7.066  40.279  13.040  0.00  0.00    +0.000 C 
ATOM     25  C   UNL     1      -5.323  41.563  12.068  0.00  0.00    +0.000 C 
ENDBRANCH  13  23
BRANCH  14  26
ATOM     26  O   UNL     1      -4.231  44.800  17.886  0.00  0.00    +0.000 OA
ATOM     27  H   UNL     1      -4.806  44.016  17.781  0.00  0.00    +0.000 HD
ENDBRANCH  14  26
BRANCH  15  28
ATOM     28  O   UNL     1      -1.682  46.447  17.854  0.00  0.00    +0.000 OA
ATOM     29  H   UNL     1      -1.051  46.976  17.320  0.00  0.00    +0.000 HD
ENDBRANCH  15  28
BRANCH  17  30
ATOM     30  C   UNL     1      -2.588  38.875  15.381  0.00  0.00    +0.000 C 
ATOM     31  C   UNL     1      -2.042  37.806  15.381  0.00  0.00    +0.000 C 
BRANCH  31  32
ATOM     32  C   UNL     1      -1.345  36.443  15.383  0.00  0.00    +0.000 C 
ATOM     33  C   UNL     1      -0.797  35.375  15.384  0.00  0.00    +0.000 C 
BRANCH  33  34
ATOM     34  C   UNL     1      -0.096  34.013  15.385  0.00  0.00    +0.000 C 
ATOM     35  C   UNL     1       0.603  32.651  15.384  0.00  0.00    +0.000 C 
BRANCH  35  36
ATOM     36  C   UNL     1       1.304  31.288  15.383  0.00  0.00    +0.000 C 
ATOM     37  C   UNL     1       2.002  29.925  15.382  0.00  0.00    +0.000 C 
ATOM     38  C   UNL     1       2.700  28.561  15.380  0.00  0.00    +0.000 C 
ENDBRANCH  35  36
ENDBRANCH  33  34
ENDBRANCH  31  32
ENDBRANCH  17  30
BRANCH  16  39
ATOM     39  O   UNL     1      -7.197  42.231  15.755  0.00  0.00    +0.000 OA
BRANCH  39  41
ATOM     40  O   UNL     1      -7.772  44.267  16.654  0.00  0.00    +0.000 OA
ATOM     41  C   UNL     1      -7.451  43.572  15.704  0.00  0.00    +0.000 C 
BRANCH  41  42
ATOM     42  C   UNL     1      -7.327  44.065  14.321  0.00  0.00    +0.000 A 
ATOM     43  C   UNL     1      -6.226  44.815  13.909  0.00  0.00    +0.000 A 
ATOM     44  C   UNL     1      -8.345  43.760  13.418  0.00  0.00    +0.000 A 
ATOM     45  C   UNL     1      -6.144  45.261  12.592  0.00  0.00    +0.000 A 
ATOM     46  C   UNL     1      -8.260  44.206  12.102  0.00  0.00    +0.000 A 
ATOM     47  C   UNL     1      -7.161  44.957  11.690  0.00  0.00    +0.000 A 
ENDBRANCH  41  42
ENDBRANCH  39  41
ENDBRANCH  16  39
BRANCH   9  48
ATOM     48  C   UNL     1      -0.665  45.814  15.282  0.00  0.00    +0.000 C 
BRANCH  48  49
ATOM     49  O   UNL     1       0.092  46.710  14.654  0.00  0.00    +0.000 OA
ATOM     50  H   UNL     1      -0.261  47.607  14.788  0.00  0.00    +0.000 HD
ENDBRANCH  48  49
ENDBRANCH   9  48
TORSDOF 12
ENDMDL
MODEL 2
REMARK VINA RESULT:      -6.5     12.468     17.685
REMARK  Name = 5358691_Yuanhuacine.pdbqt.pdb
REMARK  12 active torsions:
REMARK  status: ('A' for Active; 'I' for Inactive)
REMARK    1  A    between atoms: C_9  and  C_48
REMARK    2  A    between atoms: C_13  and  C_23
REMARK    3  A    between atoms: C_14  and  O_26
REMARK    4  A    between atoms: C_15  and  O_28
REMARK    5  A    between atoms: C_16  and  O_39
REMARK    6  A    between atoms: C_17  and  C_30
REMARK    7  A    between atoms: C_31  and  C_32
REMARK    8  A    between atoms: C_33  and  C_34
REMARK    9  A    between atoms: C_35  and  C_36
REMARK   10  A    between atoms: O_39  and  C_41
REMARK   11  A    between atoms: C_41  and  C_42
REMARK   12  A    between atoms: C_48  and  O_49
REMARK                            x       y       z     vdW  Elec       q    Type
REMARK                         _______ _______ _______ _____ _____    ______ ____
ROOT
ATOM      1  O   UNL     1      12.258  36.711  17.517  0.00  0.00    +0.000 OA
ATOM      2  O   UNL     1       9.466  35.194  18.989  0.00  0.00    +0.000 OA
ATOM      3  O   UNL     1      11.530  34.331  19.780  0.00  0.00    +0.000 OA
ATOM      4  O   UNL     1       9.679  32.979  19.812  0.00  0.00    +0.000 OA
ATOM      5  O   UNL     1       8.844  37.774  13.731  0.00  0.00    +0.000 OA
ATOM      6  C   UNL     1      11.306  34.567  17.528  0.00  0.00    +0.000 C 
ATOM      7  C   UNL     1       9.810  34.908  17.598  0.00  0.00    +0.000 C 
ATOM      8  C   UNL     1      12.351  35.425  17.048  0.00  0.00    +0.000 C 
ATOM      9  C   UNL     1      12.437  36.541  16.105  0.00  0.00    +0.000 C 
ATOM     10  C   UNL     1      11.551  33.593  18.598  0.00  0.00    +0.000 C 
ATOM     11  C   UNL     1       9.470  36.129  16.799  0.00  0.00    +0.000 C 
ATOM     12  C   UNL     1       8.995  33.663  17.134  0.00  0.00    +0.000 C 
ATOM     13  C   UNL     1      10.516  32.451  18.746  0.00  0.00    +0.000 C 
ATOM     14  C   UNL     1       9.921  36.278  15.363  0.00  0.00    +0.000 C 
ATOM     15  C   UNL     1      11.313  36.801  15.164  0.00  0.00    +0.000 C 
ATOM     16  C   UNL     1       9.571  32.397  17.559  0.00  0.00    +0.000 C 
ATOM     17  C   UNL     1      10.109  34.331  19.958  0.00  0.00    +0.000 C 
ATOM     18  C   UNL     1       8.394  37.024  17.028  0.00  0.00    +0.000 C 
ATOM     19  C   UNL     1       7.597  33.679  16.514  0.00  0.00    +0.000 C 
ATOM     20  C   UNL     1       8.874  37.335  14.877  0.00  0.00    +0.000 C 
ATOM     21  C   UNL     1       7.975  37.709  16.018  0.00  0.00    +0.000 C 
ATOM     22  C   UNL     1       7.181  38.968  16.138  0.00  0.00    +0.000 C 
ENDROOT
BRANCH  13  23
ATOM     23  C   UNL     1      11.234  31.137  19.134  0.00  0.00    +0.000 C 
ATOM     24  C   UNL     1      12.544  30.659  18.509  0.00  0.00    +0.000 C 
ATOM     25  C   UNL     1      10.649  30.150  19.843  0.00  0.00    +0.000 C 
ENDBRANCH  13  23
BRANCH  14  26
ATOM     26  O   UNL     1       9.811  35.056  14.665  0.00  0.00    +0.000 OA
ATOM     27  H   UNL     1      10.056  34.343  15.287  0.00  0.00    +0.000 HD
ENDBRANCH  14  26
BRANCH  15  28
ATOM     28  O   UNL     1      11.590  37.405  13.935  0.00  0.00    +0.000 OA
ATOM     29  H   UNL     1      12.442  37.889  13.894  0.00  0.00    +0.000 HD
ENDBRANCH  15  28
BRANCH  17  30
ATOM     30  C   UNL     1       9.780  34.802  21.299  0.00  0.00    +0.000 C 
ATOM     31  C   UNL     1       9.510  35.192  22.402  0.00  0.00    +0.000 C 
BRANCH  31  32
ATOM     32  C   UNL     1       9.166  35.691  23.808  0.00  0.00    +0.000 C 
ATOM     33  C   UNL     1       8.895  36.081  24.910  0.00  0.00    +0.000 C 
BRANCH  33  34
ATOM     34  C   UNL     1       8.547  36.578  26.317  0.00  0.00    +0.000 C 
ATOM     35  C   UNL     1       8.199  37.073  27.723  0.00  0.00    +0.000 C 
BRANCH  35  36
ATOM     36  C   UNL     1       7.852  37.569  29.131  0.00  0.00    +0.000 C 
ATOM     37  C   UNL     1       7.507  38.064  30.538  0.00  0.00    +0.000 C 
ATOM     38  C   UNL     1       7.162  38.560  31.946  0.00  0.00    +0.000 C 
ENDBRANCH  35  36
ENDBRANCH  33  34
ENDBRANCH  31  32
ENDBRANCH  17  30
BRANCH  16  39
ATOM     39  O   UNL     1       9.179  31.231  16.879  0.00  0.00    +0.000 OA
BRANCH  39  41
ATOM     40  O   UNL     1      10.835  31.607  15.331  0.00  0.00    +0.000 OA
ATOM     41  C   UNL     1       9.998  30.883  15.843  0.00  0.00    +0.000 C 
BRANCH  41  42
ATOM     42  C   UNL     1       9.699  29.512  15.392  0.00  0.00    +0.000 A 
ATOM     43  C   UNL     1      10.710  28.635  15.003  0.00  0.00    +0.000 A 
ATOM     44  C   UNL     1       8.366  29.103  15.364  0.00  0.00    +0.000 A 
ATOM     45  C   UNL     1      10.387  27.346  14.584  0.00  0.00    +0.000 A 
ATOM     46  C   UNL     1       8.046  27.814  14.946  0.00  0.00    +0.000 A 
ATOM     47  C   UNL     1       9.056  26.937  14.556  0.00  0.00    +0.000 A 
ENDBRANCH  41  42
ENDBRANCH  39  41
ENDBRANCH  16  39
BRANCH   9  48
ATOM     48  C   UNL     1      13.761  37.010  15.718  0.00  0.00    +0.000 C 
BRANCH  48  49
ATOM     49  O   UNL     1      14.968  37.438  15.360  0.00  0.00    +0.000 OA
ATOM     50  H   UNL     1      14.922  38.357  15.041  0.00  0.00    +0.000 HD
ENDBRANCH  48  49
ENDBRANCH   9  48
TORSDOF 12
ENDMDL
MODEL 3
REMARK VINA RESULT:      -6.5      7.035     13.295
REMARK  Name = 5358691_Yuanhuacine.pdbqt.pdb
REMARK  12 active torsions:
REMARK  status: ('A' for Active; 'I' for Inactive)
REMARK    1  A    between atoms: C_9  and  C_48
REMARK    2  A    between atoms: C_13  and  C_23
REMARK    3  A    between atoms: C_14  and  O_26
REMARK    4  A    between atoms: C_15  and  O_28
REMARK    5  A    between atoms: C_16  and  O_39
REMARK    6  A    between atoms: C_17  and  C_30
REMARK    7  A    between atoms: C_31  and  C_32
REMARK    8  A    between atoms: C_33  and  C_34
REMARK    9  A    between atoms: C_35  and  C_36
REMARK   10  A    between atoms: O_39  and  C_41
REMARK   11  A    between atoms: C_41  and  C_42
REMARK   12  A    between atoms: C_48  and  O_49
REMARK                            x       y       z     vdW  Elec       q    Type
REMARK                         _______ _______ _______ _____ _____    ______ ____
ROOT
ATOM      1  O   UNL     1      -8.593  42.356  10.751  0.00  0.00    +0.000 OA
ATOM      2  O   UNL     1     -11.692  43.535  11.879  0.00  0.00    +0.000 OA
ATOM      3  O   UNL     1      -9.850  44.764  12.736  0.00  0.00    +0.000 OA
ATOM      4  O   UNL     1     -11.786  44.669  13.961  0.00  0.00    +0.000 OA
ATOM      5  O   UNL     1     -11.282  37.951  10.051  0.00  0.00    +0.000 OA
ATOM      6  C   UNL     1      -9.703  42.494  12.813  0.00  0.00    +0.000 C 
ATOM      7  C   UNL     1     -11.160  42.270  12.382  0.00  0.00    +0.000 C 
ATOM      8  C   UNL     1      -8.531  42.083  12.094  0.00  0.00    +0.000 C 
ATOM      9  C   UNL     1      -8.211  41.027  11.132  0.00  0.00    +0.000 C 
ATOM     10  C   UNL     1      -9.705  43.710  13.636  0.00  0.00    +0.000 C 
ATOM     11  C   UNL     1     -11.273  41.272  11.271  0.00  0.00    +0.000 C 
ATOM     12  C   UNL     1     -11.989  41.847  13.632  0.00  0.00    +0.000 C 
ATOM     13  C   UNL     1     -10.837  43.835  14.684  0.00  0.00    +0.000 C 
ATOM     14  C   UNL     1     -10.595  39.923  11.356  0.00  0.00    +0.000 C 
ATOM     15  C   UNL     1      -9.151  39.889  10.947  0.00  0.00    +0.000 C 
ATOM     16  C   UNL     1     -11.588  42.525  14.854  0.00  0.00    +0.000 C 
ATOM     17  C   UNL     1     -11.277  44.703  12.630  0.00  0.00    +0.000 C 
ATOM     18  C   UNL     1     -12.297  41.199  10.292  0.00  0.00    +0.000 C 
ATOM     19  C   UNL     1     -13.268  41.009  13.626  0.00  0.00    +0.000 C 
ATOM     20  C   UNL     1     -11.466  39.135  10.322  0.00  0.00    +0.000 C 
ATOM     21  C   UNL     1     -12.499  40.051   9.737  0.00  0.00    +0.000 C 
ATOM     22  C   UNL     1     -13.200  39.871   8.431  0.00  0.00    +0.000 C 
ENDROOT
BRANCH  13  23
ATOM     23  C   UNL     1     -10.295  44.506  15.968  0.00  0.00    +0.000 C 
ATOM     24  C   UNL     1     -11.152  45.320  16.937  0.00  0.00    +0.000 C 
ATOM     25  C   UNL     1      -8.982  44.688  16.216  0.00  0.00    +0.000 C 
ENDBRANCH  13  23
BRANCH  14  26
ATOM     26  O   UNL     1     -10.691  39.384  12.657  0.00  0.00    +0.000 OA
ATOM     27  H   UNL     1      -9.817  39.494  13.082  0.00  0.00    +0.000 HD
ENDBRANCH  14  26
BRANCH  15  28
ATOM     28  O   UNL     1      -8.640  38.653  10.543  0.00  0.00    +0.000 OA
ATOM     29  H   UNL     1      -8.032  38.688   9.773  0.00  0.00    +0.000 HD
ENDBRANCH  15  28
BRANCH  17  30
ATOM     30  C   UNL     1     -11.773  45.897  11.952  0.00  0.00    +0.000 C 
ATOM     31  C   UNL     1     -12.179  46.878  11.393  0.00  0.00    +0.000 C 
BRANCH  31  32
ATOM     32  C   UNL     1     -12.698  48.129  10.679  0.00  0.00    +0.000 C 
ATOM     33  C   UNL     1     -13.105  49.109  10.118  0.00  0.00    +0.000 C 
BRANCH  33  34
ATOM     34  C   UNL     1     -13.622  50.360   9.400  0.00  0.00    +0.000 C 
ATOM     35  C   UNL     1     -14.139  51.609   8.683  0.00  0.00    +0.000 C 
BRANCH  35  36
ATOM     36  C   UNL     1     -14.658  52.859   7.964  0.00  0.00    +0.000 C 
ATOM     37  C   UNL     1     -15.177  54.109   7.247  0.00  0.00    +0.000 C 
ATOM     38  C   UNL     1     -15.695  55.360   6.530  0.00  0.00    +0.000 C 
ENDBRANCH  35  36
ENDBRANCH  33  34
ENDBRANCH  31  32
ENDBRANCH  17  30
BRANCH  16  39
ATOM     39  O   UNL     1     -11.961  41.952  16.081  0.00  0.00    +0.000 OA
BRANCH  39  41
ATOM     40  O   UNL     1     -11.508  39.699  16.105  0.00  0.00    +0.000 OA
ATOM     41  C   UNL     1     -11.239  40.844  16.425  0.00  0.00    +0.000 C 
BRANCH  41  42
ATOM     42  C   UNL     1     -10.102  41.221  17.284  0.00  0.00    +0.000 A 
ATOM     43  C   UNL     1     -10.281  41.977  18.442  0.00  0.00    +0.000 A 
ATOM     44  C   UNL     1      -8.826  40.798  16.913  0.00  0.00    +0.000 A 
ATOM     45  C   UNL     1      -9.181  42.311  19.229  0.00  0.00    +0.000 A 
ATOM     46  C   UNL     1      -7.729  41.133  17.701  0.00  0.00    +0.000 A 
ATOM     47  C   UNL     1      -7.906  41.889  18.858  0.00  0.00    +0.000 A 
ENDBRANCH  41  42
ENDBRANCH  39  41
ENDBRANCH  16  39
BRANCH   9  48
ATOM     48  C   UNL     1      -6.811  40.806  10.800  0.00  0.00    +0.000 C 
BRANCH  48  49
ATOM     49  O   UNL     1      -5.530  40.609  10.500  0.00  0.00    +0.000 OA
ATOM     50  H   UNL     1      -4.959  40.922  11.223  0.00  0.00    +0.000 HD
ENDBRANCH  48  49
ENDBRANCH   9  48
TORSDOF 12
ENDMDL
MODEL 4
REMARK VINA RESULT:      -6.3      3.590      7.889
REMARK  Name = 5358691_Yuanhuacine.pdbqt.pdb
REMARK  12 active torsions:
REMARK  status: ('A' for Active; 'I' for Inactive)
REMARK    1  A    between atoms: C_9  and  C_48
REMARK    2  A    between atoms: C_13  and  C_23
REMARK    3  A    between atoms: C_14  and  O_26
REMARK    4  A    between atoms: C_15  and  O_28
REMARK    5  A    between atoms: C_16  and  O_39
REMARK    6  A    between atoms: C_17  and  C_30
REMARK    7  A    between atoms: C_31  and  C_32
REMARK    8  A    between atoms: C_33  and  C_34
REMARK    9  A    between atoms: C_35  and  C_36
REMARK   10  A    between atoms: O_39  and  C_41
REMARK   11  A    between atoms: C_41  and  C_42
REMARK   12  A    between atoms: C_48  and  O_49
REMARK                            x       y       z     vdW  Elec       q    Type
REMARK                         _______ _______ _______ _____ _____    ______ ____
ROOT
ATOM      1  O   UNL     1      -2.271  44.535  14.860  0.00  0.00    +0.000 OA
ATOM      2  O   UNL     1      -4.703  42.378  16.161  0.00  0.00    +0.000 OA
ATOM      3  O   UNL     1      -5.536  44.545  15.668  0.00  0.00    +0.000 OA
ATOM      4  O   UNL     1      -6.552  43.315  17.315  0.00  0.00    +0.000 OA
ATOM      5  O   UNL     1       0.966  41.280  17.318  0.00  0.00    +0.000 OA
ATOM      6  C   UNL     1      -3.571  44.429  16.810  0.00  0.00    +0.000 C 
ATOM      7  C   UNL     1      -3.655  42.911  17.028  0.00  0.00    +0.000 C 
ATOM      8  C   UNL     1      -2.562  45.126  16.063  0.00  0.00    +0.000 C 
ATOM      9  C   UNL     1      -1.165  44.874  15.707  0.00  0.00    +0.000 C 
ATOM     10  C   UNL     1      -4.951  44.927  16.874  0.00  0.00    +0.000 C 
ATOM     11  C   UNL     1      -2.381  42.215  16.659  0.00  0.00    +0.000 C 
ATOM     12  C   UNL     1      -4.056  42.644  18.510  0.00  0.00    +0.000 C 
ATOM     13  C   UNL     1      -5.835  44.369  18.017  0.00  0.00    +0.000 C 
ATOM     14  C   UNL     1      -1.045  42.693  17.183  0.00  0.00    +0.000 C 
ATOM     15  C   UNL     1      -0.402  43.811  16.416  0.00  0.00    +0.000 C 
ATOM     16  C   UNL     1      -5.011  43.605  19.038  0.00  0.00    +0.000 C 
ATOM     17  C   UNL     1      -5.883  43.212  16.060  0.00  0.00    +0.000 C 
ATOM     18  C   UNL     1      -2.239  40.873  16.223  0.00  0.00    +0.000 C 
ATOM     19  C   UNL     1      -3.730  41.390  19.321  0.00  0.00    +0.000 C 
ATOM     20  C   UNL     1      -0.219  41.376  17.009  0.00  0.00    +0.000 C 
ATOM     21  C   UNL     1      -1.090  40.315  16.405  0.00  0.00    +0.000 C 
ATOM     22  C   UNL     1      -0.622  39.111  15.656  0.00  0.00    +0.000 C 
ENDROOT
BRANCH  13  23
ATOM     23  C   UNL     1      -6.765  45.482  18.553  0.00  0.00    +0.000 C 
ATOM     24  C   UNL     1      -6.280  46.700  19.338  0.00  0.00    +0.000 C 
ATOM     25  C   UNL     1      -8.105  45.357  18.636  0.00  0.00    +0.000 C 
ENDBRANCH  13  23
BRANCH  14  26
ATOM     26  O   UNL     1      -1.140  43.091  18.534  0.00  0.00    +0.000 OA
ATOM     27  H   UNL     1      -1.950  43.632  18.621  0.00  0.00    +0.000 HD
ENDBRANCH  14  26
BRANCH  15  28
ATOM     28  O   UNL     1       0.983  43.946  16.541  0.00  0.00    +0.000 OA
ATOM     29  H   UNL     1       1.506  43.519  15.829  0.00  0.00    +0.000 HD
ENDBRANCH  15  28
BRANCH  17  30
ATOM     30  C   UNL     1      -6.788  42.629  15.075  0.00  0.00    +0.000 C 
ATOM     31  C   UNL     1      -7.533  42.148  14.266  0.00  0.00    +0.000 C 
BRANCH  31  32
ATOM     32  C   UNL     1      -8.485  41.535  13.235  0.00  0.00    +0.000 C 
ATOM     33  C   UNL     1      -9.230  41.054  12.426  0.00  0.00    +0.000 C 
BRANCH  33  34
ATOM     34  C   UNL     1     -10.182  40.443  11.393  0.00  0.00    +0.000 C 
ATOM     35  C   UNL     1     -11.134  39.833  10.362  0.00  0.00    +0.000 C 
BRANCH  35  36
ATOM     36  C   UNL     1     -12.088  39.222   9.329  0.00  0.00    +0.000 C 
ATOM     37  C   UNL     1     -13.040  38.612   8.296  0.00  0.00    +0.000 C 
ATOM     38  C   UNL     1     -13.992  38.002   7.262  0.00  0.00    +0.000 C 
ENDBRANCH  35  36
ENDBRANCH  33  34
ENDBRANCH  31  32
ENDBRANCH  17  30
BRANCH  16  39
ATOM     39  O   UNL     1      -5.131  43.719  20.433  0.00  0.00    +0.000 OA
BRANCH  39  41
ATOM     40  O   UNL     1      -6.818  42.162  20.547  0.00  0.00    +0.000 OA
ATOM     41  C   UNL     1      -6.278  43.181  20.944  0.00  0.00    +0.000 C 
BRANCH  41  42
ATOM     42  C   UNL     1      -6.805  44.032  22.026  0.00  0.00    +0.000 A 
ATOM     43  C   UNL     1      -5.976  44.885  22.754  0.00  0.00    +0.000 A 
ATOM     44  C   UNL     1      -8.169  43.970  22.310  0.00  0.00    +0.000 A 
ATOM     45  C   UNL     1      -6.512  45.675  23.768  0.00  0.00    +0.000 A 
ATOM     46  C   UNL     1      -8.702  44.761  23.323  0.00  0.00    +0.000 A 
ATOM     47  C   UNL     1      -7.874  45.613  24.051  0.00  0.00    +0.000 A 
ENDBRANCH  41  42
ENDBRANCH  39  41
ENDBRANCH  16  39
BRANCH   9  48
ATOM     48  C   UNL     1      -0.405  45.963  15.108  0.00  0.00    +0.000 C 
BRANCH  48  49
ATOM     49  O   UNL     1       0.293  46.954  14.561  0.00  0.00    +0.000 OA
ATOM     50  H   UNL     1       0.190  46.949  13.593  0.00  0.00    +0.000 HD
ENDBRANCH  48  49
ENDBRANCH   9  48
TORSDOF 12
ENDMDL
MODEL 5
REMARK VINA RESULT:      -6.3     16.941     21.058
REMARK  Name = 5358691_Yuanhuacine.pdbqt.pdb
REMARK  12 active torsions:
REMARK  status: ('A' for Active; 'I' for Inactive)
REMARK    1  A    between atoms: C_9  and  C_48
REMARK    2  A    between atoms: C_13  and  C_23
REMARK    3  A    between atoms: C_14  and  O_26
REMARK    4  A    between atoms: C_15  and  O_28
REMARK    5  A    between atoms: C_16  and  O_39
REMARK    6  A    between atoms: C_17  and  C_30
REMARK    7  A    between atoms: C_31  and  C_32
REMARK    8  A    between atoms: C_33  and  C_34
REMARK    9  A    between atoms: C_35  and  C_36
REMARK   10  A    between atoms: O_39  and  C_41
REMARK   11  A    between atoms: C_41  and  C_42
REMARK   12  A    between atoms: C_48  and  O_49
REMARK                            x       y       z     vdW  Elec       q    Type
REMARK                         _______ _______ _______ _____ _____    ______ ____
ROOT
ATOM      1  O   UNL     1     -18.416  34.190  27.633  0.00  0.00    +0.000 OA
ATOM      2  O   UNL     1     -18.390  34.783  24.182  0.00  0.00    +0.000 OA
ATOM      3  O   UNL     1     -20.478  33.990  24.983  0.00  0.00    +0.000 OA
ATOM      4  O   UNL     1     -19.891  33.564  22.808  0.00  0.00    +0.000 OA
ATOM      5  O   UNL     1     -13.276  33.754  26.917  0.00  0.00    +0.000 OA
ATOM      6  C   UNL     1     -18.616  32.890  25.690  0.00  0.00    +0.000 C 
ATOM      7  C   UNL     1     -17.673  33.637  24.735  0.00  0.00    +0.000 C 
ATOM      8  C   UNL     1     -18.576  32.926  27.125  0.00  0.00    +0.000 C 
ATOM      9  C   UNL     1     -17.546  33.167  28.136  0.00  0.00    +0.000 C 
ATOM     10  C   UNL     1     -19.883  32.730  24.967  0.00  0.00    +0.000 C 
ATOM     11  C   UNL     1     -16.463  34.171  25.439  0.00  0.00    +0.000 C 
ATOM     12  C   UNL     1     -17.291  32.681  23.565  0.00  0.00    +0.000 C 
ATOM     13  C   UNL     1     -19.785  32.281  23.488  0.00  0.00    +0.000 C 
ATOM     14  C   UNL     1     -15.624  33.289  26.336  0.00  0.00    +0.000 C 
ATOM     15  C   UNL     1     -16.109  33.139  27.747  0.00  0.00    +0.000 C 
ATOM     16  C   UNL     1     -18.381  31.819  23.137  0.00  0.00    +0.000 C 
ATOM     17  C   UNL     1     -19.777  34.525  23.855  0.00  0.00    +0.000 C 
ATOM     18  C   UNL     1     -15.688  35.299  25.064  0.00  0.00    +0.000 C 
ATOM     19  C   UNL     1     -16.015  32.745  22.726  0.00  0.00    +0.000 C 
ATOM     20  C   UNL     1     -14.286  34.102  26.311  0.00  0.00    +0.000 C 
ATOM     21  C   UNL     1     -14.464  35.332  25.472  0.00  0.00    +0.000 C 
ATOM     22  C   UNL     1     -13.648  36.580  25.552  0.00  0.00    +0.000 C 
ENDROOT
BRANCH  13  23
ATOM     23  C   UNL     1     -20.948  31.319  23.152  0.00  0.00    +0.000 C 
ATOM     24  C   UNL     1     -22.223  31.738  22.422  0.00  0.00    +0.000 C 
ATOM     25  C   UNL     1     -21.088  30.098  23.707  0.00  0.00    +0.000 C 
ENDBRANCH  13  23
BRANCH  14  26
ATOM     26  O   UNL     1     -15.475  31.997  25.787  0.00  0.00    +0.000 OA
ATOM     27  H   UNL     1     -14.900  31.489  26.393  0.00  0.00    +0.000 HD
ENDBRANCH  14  26
BRANCH  15  28
ATOM     28  O   UNL     1     -15.161  32.771  28.705  0.00  0.00    +0.000 OA
ATOM     29  H   UNL     1     -14.237  33.021  28.490  0.00  0.00    +0.000 HD
ENDBRANCH  15  28
BRANCH  17  30
ATOM     30  C   UNL     1     -20.401  35.776  23.434  0.00  0.00    +0.000 C 
ATOM     31  C   UNL     1     -20.915  36.803  23.086  0.00  0.00    +0.000 C 
BRANCH  31  32
ATOM     32  C   UNL     1     -21.570  38.113  22.641  0.00  0.00    +0.000 C 
ATOM     33  C   UNL     1     -22.084  39.140  22.291  0.00  0.00    +0.000 C 
BRANCH  33  34
ATOM     34  C   UNL     1     -22.739  40.450  21.842  0.00  0.00    +0.000 C 
ATOM     35  C   UNL     1     -23.392  41.760  21.394  0.00  0.00    +0.000 C 
BRANCH  35  36
ATOM     36  C   UNL     1     -24.046  43.071  20.944  0.00  0.00    +0.000 C 
ATOM     37  C   UNL     1     -24.700  44.381  20.494  0.00  0.00    +0.000 C 
ATOM     38  C   UNL     1     -25.355  45.691  20.044  0.00  0.00    +0.000 C 
ENDBRANCH  35  36
ENDBRANCH  33  34
ENDBRANCH  31  32
ENDBRANCH  17  30
BRANCH  16  39
ATOM     39  O   UNL     1     -18.063  30.665  22.402  0.00  0.00    +0.000 OA
BRANCH  39  41
ATOM     40  O   UNL     1     -17.637  29.333  24.225  0.00  0.00    +0.000 OA
ATOM     41  C   UNL     1     -17.362  29.727  23.104  0.00  0.00    +0.000 C 
BRANCH  41  42
ATOM     42  C   UNL     1     -16.187  29.282  22.333  0.00  0.00    +0.000 A 
ATOM     43  C   UNL     1     -16.140  29.396  20.944  0.00  0.00    +0.000 A 
ATOM     44  C   UNL     1     -15.108  28.739  23.028  0.00  0.00    +0.000 A 
ATOM     45  C   UNL     1     -15.012  28.965  20.250  0.00  0.00    +0.000 A 
ATOM     46  C   UNL     1     -13.981  28.310  22.333  0.00  0.00    +0.000 A 
ATOM     47  C   UNL     1     -13.933  28.423  20.945  0.00  0.00    +0.000 A 
ENDBRANCH  41  42
ENDBRANCH  39  41
ENDBRANCH  16  39
BRANCH   9  48
ATOM     48  C   UNL     1     -17.874  32.886  29.527  0.00  0.00    +0.000 C 
BRANCH  48  49
ATOM     49  O   UNL     1     -18.174  32.635  30.798  0.00  0.00    +0.000 OA
ATOM     50  H   UNL     1     -17.433  32.882  31.378  0.00  0.00    +0.000 HD
ENDBRANCH  48  49
ENDBRANCH   9  48
TORSDOF 12
ENDMDL
MODEL 6
REMARK VINA RESULT:      -6.3     13.257     18.526
REMARK  Name = 5358691_Yuanhuacine.pdbqt.pdb
REMARK  12 active torsions:
REMARK  status: ('A' for Active; 'I' for Inactive)
REMARK    1  A    between atoms: C_9  and  C_48
REMARK    2  A    between atoms: C_13  and  C_23
REMARK    3  A    between atoms: C_14  and  O_26
REMARK    4  A    between atoms: C_15  and  O_28
REMARK    5  A    between atoms: C_16  and  O_39
REMARK    6  A    between atoms: C_17  and  C_30
REMARK    7  A    between atoms: C_31  and  C_32
REMARK    8  A    between atoms: C_33  and  C_34
REMARK    9  A    between atoms: C_35  and  C_36
REMARK   10  A    between atoms: O_39  and  C_41
REMARK   11  A    between atoms: C_41  and  C_42
REMARK   12  A    between atoms: C_48  and  O_49
REMARK                            x       y       z     vdW  Elec       q    Type
REMARK                         _______ _______ _______ _____ _____    ______ ____
ROOT
ATOM      1  O   UNL     1      11.572  32.205  20.234  0.00  0.00    +0.000 OA
ATOM      2  O   UNL     1      11.735  33.012  16.831  0.00  0.00    +0.000 OA
ATOM      3  O   UNL     1      10.957  34.800  18.184  0.00  0.00    +0.000 OA
ATOM      4  O   UNL     1      10.291  34.697  15.992  0.00  0.00    +0.000 OA
ATOM      5  O   UNL     1      11.273  27.348  18.379  0.00  0.00    +0.000 OA
ATOM      6  C   UNL     1      10.034  32.752  18.548  0.00  0.00    +0.000 C 
ATOM      7  C   UNL     1      10.698  32.108  17.322  0.00  0.00    +0.000 C 
ATOM      8  C   UNL     1      10.249  32.387  19.920  0.00  0.00    +0.000 C 
ATOM      9  C   UNL     1      10.658  31.172  20.627  0.00  0.00    +0.000 C 
ATOM     10  C   UNL     1       9.731  34.136  18.167  0.00  0.00    +0.000 C 
ATOM     11  C   UNL     1      11.366  30.810  17.657  0.00  0.00    +0.000 C 
ATOM     12  C   UNL     1       9.622  31.937  16.208  0.00  0.00    +0.000 C 
ATOM     13  C   UNL     1       9.108  34.347  16.765  0.00  0.00    +0.000 C 
ATOM     14  C   UNL     1      10.639  29.727  18.423  0.00  0.00    +0.000 C 
ATOM     15  C   UNL     1      10.644  29.865  19.917  0.00  0.00    +0.000 C 
ATOM     16  C   UNL     1       8.668  33.033  16.146  0.00  0.00    +0.000 C 
ATOM     17  C   UNL     1      11.378  34.415  16.870  0.00  0.00    +0.000 C 
ATOM     18  C   UNL     1      12.472  30.224  16.989  0.00  0.00    +0.000 C 
ATOM     19  C   UNL     1       9.637  30.895  15.089  0.00  0.00    +0.000 C 
ATOM     20  C   UNL     1      11.500  28.492  17.994  0.00  0.00    +0.000 C 
ATOM     21  C   UNL     1      12.608  28.944  17.090  0.00  0.00    +0.000 C 
ATOM     22  C   UNL     1      13.890  28.222  16.838  0.00  0.00    +0.000 C 
ENDROOT
BRANCH  13  23
ATOM     23  C   UNL     1       8.062  35.485  16.820  0.00  0.00    +0.000 C 
ATOM     24  C   UNL     1       7.634  36.316  15.611  0.00  0.00    +0.000 C 
ATOM     25  C   UNL     1       7.634  36.049  17.969  0.00  0.00    +0.000 C 
ENDBRANCH  13  23
BRANCH  14  26
ATOM     26  O   UNL     1       9.297  29.617  18.000  0.00  0.00    +0.000 OA
ATOM     27  H   UNL     1       9.116  28.667  17.852  0.00  0.00    +0.000 HD
ENDBRANCH  14  26
BRANCH  15  28
ATOM     28  O   UNL     1      10.438  28.699  20.658  0.00  0.00    +0.000 OA
ATOM     29  H   UNL     1      10.946  28.646  21.496  0.00  0.00    +0.000 HD
ENDBRANCH  15  28
BRANCH  17  30
ATOM     30  C   UNL     1      12.539  35.206  16.474  0.00  0.00    +0.000 C 
ATOM     31  C   UNL     1      13.495  35.855  16.148  0.00  0.00    +0.000 C 
BRANCH  31  32
ATOM     32  C   UNL     1      14.714  36.682  15.732  0.00  0.00    +0.000 C 
ATOM     33  C   UNL     1      15.670  37.331  15.406  0.00  0.00    +0.000 C 
BRANCH  33  34
ATOM     34  C   UNL     1      16.888  38.161  14.989  0.00  0.00    +0.000 C 
ATOM     35  C   UNL     1      18.106  38.991  14.574  0.00  0.00    +0.000 C 
BRANCH  35  36
ATOM     36  C   UNL     1      19.325  39.821  14.159  0.00  0.00    +0.000 C 
ATOM     37  C   UNL     1      20.545  40.649  13.745  0.00  0.00    +0.000 C 
ATOM     38  C   UNL     1      21.766  41.477  13.329  0.00  0.00    +0.000 C 
ENDBRANCH  35  36
ENDBRANCH  33  34
ENDBRANCH  31  32
ENDBRANCH  17  30
BRANCH  16  39
ATOM     39  O   UNL     1       7.446  32.810  15.488  0.00  0.00    +0.000 OA
BRANCH  39  41
ATOM     40  O   UNL     1       6.036  33.135  17.273  0.00  0.00    +0.000 OA
ATOM     41  C   UNL     1       6.413  32.479  16.317  0.00  0.00    +0.000 C 
BRANCH  41  42
ATOM     42  C   UNL     1       5.836  31.181  15.923  0.00  0.00    +0.000 A 
ATOM     43  C   UNL     1       6.485  30.336  15.023  0.00  0.00    +0.000 A 
ATOM     44  C   UNL     1       4.611  30.808  16.476  0.00  0.00    +0.000 A 
ATOM     45  C   UNL     1       5.908  29.117  14.676  0.00  0.00    +0.000 A 
ATOM     46  C   UNL     1       4.037  29.589  16.128  0.00  0.00    +0.000 A 
ATOM     47  C   UNL     1       4.685  28.744  15.229  0.00  0.00    +0.000 A 
ENDBRANCH  41  42
ENDBRANCH  39  41
ENDBRANCH  16  39
BRANCH   9  48
ATOM     48  C   UNL     1      10.536  31.152  22.079  0.00  0.00    +0.000 C 
BRANCH  48  49
ATOM     49  O   UNL     1      10.427  31.128  23.404  0.00  0.00    +0.000 OA
ATOM     50  H   UNL     1      11.221  31.508  23.818  0.00  0.00    +0.000 HD
ENDBRANCH  48  49
ENDBRANCH   9  48
TORSDOF 12
ENDMDL
MODEL 7
REMARK VINA RESULT:      -6.3     19.587     22.777
REMARK  Name = 5358691_Yuanhuacine.pdbqt.pdb
REMARK  12 active torsions:
REMARK  status: ('A' for Active; 'I' for Inactive)
REMARK    1  A    between atoms: C_9  and  C_48
REMARK    2  A    between atoms: C_13  and  C_23
REMARK    3  A    between atoms: C_14  and  O_26
REMARK    4  A    between atoms: C_15  and  O_28
REMARK    5  A    between atoms: C_16  and  O_39
REMARK    6  A    between atoms: C_17  and  C_30
REMARK    7  A    between atoms: C_31  and  C_32
REMARK    8  A    between atoms: C_33  and  C_34
REMARK    9  A    between atoms: C_35  and  C_36
REMARK   10  A    between atoms: O_39  and  C_41
REMARK   11  A    between atoms: C_41  and  C_42
REMARK   12  A    between atoms: C_48  and  O_49
REMARK                            x       y       z     vdW  Elec       q    Type
REMARK                         _______ _______ _______ _____ _____    ______ ____
ROOT
ATOM      1  O   UNL     1       1.215  24.024  32.520  0.00  0.00    +0.000 OA
ATOM      2  O   UNL     1       2.247  26.765  30.600  0.00  0.00    +0.000 OA
ATOM      3  O   UNL     1       3.162  26.755  32.790  0.00  0.00    +0.000 OA
ATOM      4  O   UNL     1       2.879  28.761  31.716  0.00  0.00    +0.000 OA
ATOM      5  O   UNL     1      -2.784  24.050  29.185  0.00  0.00    +0.000 OA
ATOM      6  C   UNL     1       0.930  26.352  32.601  0.00  0.00    +0.000 C 
ATOM      7  C   UNL     1       0.878  26.696  31.105  0.00  0.00    +0.000 C 
ATOM      8  C   UNL     1       0.640  25.075  33.190  0.00  0.00    +0.000 C 
ATOM      9  C   UNL     1      -0.182  23.919  32.827  0.00  0.00    +0.000 C 
ATOM     10  C   UNL     1       1.924  27.255  33.192  0.00  0.00    +0.000 C 
ATOM     11  C   UNL     1       0.165  25.647  30.307  0.00  0.00    +0.000 C 
ATOM     12  C   UNL     1       0.219  28.099  30.941  0.00  0.00    +0.000 C 
ATOM     13  C   UNL     1       1.859  28.739  32.754  0.00  0.00    +0.000 C 
ATOM     14  C   UNL     1      -1.197  25.137  30.721  0.00  0.00    +0.000 C 
ATOM     15  C   UNL     1      -1.203  24.048  31.753  0.00  0.00    +0.000 C 
ATOM     16  C   UNL     1       0.581  29.039  31.989  0.00  0.00    +0.000 C 
ATOM     17  C   UNL     1       3.192  27.386  31.505  0.00  0.00    +0.000 C 
ATOM     18  C   UNL     1       0.366  25.336  28.938  0.00  0.00    +0.000 C 
ATOM     19  C   UNL     1      -0.535  28.604  29.711  0.00  0.00    +0.000 C 
ATOM     20  C   UNL     1      -1.687  24.577  29.344  0.00  0.00    +0.000 C 
ATOM     21  C   UNL     1      -0.615  24.774  28.315  0.00  0.00    +0.000 C 
ATOM     22  C   UNL     1      -0.459  24.003  27.045  0.00  0.00    +0.000 C 
ENDROOT
BRANCH  13  23
ATOM     23  C   UNL     1       2.194  29.656  33.953  0.00  0.00    +0.000 C 
ATOM     24  C   UNL     1       1.631  29.468  35.360  0.00  0.00    +0.000 C 
ATOM     25  C   UNL     1       2.779  30.865  33.825  0.00  0.00    +0.000 C 
ENDBRANCH  13  23
BRANCH  14  26
ATOM     26  O   UNL     1      -2.014  26.188  31.193  0.00  0.00    +0.000 OA
ATOM     27  H   UNL     1      -2.410  26.621  30.411  0.00  0.00    +0.000 HD
ENDBRANCH  14  26
BRANCH  15  28
ATOM     28  O   UNL     1      -2.336  23.232  31.801  0.00  0.00    +0.000 OA
ATOM     29  H   UNL     1      -2.844  23.178  30.963  0.00  0.00    +0.000 HD
ENDBRANCH  15  28
BRANCH  17  30
ATOM     30  C   UNL     1       4.531  27.276  30.934  0.00  0.00    +0.000 C 
ATOM     31  C   UNL     1       5.633  27.186  30.466  0.00  0.00    +0.000 C 
BRANCH  31  32
ATOM     32  C   UNL     1       7.038  27.070  29.871  0.00  0.00    +0.000 C 
ATOM     33  C   UNL     1       8.141  26.979  29.405  0.00  0.00    +0.000 C 
BRANCH  33  34
ATOM     34  C   UNL     1       9.548  26.861  28.812  0.00  0.00    +0.000 C 
ATOM     35  C   UNL     1      10.955  26.742  28.221  0.00  0.00    +0.000 C 
BRANCH  35  36
ATOM     36  C   UNL     1      12.364  26.623  27.629  0.00  0.00    +0.000 C 
ATOM     37  C   UNL     1      13.771  26.503  27.036  0.00  0.00    +0.000 C 
ATOM     38  C   UNL     1      15.179  26.384  26.443  0.00  0.00    +0.000 C 
ENDBRANCH  35  36
ENDBRANCH  33  34
ENDBRANCH  31  32
ENDBRANCH  17  30
BRANCH  16  39
ATOM     39  O   UNL     1      -0.239  30.163  32.183  0.00  0.00    +0.000 OA
BRANCH  39  41
ATOM     40  O   UNL     1      -1.541  28.906  33.599  0.00  0.00    +0.000 OA
ATOM     41  C   UNL     1      -1.313  29.941  32.996  0.00  0.00    +0.000 C 
BRANCH  41  42
ATOM     42  C   UNL     1      -2.196  31.121  33.013  0.00  0.00    +0.000 A 
ATOM     43  C   UNL     1      -1.684  32.414  33.114  0.00  0.00    +0.000 A 
ATOM     44  C   UNL     1      -3.572  30.918  32.923  0.00  0.00    +0.000 A 
ATOM     45  C   UNL     1      -2.550  33.505  33.125  0.00  0.00    +0.000 A 
ATOM     46  C   UNL     1      -4.436  32.010  32.933  0.00  0.00    +0.000 A 
ATOM     47  C   UNL     1      -3.925  33.302  33.034  0.00  0.00    +0.000 A 
ENDBRANCH  41  42
ENDBRANCH  39  41
ENDBRANCH  16  39
BRANCH   9  48
ATOM     48  C   UNL     1      -0.385  22.883  33.831  0.00  0.00    +0.000 C 
BRANCH  48  49
ATOM     49  O   UNL     1      -0.565  21.936  34.747  0.00  0.00    +0.000 OA
ATOM     50  H   UNL     1      -1.399  21.461  34.586  0.00  0.00    +0.000 HD
ENDBRANCH  48  49
ENDBRANCH   9  48
TORSDOF 12
ENDMDL
MODEL 8
REMARK VINA RESULT:      -6.1     20.834     24.895
REMARK  Name = 5358691_Yuanhuacine.pdbqt.pdb
REMARK  12 active torsions:
REMARK  status: ('A' for Active; 'I' for Inactive)
REMARK    1  A    between atoms: C_9  and  C_48
REMARK    2  A    between atoms: C_13  and  C_23
REMARK    3  A    between atoms: C_14  and  O_26
REMARK    4  A    between atoms: C_15  and  O_28
REMARK    5  A    between atoms: C_16  and  O_39
REMARK    6  A    between atoms: C_17  and  C_30
REMARK    7  A    between atoms: C_31  and  C_32
REMARK    8  A    between atoms: C_33  and  C_34
REMARK    9  A    between atoms: C_35  and  C_36
REMARK   10  A    between atoms: O_39  and  C_41
REMARK   11  A    between atoms: C_41  and  C_42
REMARK   12  A    between atoms: C_48  and  O_49
REMARK                            x       y       z     vdW  Elec       q    Type
REMARK                         _______ _______ _______ _____ _____    ______ ____
ROOT
ATOM      1  O   UNL     1      -2.692  22.865   5.466  0.00  0.00    +0.000 OA
ATOM      2  O   UNL     1      -0.539  20.170   4.863  0.00  0.00    +0.000 OA
ATOM      3  O   UNL     1       0.453  22.281   4.425  0.00  0.00    +0.000 OA
ATOM      4  O   UNL     1       1.207  20.443   3.280  0.00  0.00    +0.000 OA
ATOM      5  O   UNL     1      -6.353  19.238   4.717  0.00  0.00    +0.000 OA
ATOM      6  C   UNL     1      -1.635  21.929   3.592  0.00  0.00    +0.000 C 
ATOM      7  C   UNL     1      -1.653  20.437   3.956  0.00  0.00    +0.000 C 
ATOM      8  C   UNL     1      -2.514  22.940   4.107  0.00  0.00    +0.000 C 
ATOM      9  C   UNL     1      -3.871  22.965   4.656  0.00  0.00    +0.000 C 
ATOM     10  C   UNL     1      -0.249  22.241   3.222  0.00  0.00    +0.000 C 
ATOM     11  C   UNL     1      -2.909  20.045   4.673  0.00  0.00    +0.000 C 
ATOM     12  C   UNL     1      -1.442  19.605   2.655  0.00  0.00    +0.000 C 
ATOM     13  C   UNL     1       0.466  21.223   2.300  0.00  0.00    +0.000 C 
ATOM     14  C   UNL     1      -4.271  20.414   4.128  0.00  0.00    +0.000 C 
ATOM     15  C   UNL     1      -4.763  21.789   4.471  0.00  0.00    +0.000 C 
ATOM     16  C   UNL     1      -0.508  20.213   1.720  0.00  0.00    +0.000 C 
ATOM     17  C   UNL     1       0.685  20.872   4.536  0.00  0.00    +0.000 C 
ATOM     18  C   UNL     1      -3.066  18.978   5.594  0.00  0.00    +0.000 C 
ATOM     19  C   UNL     1      -1.923  18.175   2.409  0.00  0.00    +0.000 C 
ATOM     20  C   UNL     1      -5.137  19.335   4.860  0.00  0.00    +0.000 C 
ATOM     21  C   UNL     1      -4.256  18.498   5.739  0.00  0.00    +0.000 C 
ATOM     22  C   UNL     1      -4.693  17.704   6.926  0.00  0.00    +0.000 C 
ENDROOT
BRANCH  13  23
ATOM     23  C   UNL     1       1.382  21.970   1.303  0.00  0.00    +0.000 C 
ATOM     24  C   UNL     1       2.708  21.419   0.779  0.00  0.00    +0.000 C 
ATOM     25  C   UNL     1       1.257  23.282   1.015  0.00  0.00    +0.000 C 
ENDBRANCH  13  23
BRANCH  14  26
ATOM     26  O   UNL     1      -4.314  20.273   2.724  0.00  0.00    +0.000 OA
ATOM     27  H   UNL     1      -4.311  21.173   2.343  0.00  0.00    +0.000 HD
ENDBRANCH  14  26
BRANCH  15  28
ATOM     28  O   UNL     1      -6.145  21.993   4.429  0.00  0.00    +0.000 OA
ATOM     29  H   UNL     1      -6.431  22.796   3.944  0.00  0.00    +0.000 HD
ENDBRANCH  15  28
BRANCH  17  30
ATOM     30  C   UNL     1       1.668  20.615   5.583  0.00  0.00    +0.000 C 
ATOM     31  C   UNL     1       2.476  20.403   6.446  0.00  0.00    +0.000 C 
BRANCH  31  32
ATOM     32  C   UNL     1       3.505  20.131   7.545  0.00  0.00    +0.000 C 
ATOM     33  C   UNL     1       4.312  19.918   8.408  0.00  0.00    +0.000 C 
BRANCH  33  34
ATOM     34  C   UNL     1       5.342  19.649   9.510  0.00  0.00    +0.000 C 
ATOM     35  C   UNL     1       6.372  19.381  10.610  0.00  0.00    +0.000 C 
BRANCH  35  36
ATOM     36  C   UNL     1       7.403  19.114  11.712  0.00  0.00    +0.000 C 
ATOM     37  C   UNL     1       8.433  18.848  12.814  0.00  0.00    +0.000 C 
ATOM     38  C   UNL     1       9.464  18.583  13.916  0.00  0.00    +0.000 C 
ENDBRANCH  35  36
ENDBRANCH  33  34
ENDBRANCH  31  32
ENDBRANCH  17  30
BRANCH  16  39
ATOM     39  O   UNL     1      -0.546  19.792   0.380  0.00  0.00    +0.000 OA
BRANCH  39  41
ATOM     40  O   UNL     1      -2.674  20.454  -0.180  0.00  0.00    +0.000 OA
ATOM     41  C   UNL     1      -1.472  20.439  -0.386  0.00  0.00    +0.000 C 
BRANCH  41  42
ATOM     42  C   UNL     1      -0.819  21.090  -1.537  0.00  0.00    +0.000 A 
ATOM     43  C   UNL     1      -1.416  22.157  -2.207  0.00  0.00    +0.000 A 
ATOM     44  C   UNL     1       0.425  20.612  -1.947  0.00  0.00    +0.000 A 
ATOM     45  C   UNL     1      -0.767  22.747  -3.289  0.00  0.00    +0.000 A 
ATOM     46  C   UNL     1       1.071  21.204  -3.029  0.00  0.00    +0.000 A 
ATOM     47  C   UNL     1       0.475  22.270  -3.699  0.00  0.00    +0.000 A 
ENDBRANCH  41  42
ENDBRANCH  39  41
ENDBRANCH  16  39
BRANCH   9  48
ATOM     48  C   UNL     1      -4.500  24.262   4.864  0.00  0.00    +0.000 C 
BRANCH  48  49
ATOM     49  O   UNL     1      -5.069  25.450   5.053  0.00  0.00    +0.000 OA
ATOM     50  H   UNL     1      -5.442  25.510   5.949  0.00  0.00    +0.000 HD
ENDBRANCH  48  49
ENDBRANCH   9  48
TORSDOF 12
ENDMDL
MODEL 9
REMARK VINA RESULT:      -6.1      4.576     11.865
REMARK  Name = 5358691_Yuanhuacine.pdbqt.pdb
REMARK  12 active torsions:
REMARK  status: ('A' for Active; 'I' for Inactive)
REMARK    1  A    between atoms: C_9  and  C_48
REMARK    2  A    between atoms: C_13  and  C_23
REMARK    3  A    between atoms: C_14  and  O_26
REMARK    4  A    between atoms: C_15  and  O_28
REMARK    5  A    between atoms: C_16  and  O_39
REMARK    6  A    between atoms: C_17  and  C_30
REMARK    7  A    between atoms: C_31  and  C_32
REMARK    8  A    between atoms: C_33  and  C_34
REMARK    9  A    between atoms: C_35  and  C_36
REMARK   10  A    between atoms: O_39  and  C_41
REMARK   11  A    between atoms: C_41  and  C_42
REMARK   12  A    between atoms: C_48  and  O_49
REMARK                            x       y       z     vdW  Elec       q    Type
REMARK                         _______ _______ _______ _____ _____    ______ ____
ROOT
ATOM      1  O   UNL     1      -7.959  42.928  11.083  0.00  0.00    +0.000 OA
ATOM      2  O   UNL     1      -8.423  45.068  13.815  0.00  0.00    +0.000 OA
ATOM      3  O   UNL     1      -6.417  45.492  12.620  0.00  0.00    +0.000 OA
ATOM      4  O   UNL     1      -6.512  46.021  14.849  0.00  0.00    +0.000 OA
ATOM      5  O   UNL     1     -11.145  39.845  13.816  0.00  0.00    +0.000 OA
ATOM      6  C   UNL     1      -6.878  43.322  13.128  0.00  0.00    +0.000 C 
ATOM      7  C   UNL     1      -8.071  43.667  14.032  0.00  0.00    +0.000 C 
ATOM      8  C   UNL     1      -6.926  42.564  11.910  0.00  0.00    +0.000 C 
ATOM      9  C   UNL     1      -7.802  41.529  11.357  0.00  0.00    +0.000 C 
ATOM     10  C   UNL     1      -5.900  44.400  13.316  0.00  0.00    +0.000 C 
ATOM     11  C   UNL     1      -9.284  42.851  13.704  0.00  0.00    +0.000 C 
ATOM     12  C   UNL     1      -7.635  43.491  15.518  0.00  0.00    +0.000 C 
ATOM     13  C   UNL     1      -5.644  44.856  14.773  0.00  0.00    +0.000 C 
ATOM     14  C   UNL     1      -9.207  41.346  13.580  0.00  0.00    +0.000 C 
ATOM     15  C   UNL     1      -8.761  40.821  12.247  0.00  0.00    +0.000 C 
ATOM     16  C   UNL     1      -6.263  43.898  15.775  0.00  0.00    +0.000 C 
ATOM     17  C   UNL     1      -7.290  45.956  13.656  0.00  0.00    +0.000 C 
ATOM     18  C   UNL     1     -10.638  43.218  13.913  0.00  0.00    +0.000 C 
ATOM     19  C   UNL     1      -8.555  43.173  16.697  0.00  0.00    +0.000 C 
ATOM     20  C   UNL     1     -10.713  40.995  13.820  0.00  0.00    +0.000 C 
ATOM     21  C   UNL     1     -11.495  42.258  14.023  0.00  0.00    +0.000 C 
ATOM     22  C   UNL     1     -12.964  42.429  13.817  0.00  0.00    +0.000 C 
ENDROOT
BRANCH  13  23
ATOM     23  C   UNL     1      -4.148  45.202  14.961  0.00  0.00    +0.000 C 
ATOM     24  C   UNL     1      -3.600  46.033  16.120  0.00  0.00    +0.000 C 
ATOM     25  C   UNL     1      -3.222  45.055  13.991  0.00  0.00    +0.000 C 
ENDBRANCH  13  23
BRANCH  14  26
ATOM     26  O   UNL     1      -8.364  40.795  14.569  0.00  0.00    +0.000 OA
ATOM     27  H   UNL     1      -8.716  41.073  15.438  0.00  0.00    +0.000 HD
ENDBRANCH  14  26
BRANCH  15  28
ATOM     28  O   UNL     1      -9.135  39.513  11.928  0.00  0.00    +0.000 OA
ATOM     29  H   UNL     1      -9.034  39.272  10.982  0.00  0.00    +0.000 HD
ENDBRANCH  15  28
BRANCH  17  30
ATOM     30  C   UNL     1      -7.781  47.290  13.324  0.00  0.00    +0.000 C 
ATOM     31  C   UNL     1      -8.187  48.386  13.052  0.00  0.00    +0.000 C 
BRANCH  31  32
ATOM     32  C   UNL     1      -8.705  49.785  12.705  0.00  0.00    +0.000 C 
ATOM     33  C   UNL     1      -9.112  50.881  12.434  0.00  0.00    +0.000 C 
BRANCH  33  34
ATOM     34  C   UNL     1      -9.631  52.281  12.091  0.00  0.00    +0.000 C 
ATOM     35  C   UNL     1     -10.149  53.680  11.749  0.00  0.00    +0.000 C 
BRANCH  35  36
ATOM     36  C   UNL     1     -10.667  55.081  11.404  0.00  0.00    +0.000 C 
ATOM     37  C   UNL     1     -11.183  56.481  11.061  0.00  0.00    +0.000 C 
ATOM     38  C   UNL     1     -11.699  57.882  10.718  0.00  0.00    +0.000 C 
ENDBRANCH  35  36
ENDBRANCH  33  34
ENDBRANCH  31  32
ENDBRANCH  17  30
BRANCH  16  39
ATOM     39  O   UNL     1      -5.638  43.418  16.939  0.00  0.00    +0.000 OA
BRANCH  39  41
ATOM     40  O   UNL     1      -5.900  41.219  17.552  0.00  0.00    +0.000 OA
ATOM     41  C   UNL     1      -5.337  42.086  16.906  0.00  0.00    +0.000 C 
BRANCH  41  42
ATOM     42  C   UNL     1      -4.196  41.841  16.006  0.00  0.00    +0.000 A 
ATOM     43  C   UNL     1      -4.369  41.270  14.746  0.00  0.00    +0.000 A 
ATOM     44  C   UNL     1      -2.921  42.198  16.444  0.00  0.00    +0.000 A 
ATOM     45  C   UNL     1      -3.266  41.056  13.923  0.00  0.00    +0.000 A 
ATOM     46  C   UNL     1      -1.820  41.984  15.620  0.00  0.00    +0.000 A 
ATOM     47  C   UNL     1      -1.993  41.413  14.361  0.00  0.00    +0.000 A 
ENDBRANCH  41  42
ENDBRANCH  39  41
ENDBRANCH  16  39
BRANCH   9  48
ATOM     48  C   UNL     1      -7.367  40.839  10.150  0.00  0.00    +0.000 C 
BRANCH  48  49
ATOM     49  O   UNL     1      -6.976  40.212   9.044  0.00  0.00    +0.000 OA
ATOM     50  H   UNL     1      -7.223  40.725   8.256  0.00  0.00    +0.000 HD
ENDBRANCH  48  49
ENDBRANCH   9  48
TORSDOF 12
ENDMDL
