MODEL 1
REMARK VINA RESULT:      -5.8      0.000      0.000
REMARK  Name = 5386_Tegafur.pdbqt.pdb
REMARK  1 active torsions:
REMARK  status: ('A' for Active; 'I' for Inactive)
REMARK    1  A    between atoms: N_4  and  C_12
REMARK                            x       y       z     vdW  Elec       q    Type
REMARK                         _______ _______ _______ _____ _____    ______ ____
ROOT
ATOM      1  F   UNL     1       5.928  27.552  14.894  0.00  0.00    +0.000 F 
ATOM      2  O   UNL     1       4.776  32.436  16.974  0.00  0.00    +0.000 OA
ATOM      3  O   UNL     1       7.905  29.200  16.068  0.00  0.00    +0.000 OA
ATOM      4  N   UNL     1       4.106  30.578  15.673  0.00  0.00    +0.000 N 
ATOM      5  N   UNL     1       6.318  30.830  16.422  0.00  0.00    +0.000 N 
ATOM      6  C   UNL     1       5.015  31.380  16.398  0.00  0.00    +0.000 C 
ATOM      7  C   UNL     1       4.585  29.441  15.127  0.00  0.00    +0.000 C 
ATOM      8  C   UNL     1       5.740  28.867  15.093  0.00  0.00    +0.000 C 
ATOM      9  C   UNL     1       6.768  29.616  15.886  0.00  0.00    +0.000 C 
ATOM     10  H   UNL     1       6.995  31.350  16.962  0.00  0.00    +0.000 HD
ENDROOT
BRANCH   4  12
ATOM     11  O   UNL     1       2.358  32.064  14.879  0.00  0.00    +0.000 OA
ATOM     12  C   UNL     1       2.787  30.887  15.503  0.00  0.00    +0.000 C 
ATOM     13  C   UNL     1       1.638  30.150  15.898  0.00  0.00    +0.000 C 
ATOM     14  C   UNL     1       0.217  30.650  15.633  0.00  0.00    +0.000 C 
ATOM     15  C   UNL     1       1.060  31.775  15.034  0.00  0.00    +0.000 C 
ENDBRANCH   4  12
TORSDOF 1
ENDMDL
MODEL 2
REMARK VINA RESULT:      -5.7      2.201      2.749
REMARK  Name = 5386_Tegafur.pdbqt.pdb
REMARK  1 active torsions:
REMARK  status: ('A' for Active; 'I' for Inactive)
REMARK    1  A    between atoms: N_4  and  C_12
REMARK                            x       y       z     vdW  Elec       q    Type
REMARK                         _______ _______ _______ _____ _____    ______ ____
ROOT
ATOM      1  F   UNL     1       8.777  27.010  15.141  0.00  0.00    +0.000 F 
ATOM      2  O   UNL     1       5.153  30.867  16.362  0.00  0.00    +0.000 OA
ATOM      3  O   UNL     1       9.516  29.437  16.392  0.00  0.00    +0.000 OA
ATOM      4  N   UNL     1       5.670  28.860  15.222  0.00  0.00    +0.000 N 
ATOM      5  N   UNL     1       7.329  30.148  16.275  0.00  0.00    +0.000 N 
ATOM      6  C   UNL     1       5.953  30.024  15.973  0.00  0.00    +0.000 C 
ATOM      7  C   UNL     1       6.709  28.059  14.912  0.00  0.00    +0.000 C 
ATOM      8  C   UNL     1       7.979  28.090  15.136  0.00  0.00    +0.000 C 
ATOM      9  C   UNL     1       8.375  29.265  15.978  0.00  0.00    +0.000 C 
ATOM     10  H   UNL     1       7.574  30.946  16.844  0.00  0.00    +0.000 HD
ENDROOT
BRANCH   4  12
ATOM     11  O   UNL     1       4.191  27.621  13.748  0.00  0.00    +0.000 OA
ATOM     12  C   UNL     1       4.418  28.510  14.806  0.00  0.00    +0.000 C 
ATOM     13  C   UNL     1       3.158  28.938  15.304  0.00  0.00    +0.000 C 
ATOM     14  C   UNL     1       1.837  28.446  14.711  0.00  0.00    +0.000 C 
ATOM     15  C   UNL     1       2.859  27.711  13.846  0.00  0.00    +0.000 C 
ENDBRANCH   4  12
TORSDOF 1
ENDMDL
MODEL 3
REMARK VINA RESULT:      -5.4     18.101     19.422
REMARK  Name = 5386_Tegafur.pdbqt.pdb
REMARK  1 active torsions:
REMARK  status: ('A' for Active; 'I' for Inactive)
REMARK    1  A    between atoms: N_4  and  C_12
REMARK                            x       y       z     vdW  Elec       q    Type
REMARK                         _______ _______ _______ _____ _____    ______ ____
ROOT
ATOM      1  F   UNL     1      12.899  47.898  10.178  0.00  0.00    +0.000 F 
ATOM      2  O   UNL     1      13.208  42.694   8.652  0.00  0.00    +0.000 OA
ATOM      3  O   UNL     1      10.653  46.465   9.225  0.00  0.00    +0.000 OA
ATOM      4  N   UNL     1      14.311  44.701   9.245  0.00  0.00    +0.000 N 
ATOM      5  N   UNL     1      11.992  44.626   8.871  0.00  0.00    +0.000 N 
ATOM      6  C   UNL     1      13.202  43.894   8.900  0.00  0.00    +0.000 C 
ATOM      7  C   UNL     1      14.071  46.005   9.492  0.00  0.00    +0.000 C 
ATOM      8  C   UNL     1      13.020  46.752   9.487  0.00  0.00    +0.000 C 
ATOM      9  C   UNL     1      11.775  45.974   9.185  0.00  0.00    +0.000 C 
ATOM     10  H   UNL     1      11.165  44.083   8.667  0.00  0.00    +0.000 HD
ENDROOT
BRANCH   4  12
ATOM     11  O   UNL     1      16.246  44.076  10.570  0.00  0.00    +0.000 OA
ATOM     12  C   UNL     1      15.589  44.234   9.344  0.00  0.00    +0.000 C 
ATOM     13  C   UNL     1      16.480  43.839   8.309  0.00  0.00    +0.000 C 
ATOM     14  C   UNL     1      17.896  43.340   8.598  0.00  0.00    +0.000 C 
ATOM     15  C   UNL     1      17.374  43.626  10.005  0.00  0.00    +0.000 C 
ENDBRANCH   4  12
TORSDOF 1
ENDMDL
MODEL 4
REMARK VINA RESULT:      -4.9     20.711     21.393
REMARK  Name = 5386_Tegafur.pdbqt.pdb
REMARK  1 active torsions:
REMARK  status: ('A' for Active; 'I' for Inactive)
REMARK    1  A    between atoms: N_4  and  C_12
REMARK                            x       y       z     vdW  Elec       q    Type
REMARK                         _______ _______ _______ _____ _____    ______ ____
ROOT
ATOM      1  F   UNL     1     -15.025  30.157  21.848  0.00  0.00    +0.000 F 
ATOM      2  O   UNL     1     -15.539  31.462  27.095  0.00  0.00    +0.000 OA
ATOM      3  O   UNL     1     -16.122  28.373  23.749  0.00  0.00    +0.000 OA
ATOM      4  N   UNL     1     -14.637  31.952  24.964  0.00  0.00    +0.000 N 
ATOM      5  N   UNL     1     -15.728  29.919  25.409  0.00  0.00    +0.000 N 
ATOM      6  C   UNL     1     -15.306  31.165  25.929  0.00  0.00    +0.000 C 
ATOM      7  C   UNL     1     -14.502  31.429  23.728  0.00  0.00    +0.000 C 
ATOM      8  C   UNL     1     -14.846  30.319  23.169  0.00  0.00    +0.000 C 
ATOM      9  C   UNL     1     -15.616  29.432  24.100  0.00  0.00    +0.000 C 
ATOM     10  H   UNL     1     -16.246  29.338  26.052  0.00  0.00    +0.000 HD
ENDROOT
BRANCH   4  12
ATOM     11  O   UNL     1     -13.411  33.502  26.373  0.00  0.00    +0.000 OA
ATOM     12  C   UNL     1     -14.134  33.196  25.214  0.00  0.00    +0.000 C 
ATOM     13  C   UNL     1     -14.227  34.373  24.424  0.00  0.00    +0.000 C 
ATOM     14  C   UNL     1     -13.604  35.700  24.861  0.00  0.00    +0.000 C 
ATOM     15  C   UNL     1     -13.232  34.783  26.025  0.00  0.00    +0.000 C 
ENDBRANCH   4  12
TORSDOF 1
ENDMDL
MODEL 5
REMARK VINA RESULT:      -4.9     11.654     13.204
REMARK  Name = 5386_Tegafur.pdbqt.pdb
REMARK  1 active torsions:
REMARK  status: ('A' for Active; 'I' for Inactive)
REMARK    1  A    between atoms: N_4  and  C_12
REMARK                            x       y       z     vdW  Elec       q    Type
REMARK                         _______ _______ _______ _____ _____    ______ ____
ROOT
ATOM      1  F   UNL     1      -1.987  42.907  16.167  0.00  0.00    +0.000 F 
ATOM      2  O   UNL     1       2.689  40.430  17.394  0.00  0.00    +0.000 OA
ATOM      3  O   UNL     1      -1.843  40.137  16.718  0.00  0.00    +0.000 OA
ATOM      4  N   UNL     1       1.562  42.345  16.583  0.00  0.00    +0.000 N 
ATOM      5  N   UNL     1       0.439  40.316  16.960  0.00  0.00    +0.000 N 
ATOM      6  C   UNL     1       1.676  41.002  17.008  0.00  0.00    +0.000 C 
ATOM      7  C   UNL     1       0.338  42.772  16.209  0.00  0.00    +0.000 C 
ATOM      8  C   UNL     1      -0.828  42.229  16.130  0.00  0.00    +0.000 C 
ATOM      9  C   UNL     1      -0.825  40.810  16.615  0.00  0.00    +0.000 C 
ATOM     10  H   UNL     1       0.463  39.362  17.292  0.00  0.00    +0.000 HD
ENDROOT
BRANCH   4  12
ATOM     11  O   UNL     1       3.752  42.993  15.761  0.00  0.00    +0.000 OA
ATOM     12  C   UNL     1       2.609  43.219  16.537  0.00  0.00    +0.000 C 
ATOM     13  C   UNL     1       2.773  44.455  17.219  0.00  0.00    +0.000 C 
ATOM     14  C   UNL     1       4.027  45.316  17.058  0.00  0.00    +0.000 C 
ATOM     15  C   UNL     1       4.342  44.133  16.145  0.00  0.00    +0.000 C 
ENDBRANCH   4  12
TORSDOF 1
ENDMDL
MODEL 6
REMARK VINA RESULT:      -4.9     20.611     21.702
REMARK  Name = 5386_Tegafur.pdbqt.pdb
REMARK  1 active torsions:
REMARK  status: ('A' for Active; 'I' for Inactive)
REMARK    1  A    between atoms: N_4  and  C_12
REMARK                            x       y       z     vdW  Elec       q    Type
REMARK                         _______ _______ _______ _____ _____    ______ ____
ROOT
ATOM      1  F   UNL     1      13.128  48.101  11.305  0.00  0.00    +0.000 F 
ATOM      2  O   UNL     1       8.544  50.869  12.213  0.00  0.00    +0.000 OA
ATOM      3  O   UNL     1      10.590  47.114  10.542  0.00  0.00    +0.000 OA
ATOM      4  N   UNL     1      10.861  50.599  12.610  0.00  0.00    +0.000 N 
ATOM      5  N   UNL     1       9.601  48.973  11.473  0.00  0.00    +0.000 N 
ATOM      6  C   UNL     1       9.585  50.229  12.125  0.00  0.00    +0.000 C 
ATOM      7  C   UNL     1      11.878  49.740  12.388  0.00  0.00    +0.000 C 
ATOM      8  C   UNL     1      11.987  48.590  11.815  0.00  0.00    +0.000 C 
ATOM      9  C   UNL     1      10.691  48.132  11.216  0.00  0.00    +0.000 C 
ATOM     10  H   UNL     1       8.719  48.684  11.075  0.00  0.00    +0.000 HD
ENDROOT
BRANCH   4  12
ATOM     11  O   UNL     1      11.085  51.863  14.670  0.00  0.00    +0.000 OA
ATOM     12  C   UNL     1      11.113  51.764  13.274  0.00  0.00    +0.000 C 
ATOM     13  C   UNL     1      11.426  53.045  12.744  0.00  0.00    +0.000 C 
ATOM     14  C   UNL     1      11.675  54.259  13.640  0.00  0.00    +0.000 C 
ATOM     15  C   UNL     1      11.387  53.168  14.669  0.00  0.00    +0.000 C 
ENDBRANCH   4  12
TORSDOF 1
ENDMDL
MODEL 7
REMARK VINA RESULT:      -4.8     18.161     18.764
REMARK  Name = 5386_Tegafur.pdbqt.pdb
REMARK  1 active torsions:
REMARK  status: ('A' for Active; 'I' for Inactive)
REMARK    1  A    between atoms: N_4  and  C_12
REMARK                            x       y       z     vdW  Elec       q    Type
REMARK                         _______ _______ _______ _____ _____    ______ ____
ROOT
ATOM      1  F   UNL     1      16.938  45.766  10.058  0.00  0.00    +0.000 F 
ATOM      2  O   UNL     1      12.062  43.929   8.525  0.00  0.00    +0.000 OA
ATOM      3  O   UNL     1      16.630  43.483   8.416  0.00  0.00    +0.000 OA
ATOM      4  N   UNL     1      13.348  45.350   9.912  0.00  0.00    +0.000 N 
ATOM      5  N   UNL     1      14.343  43.695   8.573  0.00  0.00    +0.000 N 
ATOM      6  C   UNL     1      13.135  44.308   8.980  0.00  0.00    +0.000 C 
ATOM      7  C   UNL     1      14.624  45.608  10.267  0.00  0.00    +0.000 C 
ATOM      8  C   UNL     1      15.772  45.109   9.956  0.00  0.00    +0.000 C 
ATOM      9  C   UNL     1      15.658  44.026   8.926  0.00  0.00    +0.000 C 
ATOM     10  H   UNL     1      14.244  42.969   7.877  0.00  0.00    +0.000 HD
ENDROOT
BRANCH   4  12
ATOM     11  O   UNL     1      11.932  45.959  11.787  0.00  0.00    +0.000 OA
ATOM     12  C   UNL     1      12.346  46.099  10.457  0.00  0.00    +0.000 C 
ATOM     13  C   UNL     1      11.550  47.106   9.847  0.00  0.00    +0.000 C 
ATOM     14  C   UNL     1      10.452  47.850  10.609  0.00  0.00    +0.000 C 
ATOM     15  C   UNL     1      10.989  46.904  11.682  0.00  0.00    +0.000 C 
ENDBRANCH   4  12
TORSDOF 1
ENDMDL
MODEL 8
REMARK VINA RESULT:      -4.8     17.674     19.029
REMARK  Name = 5386_Tegafur.pdbqt.pdb
REMARK  1 active torsions:
REMARK  status: ('A' for Active; 'I' for Inactive)
REMARK    1  A    between atoms: N_4  and  C_12
REMARK                            x       y       z     vdW  Elec       q    Type
REMARK                         _______ _______ _______ _____ _____    ______ ____
ROOT
ATOM      1  F   UNL     1      -4.369  48.385   8.463  0.00  0.00    +0.000 F 
ATOM      2  O   UNL     1      -5.713  43.342   9.970  0.00  0.00    +0.000 OA
ATOM      3  O   UNL     1      -4.886  46.333   6.585  0.00  0.00    +0.000 OA
ATOM      4  N   UNL     1      -4.892  45.482  10.556  0.00  0.00    +0.000 N 
ATOM      5  N   UNL     1      -5.205  44.848   8.316  0.00  0.00    +0.000 N 
ATOM      6  C   UNL     1      -5.302  44.458   9.672  0.00  0.00    +0.000 C 
ATOM      7  C   UNL     1      -4.485  46.645  10.007  0.00  0.00    +0.000 C 
ATOM      8  C   UNL     1      -4.361  47.085   8.801  0.00  0.00    +0.000 C 
ATOM      9  C   UNL     1      -4.825  46.087   7.784  0.00  0.00    +0.000 C 
ATOM     10  H   UNL     1      -5.524  44.161   7.647  0.00  0.00    +0.000 HD
ENDROOT
BRANCH   4  12
ATOM     11  O   UNL     1      -4.437  44.208  12.572  0.00  0.00    +0.000 OA
ATOM     12  C   UNL     1      -4.893  45.358  11.916  0.00  0.00    +0.000 C 
ATOM     13  C   UNL     1      -5.330  46.287  12.898  0.00  0.00    +0.000 C 
ATOM     14  C   UNL     1      -5.266  45.981  14.395  0.00  0.00    +0.000 C 
ATOM     15  C   UNL     1      -4.698  44.698  13.791  0.00  0.00    +0.000 C 
ENDBRANCH   4  12
TORSDOF 1
ENDMDL
MODEL 9
REMARK VINA RESULT:      -4.8     11.075     11.867
REMARK  Name = 5386_Tegafur.pdbqt.pdb
REMARK  1 active torsions:
REMARK  status: ('A' for Active; 'I' for Inactive)
REMARK    1  A    between atoms: N_4  and  C_12
REMARK                            x       y       z     vdW  Elec       q    Type
REMARK                         _______ _______ _______ _____ _____    ______ ____
ROOT
ATOM      1  F   UNL     1       2.956  40.758  17.570  0.00  0.00    +0.000 F 
ATOM      2  O   UNL     1      -1.111  43.229  14.950  0.00  0.00    +0.000 OA
ATOM      3  O   UNL     1       2.887  43.560  17.184  0.00  0.00    +0.000 OA
ATOM      4  N   UNL     1       0.002  41.225  15.534  0.00  0.00    +0.000 N 
ATOM      5  N   UNL     1       0.929  43.335  15.993  0.00  0.00    +0.000 N 
ATOM      6  C   UNL     1      -0.161  42.626  15.437  0.00  0.00    +0.000 C 
ATOM      7  C   UNL     1       1.129  40.775  16.125  0.00  0.00    +0.000 C 
ATOM      8  C   UNL     1       2.164  41.336  16.652  0.00  0.00    +0.000 C 
ATOM      9  C   UNL     1       2.061  42.831  16.647  0.00  0.00    +0.000 C 
ATOM     10  H   UNL     1       0.839  44.341  15.982  0.00  0.00    +0.000 HD
ENDROOT
BRANCH   4  12
ATOM     11  O   UNL     1      -1.444  40.372  13.781  0.00  0.00    +0.000 OA
ATOM     12  C   UNL     1      -0.909  40.320  15.074  0.00  0.00    +0.000 C 
ATOM     13  C   UNL     1      -1.486  39.210  15.749  0.00  0.00    +0.000 C 
ATOM     14  C   UNL     1      -2.510  38.291  15.080  0.00  0.00    +0.000 C 
ATOM     15  C   UNL     1      -2.215  39.292  13.964  0.00  0.00    +0.000 C 
ENDBRANCH   4  12
TORSDOF 1
ENDMDL
