MODEL 1
REMARK VINA RESULT:      -5.9      0.000      0.000
REMARK  Name = 5470187_Zerumbone.pdbqt.pdb
REMARK  0 active torsions:
REMARK  status: ('A' for Active; 'I' for Inactive)
REMARK                            x       y       z     vdW  Elec       q    Type
REMARK                         _______ _______ _______ _____ _____    ______ ____
ROOT
ATOM      1  O   UNL     1      -0.310  27.773  -6.045  0.00  0.00    +0.000 OA
ATOM      2  C   UNL     1      -0.747  23.337  -4.044  0.00  0.00    +0.000 C 
ATOM      3  C   UNL     1       0.158  23.057  -2.903  0.00  0.00    +0.000 C 
ATOM      4  C   UNL     1      -2.222  23.232  -3.589  0.00  0.00    +0.000 C 
ATOM      5  C   UNL     1      -0.453  22.341  -5.194  0.00  0.00    +0.000 C 
ATOM      6  C   UNL     1      -0.445  24.734  -4.492  0.00  0.00    +0.000 C 
ATOM      7  C   UNL     1       1.226  23.169  -1.800  0.00  0.00    +0.000 C 
ATOM      8  C   UNL     1       2.163  23.663  -1.047  0.00  0.00    +0.000 C 
ATOM      9  C   UNL     1       2.508  24.977  -1.454  0.00  0.00    +0.000 C 
ATOM     10  C   UNL     1       2.429  26.261  -2.283  0.00  0.00    +0.000 C 
ATOM     11  C   UNL     1      -0.136  25.862  -4.789  0.00  0.00    +0.000 C 
ATOM     12  C   UNL     1       2.261  23.270   0.390  0.00  0.00    +0.000 C 
ATOM     13  C   UNL     1       1.945  27.243  -3.354  0.00  0.00    +0.000 C 
ATOM     14  C   UNL     1       1.375  27.894  -4.325  0.00  0.00    +0.000 C 
ATOM     15  C   UNL     1       0.276  27.229  -5.116  0.00  0.00    +0.000 C 
ATOM     16  C   UNL     1       1.874  29.292  -4.602  0.00  0.00    +0.000 C 
ENDROOT
TORSDOF 0
ENDMDL
MODEL 2
REMARK VINA RESULT:      -5.8     32.526     34.334
REMARK  Name = 5470187_Zerumbone.pdbqt.pdb
REMARK  0 active torsions:
REMARK  status: ('A' for Active; 'I' for Inactive)
REMARK                            x       y       z     vdW  Elec       q    Type
REMARK                         _______ _______ _______ _____ _____    ______ ____
ROOT
ATOM      1  O   UNL     1     -17.078  29.172  27.697  0.00  0.00    +0.000 OA
ATOM      2  C   UNL     1     -15.617  30.965  23.392  0.00  0.00    +0.000 C 
ATOM      3  C   UNL     1     -15.092  32.350  23.422  0.00  0.00    +0.000 C 
ATOM      4  C   UNL     1     -14.523  29.993  22.890  0.00  0.00    +0.000 C 
ATOM      5  C   UNL     1     -16.868  30.904  22.481  0.00  0.00    +0.000 C 
ATOM      6  C   UNL     1     -15.998  30.625  24.801  0.00  0.00    +0.000 C 
ATOM      7  C   UNL     1     -14.636  33.750  23.870  0.00  0.00    +0.000 C 
ATOM      8  C   UNL     1     -14.377  34.769  24.636  0.00  0.00    +0.000 C 
ATOM      9  C   UNL     1     -14.753  34.508  25.979  0.00  0.00    +0.000 C 
ATOM     10  C   UNL     1     -15.294  33.696  27.157  0.00  0.00    +0.000 C 
ATOM     11  C   UNL     1     -16.281  30.438  25.959  0.00  0.00    +0.000 C 
ATOM     12  C   UNL     1     -13.219  35.662  24.339  0.00  0.00    +0.000 C 
ATOM     13  C   UNL     1     -15.884  32.508  27.923  0.00  0.00    +0.000 C 
ATOM     14  C   UNL     1     -16.382  31.385  28.351  0.00  0.00    +0.000 C 
ATOM     15  C   UNL     1     -16.613  30.259  27.374  0.00  0.00    +0.000 C 
ATOM     16  C   UNL     1     -16.708  31.294  29.822  0.00  0.00    +0.000 C 
ENDROOT
TORSDOF 0
ENDMDL
MODEL 3
REMARK VINA RESULT:      -5.7     20.988     22.906
REMARK  Name = 5470187_Zerumbone.pdbqt.pdb
REMARK  0 active torsions:
REMARK  status: ('A' for Active; 'I' for Inactive)
REMARK                            x       y       z     vdW  Elec       q    Type
REMARK                         _______ _______ _______ _____ _____    ______ ____
ROOT
ATOM      1  O   UNL     1      11.479  30.801  17.365  0.00  0.00    +0.000 OA
ATOM      2  C   UNL     1       8.004  34.222  17.052  0.00  0.00    +0.000 C 
ATOM      3  C   UNL     1       6.674  33.745  16.603  0.00  0.00    +0.000 C 
ATOM      4  C   UNL     1       7.896  34.833  18.470  0.00  0.00    +0.000 C 
ATOM      5  C   UNL     1       8.549  35.264  16.043  0.00  0.00    +0.000 C 
ATOM      6  C   UNL     1       8.900  33.022  17.077  0.00  0.00    +0.000 C 
ATOM      7  C   UNL     1       5.501  32.872  16.123  0.00  0.00    +0.000 C 
ATOM      8  C   UNL     1       4.821  31.829  15.751  0.00  0.00    +0.000 C 
ATOM      9  C   UNL     1       5.637  30.669  15.725  0.00  0.00    +0.000 C 
ATOM     10  C   UNL     1       6.910  29.839  15.901  0.00  0.00    +0.000 C 
ATOM     11  C   UNL     1       9.551  32.006  17.063  0.00  0.00    +0.000 C 
ATOM     12  C   UNL     1       3.367  31.719  16.076  0.00  0.00    +0.000 C 
ATOM     13  C   UNL     1       8.367  29.512  16.240  0.00  0.00    +0.000 C 
ATOM     14  C   UNL     1       9.622  29.477  16.584  0.00  0.00    +0.000 C 
ATOM     15  C   UNL     1      10.302  30.749  17.026  0.00  0.00    +0.000 C 
ATOM     16  C   UNL     1      10.321  28.142  16.501  0.00  0.00    +0.000 C 
ENDROOT
TORSDOF 0
ENDMDL
MODEL 4
REMARK VINA RESULT:      -5.7     31.748     33.349
REMARK  Name = 5470187_Zerumbone.pdbqt.pdb
REMARK  0 active torsions:
REMARK  status: ('A' for Active; 'I' for Inactive)
REMARK                            x       y       z     vdW  Elec       q    Type
REMARK                         _______ _______ _______ _____ _____    ______ ____
ROOT
ATOM      1  O   UNL     1     -17.378  29.561  21.996  0.00  0.00    +0.000 OA
ATOM      2  C   UNL     1     -18.527  33.799  24.139  0.00  0.00    +0.000 C 
ATOM      3  C   UNL     1     -17.395  34.533  24.753  0.00  0.00    +0.000 C 
ATOM      4  C   UNL     1     -19.178  34.660  23.030  0.00  0.00    +0.000 C 
ATOM      5  C   UNL     1     -19.563  33.434  25.233  0.00  0.00    +0.000 C 
ATOM      6  C   UNL     1     -17.951  32.549  23.548  0.00  0.00    +0.000 C 
ATOM      7  C   UNL     1     -15.999  34.958  25.243  0.00  0.00    +0.000 C 
ATOM      8  C   UNL     1     -14.718  34.938  25.460  0.00  0.00    +0.000 C 
ATOM      9  C   UNL     1     -14.130  33.754  24.946  0.00  0.00    +0.000 C 
ATOM     10  C   UNL     1     -14.080  32.405  24.225  0.00  0.00    +0.000 C 
ATOM     11  C   UNL     1     -17.405  31.567  23.106  0.00  0.00    +0.000 C 
ATOM     12  C   UNL     1     -13.938  36.211  25.495  0.00  0.00    +0.000 C 
ATOM     13  C   UNL     1     -14.572  31.179  23.451  0.00  0.00    +0.000 C 
ATOM     14  C   UNL     1     -15.215  30.248  22.808  0.00  0.00    +0.000 C 
ATOM     15  C   UNL     1     -16.701  30.392  22.591  0.00  0.00    +0.000 C 
ATOM     16  C   UNL     1     -14.411  29.065  22.326  0.00  0.00    +0.000 C 
ENDROOT
TORSDOF 0
ENDMDL
MODEL 5
REMARK VINA RESULT:      -5.6     29.597     31.300
REMARK  Name = 5470187_Zerumbone.pdbqt.pdb
REMARK  0 active torsions:
REMARK  status: ('A' for Active; 'I' for Inactive)
REMARK                            x       y       z     vdW  Elec       q    Type
REMARK                         _______ _______ _______ _____ _____    ______ ____
ROOT
ATOM      1  O   UNL     1     -14.037  32.201  24.116  0.00  0.00    +0.000 OA
ATOM      2  C   UNL     1     -14.222  28.272  21.218  0.00  0.00    +0.000 C 
ATOM      3  C   UNL     1     -15.579  27.750  20.934  0.00  0.00    +0.000 C 
ATOM      4  C   UNL     1     -13.530  28.697  19.901  0.00  0.00    +0.000 C 
ATOM      5  C   UNL     1     -13.392  27.188  21.950  0.00  0.00    +0.000 C 
ATOM      6  C   UNL     1     -14.403  29.462  22.111  0.00  0.00    +0.000 C 
ATOM      7  C   UNL     1     -17.103  27.536  20.890  0.00  0.00    +0.000 C 
ATOM      8  C   UNL     1     -18.372  27.712  21.109  0.00  0.00    +0.000 C 
ATOM      9  C   UNL     1     -18.594  28.810  21.980  0.00  0.00    +0.000 C 
ATOM     10  C   UNL     1     -18.225  30.007  22.859  0.00  0.00    +0.000 C 
ATOM     11  C   UNL     1     -14.639  30.402  22.829  0.00  0.00    +0.000 C 
ATOM     12  C   UNL     1     -19.375  27.372  20.057  0.00  0.00    +0.000 C 
ATOM     13  C   UNL     1     -17.349  31.049  23.561  0.00  0.00    +0.000 C 
ATOM     14  C   UNL     1     -16.415  31.813  24.047  0.00  0.00    +0.000 C 
ATOM     15  C   UNL     1     -14.975  31.530  23.701  0.00  0.00    +0.000 C 
ATOM     16  C   UNL     1     -16.851  32.943  24.948  0.00  0.00    +0.000 C 
ENDROOT
TORSDOF 0
ENDMDL
MODEL 6
REMARK VINA RESULT:      -5.6     37.359     40.206
REMARK  Name = 5470187_Zerumbone.pdbqt.pdb
REMARK  0 active torsions:
REMARK  status: ('A' for Active; 'I' for Inactive)
REMARK                            x       y       z     vdW  Elec       q    Type
REMARK                         _______ _______ _______ _____ _____    ______ ____
ROOT
ATOM      1  O   UNL     1      -3.116  60.578  13.721  0.00  0.00    +0.000 OA
ATOM      2  C   UNL     1      -0.350  64.140  11.842  0.00  0.00    +0.000 C 
ATOM      3  C   UNL     1      -0.214  64.133  10.366  0.00  0.00    +0.000 C 
ATOM      4  C   UNL     1      -1.006  65.462  12.307  0.00  0.00    +0.000 C 
ATOM      5  C   UNL     1       1.045  63.958  12.492  0.00  0.00    +0.000 C 
ATOM      6  C   UNL     1      -1.229  62.979  12.192  0.00  0.00    +0.000 C 
ATOM      7  C   UNL     1      -0.326  63.782   8.871  0.00  0.00    +0.000 C 
ATOM      8  C   UNL     1      -0.674  63.169   7.779  0.00  0.00    +0.000 C 
ATOM      9  C   UNL     1      -1.482  62.038   8.061  0.00  0.00    +0.000 C 
ATOM     10  C   UNL     1      -2.264  61.047   8.926  0.00  0.00    +0.000 C 
ATOM     11  C   UNL     1      -1.939  62.022  12.385  0.00  0.00    +0.000 C 
ATOM     12  C   UNL     1      -0.867  63.934   6.512  0.00  0.00    +0.000 C 
ATOM     13  C   UNL     1      -2.855  60.404  10.184  0.00  0.00    +0.000 C 
ATOM     14  C   UNL     1      -3.240  60.044  11.374  0.00  0.00    +0.000 C 
ATOM     15  C   UNL     1      -2.797  60.850  12.569  0.00  0.00    +0.000 C 
ATOM     16  C   UNL     1      -4.111  58.815  11.472  0.00  0.00    +0.000 C 
ENDROOT
TORSDOF 0
ENDMDL
MODEL 7
REMARK VINA RESULT:      -5.4     32.155     33.554
REMARK  Name = 5470187_Zerumbone.pdbqt.pdb
REMARK  0 active torsions:
REMARK  status: ('A' for Active; 'I' for Inactive)
REMARK                            x       y       z     vdW  Elec       q    Type
REMARK                         _______ _______ _______ _____ _____    ______ ____
ROOT
ATOM      1  O   UNL     1       2.842  18.770  30.686  0.00  0.00    +0.000 OA
ATOM      2  C   UNL     1       3.632  23.483  29.669  0.00  0.00    +0.000 C 
ATOM      3  C   UNL     1       2.463  24.230  29.147  0.00  0.00    +0.000 C 
ATOM      4  C   UNL     1       4.116  24.117  30.996  0.00  0.00    +0.000 C 
ATOM      5  C   UNL     1       4.764  23.487  28.612  0.00  0.00    +0.000 C 
ATOM      6  C   UNL     1       3.166  22.080  29.911  0.00  0.00    +0.000 C 
ATOM      7  C   UNL     1       1.059  24.622  28.652  0.00  0.00    +0.000 C 
ATOM      8  C   UNL     1      -0.198  24.532  28.332  0.00  0.00    +0.000 C 
ATOM      9  C   UNL     1      -0.678  23.209  28.511  0.00  0.00    +0.000 C 
ATOM     10  C   UNL     1      -0.618  21.730  28.898  0.00  0.00    +0.000 C 
ATOM     11  C   UNL     1       2.709  20.974  30.070  0.00  0.00    +0.000 C 
ATOM     12  C   UNL     1      -1.112  25.697  28.523  0.00  0.00    +0.000 C 
ATOM     13  C   UNL     1      -0.037  20.409  29.410  0.00  0.00    +0.000 C 
ATOM     14  C   UNL     1       0.667  19.419  29.876  0.00  0.00    +0.000 C 
ATOM     15  C   UNL     1       2.112  19.648  30.242  0.00  0.00    +0.000 C 
ATOM     16  C   UNL     1      -0.026  18.084  30.006  0.00  0.00    +0.000 C 
ENDROOT
TORSDOF 0
ENDMDL
MODEL 8
REMARK VINA RESULT:      -5.0     27.048     29.789
REMARK  Name = 5470187_Zerumbone.pdbqt.pdb
REMARK  0 active torsions:
REMARK  status: ('A' for Active; 'I' for Inactive)
REMARK                            x       y       z     vdW  Elec       q    Type
REMARK                         _______ _______ _______ _____ _____    ______ ____
ROOT
ATOM      1  O   UNL     1      11.146  46.986  13.809  0.00  0.00    +0.000 OA
ATOM      2  C   UNL     1      13.295  45.436   9.704  0.00  0.00    +0.000 C 
ATOM      3  C   UNL     1      14.259  46.381   9.090  0.00  0.00    +0.000 C 
ATOM      4  C   UNL     1      14.014  44.119  10.085  0.00  0.00    +0.000 C 
ATOM      5  C   UNL     1      12.134  45.164   8.715  0.00  0.00    +0.000 C 
ATOM      6  C   UNL     1      12.768  46.108  10.935  0.00  0.00    +0.000 C 
ATOM      7  C   UNL     1      15.145  47.603   8.789  0.00  0.00    +0.000 C 
ATOM      8  C   UNL     1      15.704  48.771   8.907  0.00  0.00    +0.000 C 
ATOM      9  C   UNL     1      15.210  49.462  10.042  0.00  0.00    +0.000 C 
ATOM     10  C   UNL     1      14.380  49.676  11.310  0.00  0.00    +0.000 C 
ATOM     11  C   UNL     1      12.393  46.723  11.903  0.00  0.00    +0.000 C 
ATOM     12  C   UNL     1      17.107  48.986   8.446  0.00  0.00    +0.000 C 
ATOM     13  C   UNL     1      13.393  49.371  12.440  0.00  0.00    +0.000 C 
ATOM     14  C   UNL     1      12.526  48.891  13.285  0.00  0.00    +0.000 C 
ATOM     15  C   UNL     1      11.965  47.509  13.061  0.00  0.00    +0.000 C 
ATOM     16  C   UNL     1      12.131  49.777  14.442  0.00  0.00    +0.000 C 
ENDROOT
TORSDOF 0
ENDMDL
MODEL 9
REMARK VINA RESULT:      -5.0     30.584     31.928
REMARK  Name = 5470187_Zerumbone.pdbqt.pdb
REMARK  0 active torsions:
REMARK  status: ('A' for Active; 'I' for Inactive)
REMARK                            x       y       z     vdW  Elec       q    Type
REMARK                         _______ _______ _______ _____ _____    ______ ____
ROOT
ATOM      1  O   UNL     1       3.479  55.742 -12.296  0.00  0.00    +0.000 OA
ATOM      2  C   UNL     1       4.798  56.297  -7.625  0.00  0.00    +0.000 C 
ATOM      3  C   UNL     1       6.249  56.166  -7.349  0.00  0.00    +0.000 C 
ATOM      4  C   UNL     1       4.308  57.708  -7.221  0.00  0.00    +0.000 C 
ATOM      5  C   UNL     1       4.023  55.202  -6.850  0.00  0.00    +0.000 C 
ATOM      6  C   UNL     1       4.626  56.095  -9.099  0.00  0.00    +0.000 C 
ATOM      7  C   UNL     1       7.769  55.963  -7.488  0.00  0.00    +0.000 C 
ATOM      8  C   UNL     1       8.933  55.748  -8.025  0.00  0.00    +0.000 C 
ATOM      9  C   UNL     1       8.818  55.516  -9.419  0.00  0.00    +0.000 C 
ATOM     10  C   UNL     1       8.114  55.378 -10.770  0.00  0.00    +0.000 C 
ATOM     11  C   UNL     1       4.578  55.916 -10.292  0.00  0.00    +0.000 C 
ATOM     12  C   UNL     1      10.154  56.402  -7.468  0.00  0.00    +0.000 C 
ATOM     13  C   UNL     1       6.974  55.361 -11.793  0.00  0.00    +0.000 C 
ATOM     14  C   UNL     1       5.859  55.401 -12.464  0.00  0.00    +0.000 C 
ATOM     15  C   UNL     1       4.569  55.688 -11.738  0.00  0.00    +0.000 C 
ATOM     16  C   UNL     1       5.942  55.139 -13.949  0.00  0.00    +0.000 C 
ENDROOT
TORSDOF 0
ENDMDL
