MODEL 1
REMARK VINA RESULT:      -6.3      0.000      0.000
REMARK  Name = 5azacytidine.pdbqt.pdb
REMARK  5 active torsions:
REMARK  status: ('A' for Active; 'I' for Inactive)
REMARK    1  A    between atoms: C2*_2  and  O2*_16
REMARK    2  A    between atoms: C3*_3  and  O3*_21
REMARK    3  A    between atoms: C4*_4  and  C5*_18
REMARK    4  A    between atoms: C1*_5  and  N_6
REMARK    5  A    between atoms: C5*_18  and  O5*_19
REMARK                            x       y       z     vdW  Elec       q    Type
REMARK                         _______ _______ _______ _____ _____    ______ ____
ROOT
ATOM      1  O4* UNL     1      -0.606  31.199  14.884  0.00  0.00    +0.000 OA
ATOM      2  C2* UNL     1      -0.013  32.979  16.225  0.00  0.00    +0.000 A 
ATOM      3  C3* UNL     1      -1.397  33.112  15.884  0.00  0.00    +0.000 A 
ATOM      4  C4* UNL     1      -1.752  31.993  15.060  0.00  0.00    +0.000 A 
ATOM      5  C1* UNL     1       0.475  31.788  15.573  0.00  0.00    +0.000 A 
ENDROOT
BRANCH   5   6
ATOM      6  N   UNL     1       1.727  31.252  15.514  0.00  0.00    +0.000 N 
ATOM      7  C   UNL     1       2.905  31.897  15.157  0.00  0.00    +0.000 A 
ATOM      8  O   UNL     1       2.955  33.073  14.804  0.00  0.00    +0.000 OA
ATOM      9  N   UNL     1       4.049  31.105  15.206  0.00  0.00    +0.000 NA
ATOM     10  C   UNL     1       3.972  29.848  15.565  0.00  0.00    +0.000 A 
ATOM     11  N   UNL     1       2.791  29.203  15.892  0.00  0.00    +0.000 NA
ATOM     12  C   UNL     1       1.917  29.972  15.825  0.00  0.00    +0.000 A 
ATOM     13  N   UNL     1       5.114  29.116  15.603  0.00  0.00    +0.000 N 
ATOM     14  H   UNL     1       4.978  28.121  15.481  0.00  0.00    +0.000 HD
ATOM     15  H   UNL     1       5.868  29.513  15.055  0.00  0.00    +0.000 HD
ENDBRANCH   5   6
BRANCH   2  16
ATOM     16  O2* UNL     1       0.732  34.097  16.480  0.00  0.00    +0.000 OA
ATOM     17  H2* UNL     1       1.677  33.880  16.642  0.00  0.00    +0.000 HD
ENDBRANCH   2  16
BRANCH   3  18
ATOM     18  O3* UNL     1      -1.971  34.344  15.732  0.00  0.00    +0.000 OA
ATOM     19  H3* UNL     1      -1.509  34.996  16.291  0.00  0.00    +0.000 HD
ENDBRANCH   3  18
BRANCH   4  20
ATOM     20  C5* UNL     1      -2.908  31.837  14.271  0.00  0.00    +0.000 C 
BRANCH  20  21
ATOM     21  O5* UNL     1      -3.997  31.680  13.525  0.00  0.00    +0.000 OA
ATOM     22  H5* UNL     1      -4.763  32.087  13.965  0.00  0.00    +0.000 HD
ENDBRANCH  20  21
ENDBRANCH   4  20
TORSDOF 5
ENDMDL
MODEL 2
REMARK VINA RESULT:      -6.2     10.487     11.696
REMARK  Name = 5azacytidine.pdbqt.pdb
REMARK  5 active torsions:
REMARK  status: ('A' for Active; 'I' for Inactive)
REMARK    1  A    between atoms: C2*_2  and  O2*_16
REMARK    2  A    between atoms: C3*_3  and  O3*_21
REMARK    3  A    between atoms: C4*_4  and  C5*_18
REMARK    4  A    between atoms: C1*_5  and  N_6
REMARK    5  A    between atoms: C5*_18  and  O5*_19
REMARK                            x       y       z     vdW  Elec       q    Type
REMARK                         _______ _______ _______ _____ _____    ______ ____
ROOT
ATOM      1  O4* UNL     1       0.896  42.633  15.467  0.00  0.00    +0.000 OA
ATOM      2  C2* UNL     1       2.040  40.945  16.546  0.00  0.00    +0.000 A 
ATOM      3  C3* UNL     1       0.822  40.403  16.025  0.00  0.00    +0.000 A 
ATOM      4  C4* UNL     1       0.128  41.461  15.348  0.00  0.00    +0.000 A 
ATOM      5  C1* UNL     1       2.062  42.348  16.209  0.00  0.00    +0.000 A 
ENDROOT
BRANCH   5   6
ATOM      6  N   UNL     1       2.954  43.328  16.527  0.00  0.00    +0.000 N 
ATOM      7  C   UNL     1       4.278  43.429  16.116  0.00  0.00    +0.000 A 
ATOM      8  O   UNL     1       4.837  42.590  15.412  0.00  0.00    +0.000 OA
ATOM      9  N   UNL     1       4.954  44.555  16.578  0.00  0.00    +0.000 NA
ATOM     10  C   UNL     1       4.347  45.427  17.344  0.00  0.00    +0.000 A 
ATOM     11  N   UNL     1       3.037  45.305  17.774  0.00  0.00    +0.000 NA
ATOM     12  C   UNL     1       2.583  44.337  17.311  0.00  0.00    +0.000 A 
ATOM     13  N   UNL     1       5.045  46.511  17.767  0.00  0.00    +0.000 N 
ATOM     14  H   UNL     1       4.710  46.913  18.632  0.00  0.00    +0.000 HD
ATOM     15  H   UNL     1       6.050  46.393  17.713  0.00  0.00    +0.000 HD
ENDBRANCH   5   6
BRANCH   2  16
ATOM     16  O2* UNL     1       2.600  40.397  17.667  0.00  0.00    +0.000 OA
ATOM     17  H2* UNL     1       2.035  40.524  18.460  0.00  0.00    +0.000 HD
ENDBRANCH   2  16
BRANCH   3  18
ATOM     18  O3* UNL     1       0.164  39.395  16.672  0.00  0.00    +0.000 OA
ATOM     19  H3* UNL     1      -0.385  39.764  17.389  0.00  0.00    +0.000 HD
ENDBRANCH   3  18
BRANCH   4  20
ATOM     20  C5* UNL     1      -1.214  41.478  14.924  0.00  0.00    +0.000 C 
BRANCH  20  21
ATOM     21  O5* UNL     1      -2.479  41.488  14.515  0.00  0.00    +0.000 OA
ATOM     22  H5* UNL     1      -2.988  42.145  15.022  0.00  0.00    +0.000 HD
ENDBRANCH  20  21
ENDBRANCH   4  20
TORSDOF 5
ENDMDL
MODEL 3
REMARK VINA RESULT:      -6.1     18.559     19.862
REMARK  Name = 5azacytidine.pdbqt.pdb
REMARK  5 active torsions:
REMARK  status: ('A' for Active; 'I' for Inactive)
REMARK    1  A    between atoms: C2*_2  and  O2*_16
REMARK    2  A    between atoms: C3*_3  and  O3*_21
REMARK    3  A    between atoms: C4*_4  and  C5*_18
REMARK    4  A    between atoms: C1*_5  and  N_6
REMARK    5  A    between atoms: C5*_18  and  O5*_19
REMARK                            x       y       z     vdW  Elec       q    Type
REMARK                         _______ _______ _______ _____ _____    ______ ____
ROOT
ATOM      1  O4* UNL     1      13.804  45.185  10.669  0.00  0.00    +0.000 OA
ATOM      2  C2* UNL     1      11.726  45.421   9.696  0.00  0.00    +0.000 A 
ATOM      3  C3* UNL     1      12.513  44.552   8.875  0.00  0.00    +0.000 A 
ATOM      4  C4* UNL     1      13.797  44.407   9.499  0.00  0.00    +0.000 A 
ATOM      5  C1* UNL     1      12.555  45.829  10.804  0.00  0.00    +0.000 A 
ENDROOT
BRANCH   5   6
ATOM      6  N   UNL     1      12.315  46.699  11.825  0.00  0.00    +0.000 N 
ATOM      7  C   UNL     1      11.137  46.847  12.548  0.00  0.00    +0.000 A 
ATOM      8  O   UNL     1      10.115  46.205  12.320  0.00  0.00    +0.000 OA
ATOM      9  N   UNL     1      11.183  47.805  13.558  0.00  0.00    +0.000 NA
ATOM     10  C   UNL     1      12.276  48.494  13.772  0.00  0.00    +0.000 A 
ATOM     11  N   UNL     1      13.436  48.362  13.030  0.00  0.00    +0.000 NA
ATOM     12  C   UNL     1      13.274  47.527  12.232  0.00  0.00    +0.000 A 
ATOM     13  N   UNL     1      12.274  49.413  14.770  0.00  0.00    +0.000 N 
ATOM     14  H   UNL     1      12.937  50.167  14.646  0.00  0.00    +0.000 HD
ATOM     15  H   UNL     1      11.345  49.704  15.052  0.00  0.00    +0.000 HD
ENDBRANCH   5   6
BRANCH   2  16
ATOM     16  O2* UNL     1      10.743  46.184   9.127  0.00  0.00    +0.000 OA
ATOM     17  H2* UNL     1      10.969  46.449   8.209  0.00  0.00    +0.000 HD
ENDBRANCH   2  16
BRANCH   3  18
ATOM     18  O3* UNL     1      12.353  44.527   7.517  0.00  0.00    +0.000 OA
ATOM     19  H3* UNL     1      13.139  44.128   7.099  0.00  0.00    +0.000 HD
ENDBRANCH   3  18
BRANCH   4  20
ATOM     20  C5* UNL     1      14.975  43.882   8.934  0.00  0.00    +0.000 C 
BRANCH  20  21
ATOM     21  O5* UNL     1      16.085  43.391   8.391  0.00  0.00    +0.000 OA
ATOM     22  H5* UNL     1      15.876  42.602   7.862  0.00  0.00    +0.000 HD
ENDBRANCH  20  21
ENDBRANCH   4  20
TORSDOF 5
ENDMDL
MODEL 4
REMARK VINA RESULT:      -5.9     18.436     20.006
REMARK  Name = 5azacytidine.pdbqt.pdb
REMARK  5 active torsions:
REMARK  status: ('A' for Active; 'I' for Inactive)
REMARK    1  A    between atoms: C2*_2  and  O2*_16
REMARK    2  A    between atoms: C3*_3  and  O3*_21
REMARK    3  A    between atoms: C4*_4  and  C5*_18
REMARK    4  A    between atoms: C1*_5  and  N_6
REMARK    5  A    between atoms: C5*_18  and  O5*_19
REMARK                            x       y       z     vdW  Elec       q    Type
REMARK                         _______ _______ _______ _____ _____    ______ ____
ROOT
ATOM      1  O4* UNL     1      12.683  48.584  11.272  0.00  0.00    +0.000 OA
ATOM      2  C2* UNL     1      11.406  47.444  12.818  0.00  0.00    +0.000 A 
ATOM      3  C3* UNL     1      11.567  48.792  13.272  0.00  0.00    +0.000 A 
ATOM      4  C4* UNL     1      12.353  49.490  12.295  0.00  0.00    +0.000 A 
ATOM      5  C1* UNL     1      12.130  47.322  11.576  0.00  0.00    +0.000 A 
ENDROOT
BRANCH   5   6
ATOM      6  N   UNL     1      12.354  46.241  10.776  0.00  0.00    +0.000 N 
ATOM      7  C   UNL     1      11.693  45.912   9.599  0.00  0.00    +0.000 A 
ATOM      8  O   UNL     1      10.763  46.568   9.136  0.00  0.00    +0.000 OA
ATOM      9  N   UNL     1      12.148  44.754   8.973  0.00  0.00    +0.000 NA
ATOM     10  C   UNL     1      13.127  44.058   9.492  0.00  0.00    +0.000 A 
ATOM     11  N   UNL     1      13.762  44.375  10.681  0.00  0.00    +0.000 NA
ATOM     12  C   UNL     1      13.302  45.363  11.095  0.00  0.00    +0.000 A 
ATOM     13  N   UNL     1      13.539  42.939   8.844  0.00  0.00    +0.000 N 
ATOM     14  H   UNL     1      13.972  42.246   9.439  0.00  0.00    +0.000 HD
ATOM     15  H   UNL     1      12.856  42.574   8.191  0.00  0.00    +0.000 HD
ENDBRANCH   5   6
BRANCH   2  16
ATOM     16  O2* UNL     1      11.234  46.438  13.730  0.00  0.00    +0.000 OA
ATOM     17  H2* UNL     1      10.982  46.784  14.614  0.00  0.00    +0.000 HD
ENDBRANCH   2  16
BRANCH   3  18
ATOM     18  O3* UNL     1      11.629  49.085  14.606  0.00  0.00    +0.000 OA
ATOM     19  H3* UNL     1      12.299  49.777  14.762  0.00  0.00    +0.000 HD
ENDBRANCH   3  18
BRANCH   4  20
ATOM     20  C5* UNL     1      12.990  50.737  12.435  0.00  0.00    +0.000 C 
BRANCH  20  21
ATOM     21  O5* UNL     1      13.600  51.912  12.561  0.00  0.00    +0.000 OA
ATOM     22  H5* UNL     1      14.498  51.862  12.189  0.00  0.00    +0.000 HD
ENDBRANCH  20  21
ENDBRANCH   4  20
TORSDOF 5
ENDMDL
MODEL 5
REMARK VINA RESULT:      -5.9     10.520     11.645
REMARK  Name = 5azacytidine.pdbqt.pdb
REMARK  5 active torsions:
REMARK  status: ('A' for Active; 'I' for Inactive)
REMARK    1  A    between atoms: C2*_2  and  O2*_16
REMARK    2  A    between atoms: C3*_3  and  O3*_21
REMARK    3  A    between atoms: C4*_4  and  C5*_18
REMARK    4  A    between atoms: C1*_5  and  N_6
REMARK    5  A    between atoms: C5*_18  and  O5*_19
REMARK                            x       y       z     vdW  Elec       q    Type
REMARK                         _______ _______ _______ _____ _____    ______ ____
ROOT
ATOM      1  O4* UNL     1      -0.026  42.803  17.708  0.00  0.00    +0.000 OA
ATOM      2  C2* UNL     1      -0.009  41.960  15.561  0.00  0.00    +0.000 A 
ATOM      3  C3* UNL     1      -1.239  41.578  16.186  0.00  0.00    +0.000 A 
ATOM      4  C4* UNL     1      -1.239  42.119  17.515  0.00  0.00    +0.000 A 
ATOM      5  C1* UNL     1       0.751  42.707  16.533  0.00  0.00    +0.000 A 
ENDROOT
BRANCH   5   6
ATOM      6  N   UNL     1       2.007  43.232  16.472  0.00  0.00    +0.000 N 
ATOM      7  C   UNL     1       3.199  42.546  16.275  0.00  0.00    +0.000 A 
ATOM      8  O   UNL     1       3.269  41.325  16.158  0.00  0.00    +0.000 OA
ATOM      9  N   UNL     1       4.339  43.345  16.234  0.00  0.00    +0.000 NA
ATOM     10  C   UNL     1       4.246  44.643  16.381  0.00  0.00    +0.000 A 
ATOM     11  N   UNL     1       3.059  45.317  16.607  0.00  0.00    +0.000 NA
ATOM     12  C   UNL     1       2.186  44.544  16.605  0.00  0.00    +0.000 A 
ATOM     13  N   UNL     1       5.384  45.381  16.330  0.00  0.00    +0.000 N 
ATOM     14  H   UNL     1       5.336  46.259  16.831  0.00  0.00    +0.000 HD
ATOM     15  H   UNL     1       6.225  44.842  16.496  0.00  0.00    +0.000 HD
ENDBRANCH   5   6
BRANCH   2  16
ATOM     16  O2* UNL     1       0.528  41.168  14.584  0.00  0.00    +0.000 OA
ATOM     17  H2* UNL     1       1.452  41.424  14.371  0.00  0.00    +0.000 HD
ENDBRANCH   2  16
BRANCH   3  18
ATOM     18  O3* UNL     1      -1.850  40.394  15.879  0.00  0.00    +0.000 OA
ATOM     19  H3* UNL     1      -2.806  40.457  16.064  0.00  0.00    +0.000 HD
ENDBRANCH   3  18
BRANCH   4  20
ATOM     20  C5* UNL     1      -2.095  41.784  18.582  0.00  0.00    +0.000 C 
BRANCH  20  21
ATOM     21  O5* UNL     1      -2.895  41.463  19.593  0.00  0.00    +0.000 OA
ATOM     22  H5* UNL     1      -2.979  42.217  20.203  0.00  0.00    +0.000 HD
ENDBRANCH  20  21
ENDBRANCH   4  20
TORSDOF 5
ENDMDL
MODEL 6
REMARK VINA RESULT:      -5.9     10.454     11.655
REMARK  Name = 5azacytidine.pdbqt.pdb
REMARK  5 active torsions:
REMARK  status: ('A' for Active; 'I' for Inactive)
REMARK    1  A    between atoms: C2*_2  and  O2*_16
REMARK    2  A    between atoms: C3*_3  and  O3*_21
REMARK    3  A    between atoms: C4*_4  and  C5*_18
REMARK    4  A    between atoms: C1*_5  and  N_6
REMARK    5  A    between atoms: C5*_18  and  O5*_19
REMARK                            x       y       z     vdW  Elec       q    Type
REMARK                         _______ _______ _______ _____ _____    ______ ____
ROOT
ATOM      1  O4* UNL     1       0.914  41.638  15.390  0.00  0.00    +0.000 OA
ATOM      2  C2* UNL     1       0.107  42.310  17.444  0.00  0.00    +0.000 A 
ATOM      3  C3* UNL     1      -0.754  41.286  16.933  0.00  0.00    +0.000 A 
ATOM      4  C4* UNL     1      -0.233  40.872  15.662  0.00  0.00    +0.000 A 
ATOM      5  C1* UNL     1       1.134  42.536  16.456  0.00  0.00    +0.000 A 
ENDROOT
BRANCH   5   6
ATOM      6  N   UNL     1       2.150  43.444  16.417  0.00  0.00    +0.000 N 
ATOM      7  C   UNL     1       2.045  44.829  16.462  0.00  0.00    +0.000 A 
ATOM      8  O   UNL     1       0.973  45.428  16.513  0.00  0.00    +0.000 OA
ATOM      9  N   UNL     1       3.258  45.512  16.426  0.00  0.00    +0.000 NA
ATOM     10  C   UNL     1       4.389  44.857  16.352  0.00  0.00    +0.000 A 
ATOM     11  N   UNL     1       4.485  43.478  16.277  0.00  0.00    +0.000 NA
ATOM     12  C   UNL     1       3.411  43.027  16.329  0.00  0.00    +0.000 A 
ATOM     13  N   UNL     1       5.546  45.565  16.324  0.00  0.00    +0.000 N 
ATOM     14  H   UNL     1       6.317  45.091  15.873  0.00  0.00    +0.000 HD
ATOM     15  H   UNL     1       5.422  46.533  16.050  0.00  0.00    +0.000 HD
ENDBRANCH   5   6
BRANCH   2  16
ATOM     16  O2* UNL     1      -0.399  43.262  18.284  0.00  0.00    +0.000 OA
ATOM     17  H2* UNL     1      -0.938  42.868  19.005  0.00  0.00    +0.000 HD
ENDBRANCH   2  16
BRANCH   3  18
ATOM     18  O3* UNL     1      -2.093  41.287  17.209  0.00  0.00    +0.000 OA
ATOM     19  H3* UNL     1      -2.530  42.012  16.724  0.00  0.00    +0.000 HD
ENDBRANCH   3  18
BRANCH   4  20
ATOM     20  C5* UNL     1      -0.879  40.102  14.676  0.00  0.00    +0.000 C 
BRANCH  20  21
ATOM     21  O5* UNL     1      -1.494  39.370  13.752  0.00  0.00    +0.000 OA
ATOM     22  H5* UNL     1      -0.986  38.559  13.577  0.00  0.00    +0.000 HD
ENDBRANCH  20  21
ENDBRANCH   4  20
TORSDOF 5
ENDMDL
MODEL 7
REMARK VINA RESULT:      -5.8      2.139      3.452
REMARK  Name = 5azacytidine.pdbqt.pdb
REMARK  5 active torsions:
REMARK  status: ('A' for Active; 'I' for Inactive)
REMARK    1  A    between atoms: C2*_2  and  O2*_16
REMARK    2  A    between atoms: C3*_3  and  O3*_21
REMARK    3  A    between atoms: C4*_4  and  C5*_18
REMARK    4  A    between atoms: C1*_5  and  N_6
REMARK    5  A    between atoms: C5*_18  and  O5*_19
REMARK                            x       y       z     vdW  Elec       q    Type
REMARK                         _______ _______ _______ _____ _____    ______ ____
ROOT
ATOM      1  O4* UNL     1      -0.454  34.252  16.146  0.00  0.00    +0.000 OA
ATOM      2  C2* UNL     1       1.072  34.789  14.502  0.00  0.00    +0.000 A 
ATOM      3  C3* UNL     1       0.321  35.965  14.822  0.00  0.00    +0.000 A 
ATOM      4  C4* UNL     1      -0.615  35.617  15.853  0.00  0.00    +0.000 A 
ATOM      5  C1* UNL     1       0.560  33.718  15.322  0.00  0.00    +0.000 A 
ENDROOT
BRANCH   5   6
ATOM      6  N   UNL     1       0.875  32.393  15.358  0.00  0.00    +0.000 N 
ATOM      7  C   UNL     1       0.073  31.325  14.973  0.00  0.00    +0.000 A 
ATOM      8  O   UNL     1      -1.080  31.453  14.566  0.00  0.00    +0.000 OA
ATOM      9  N   UNL     1       0.663  30.070  15.097  0.00  0.00    +0.000 NA
ATOM     10  C   UNL     1       1.886  29.953  15.551  0.00  0.00    +0.000 A 
ATOM     11  N   UNL     1       2.669  31.018  15.961  0.00  0.00    +0.000 NA
ATOM     12  C   UNL     1       2.070  32.005  15.796  0.00  0.00    +0.000 A 
ATOM     13  N   UNL     1       2.421  28.710  15.651  0.00  0.00    +0.000 N 
ATOM     14  H   UNL     1       3.149  28.622  16.347  0.00  0.00    +0.000 HD
ATOM     15  H   UNL     1       1.729  27.970  15.662  0.00  0.00    +0.000 HD
ENDBRANCH   5   6
BRANCH   2  16
ATOM     16  O2* UNL     1       1.590  34.638  13.245  0.00  0.00    +0.000 OA
ATOM     17  H2* UNL     1       0.971  34.956  12.552  0.00  0.00    +0.000 HD
ENDBRANCH   2  16
BRANCH   3  18
ATOM     18  O3* UNL     1       0.045  36.908  13.871  0.00  0.00    +0.000 OA
ATOM     19  H3* UNL     1      -0.709  37.456  14.158  0.00  0.00    +0.000 HD
ENDBRANCH   3  18
BRANCH   4  20
ATOM     20  C5* UNL     1      -1.731  36.357  16.288  0.00  0.00    +0.000 C 
BRANCH  20  21
ATOM     21  O5* UNL     1      -2.783  37.062  16.691  0.00  0.00    +0.000 OA
ATOM     22  H5* UNL     1      -3.586  36.514  16.651  0.00  0.00    +0.000 HD
ENDBRANCH  20  21
ENDBRANCH   4  20
TORSDOF 5
ENDMDL
MODEL 8
REMARK VINA RESULT:      -5.8     10.028     11.870
REMARK  Name = 5azacytidine.pdbqt.pdb
REMARK  5 active torsions:
REMARK  status: ('A' for Active; 'I' for Inactive)
REMARK    1  A    between atoms: C2*_2  and  O2*_16
REMARK    2  A    between atoms: C3*_3  and  O3*_21
REMARK    3  A    between atoms: C4*_4  and  C5*_18
REMARK    4  A    between atoms: C1*_5  and  N_6
REMARK    5  A    between atoms: C5*_18  and  O5*_19
REMARK                            x       y       z     vdW  Elec       q    Type
REMARK                         _______ _______ _______ _____ _____    ______ ____
ROOT
ATOM      1  O4* UNL     1       2.328  43.073  15.762  0.00  0.00    +0.000 OA
ATOM      2  C2* UNL     1       0.468  44.115  16.642  0.00  0.00    +0.000 A 
ATOM      3  C3* UNL     1       1.602  44.963  16.852  0.00  0.00    +0.000 A 
ATOM      4  C4* UNL     1       2.747  44.306  16.290  0.00  0.00    +0.000 A 
ATOM      5  C1* UNL     1       0.941  42.924  15.979  0.00  0.00    +0.000 A 
ENDROOT
BRANCH   5   6
ATOM      6  N   UNL     1       0.288  41.783  15.619  0.00  0.00    +0.000 N 
ATOM      7  C   UNL     1       0.415  40.523  16.190  0.00  0.00    +0.000 A 
ATOM      8  O   UNL     1       1.191  40.268  17.109  0.00  0.00    +0.000 OA
ATOM      9  N   UNL     1      -0.396  39.539  15.632  0.00  0.00    +0.000 NA
ATOM     10  C   UNL     1      -1.202  39.825  14.641  0.00  0.00    +0.000 A 
ATOM     11  N   UNL     1      -1.302  41.076  14.056  0.00  0.00    +0.000 NA
ATOM     12  C   UNL     1      -0.589  41.807  14.618  0.00  0.00    +0.000 A 
ATOM     13  N   UNL     1      -1.977  38.834  14.131  0.00  0.00    +0.000 N 
ATOM     14  H   UNL     1      -2.253  38.971  13.168  0.00  0.00    +0.000 HD
ATOM     15  H   UNL     1      -1.641  37.904  14.350  0.00  0.00    +0.000 HD
ENDBRANCH   5   6
BRANCH   2  16
ATOM     16  O2* UNL     1      -0.584  44.163  17.514  0.00  0.00    +0.000 OA
ATOM     17  H2* UNL     1      -1.444  44.025  17.060  0.00  0.00    +0.000 HD
ENDBRANCH   2  16
BRANCH   3  18
ATOM     18  O3* UNL     1       1.689  45.767  17.954  0.00  0.00    +0.000 OA
ATOM     19  H3* UNL     1       1.345  46.655  17.744  0.00  0.00    +0.000 HD
ENDBRANCH   3  18
BRANCH   4  20
ATOM     20  C5* UNL     1       4.105  44.618  16.492  0.00  0.00    +0.000 C 
BRANCH  20  21
ATOM     21  O5* UNL     1       5.390  44.905  16.678  0.00  0.00    +0.000 OA
ATOM     22  H5* UNL     1       5.685  44.569  17.542  0.00  0.00    +0.000 HD
ENDBRANCH  20  21
ENDBRANCH   4  20
TORSDOF 5
ENDMDL
MODEL 9
REMARK VINA RESULT:      -5.7      2.798      5.555
REMARK  Name = 5azacytidine.pdbqt.pdb
REMARK  5 active torsions:
REMARK  status: ('A' for Active; 'I' for Inactive)
REMARK    1  A    between atoms: C2*_2  and  O2*_16
REMARK    2  A    between atoms: C3*_3  and  O3*_21
REMARK    3  A    between atoms: C4*_4  and  C5*_18
REMARK    4  A    between atoms: C1*_5  and  N_6
REMARK    5  A    between atoms: C5*_18  and  O5*_19
REMARK                            x       y       z     vdW  Elec       q    Type
REMARK                         _______ _______ _______ _____ _____    ______ ____
ROOT
ATOM      1  O4* UNL     1       2.151  30.858  15.008  0.00  0.00    +0.000 OA
ATOM      2  C2* UNL     1       2.617  32.521  16.537  0.00  0.00    +0.000 A 
ATOM      3  C3* UNL     1       3.777  31.693  16.403  0.00  0.00    +0.000 A 
ATOM      4  C4* UNL     1       3.475  30.672  15.442  0.00  0.00    +0.000 A 
ATOM      5  C1* UNL     1       1.599  31.973  15.675  0.00  0.00    +0.000 A 
ENDROOT
BRANCH   5   6
ATOM      6  N   UNL     1       0.299  32.337  15.484  0.00  0.00    +0.000 N 
ATOM      7  C   UNL     1      -0.320  33.506  15.909  0.00  0.00    +0.000 A 
ATOM      8  O   UNL     1       0.248  34.376  16.564  0.00  0.00    +0.000 OA
ATOM      9  N   UNL     1      -1.661  33.625  15.553  0.00  0.00    +0.000 NA
ATOM     10  C   UNL     1      -2.255  32.677  14.871  0.00  0.00    +0.000 A 
ATOM     11  N   UNL     1      -1.640  31.501  14.477  0.00  0.00    +0.000 NA
ATOM     12  C   UNL     1      -0.527  31.530  14.821  0.00  0.00    +0.000 A 
ATOM     13  N   UNL     1      -3.562  32.839  14.544  0.00  0.00    +0.000 N 
ATOM     14  H   UNL     1      -4.067  31.975  14.400  0.00  0.00    +0.000 HD
ATOM     15  H   UNL     1      -4.041  33.523  15.117  0.00  0.00    +0.000 HD
ENDBRANCH   5   6
BRANCH   2  16
ATOM     16  O2* UNL     1       2.381  33.171  17.717  0.00  0.00    +0.000 OA
ATOM     17  H2* UNL     1       1.504  32.940  18.094  0.00  0.00    +0.000 HD
ENDBRANCH   2  16
BRANCH   3  18
ATOM     18  O3* UNL     1       4.616  31.477  17.461  0.00  0.00    +0.000 OA
ATOM     19  H3* UNL     1       4.950  32.329  17.798  0.00  0.00    +0.000 HD
ENDBRANCH   3  18
BRANCH   4  20
ATOM     20  C5* UNL     1       4.193  29.487  15.190  0.00  0.00    +0.000 C 
BRANCH  20  21
ATOM     21  O5* UNL     1       4.879  28.374  14.949  0.00  0.00    +0.000 OA
ATOM     22  H5* UNL     1       4.586  27.666  15.548  0.00  0.00    +0.000 HD
ENDBRANCH  20  21
ENDBRANCH   4  20
TORSDOF 5
ENDMDL
