MODEL 1
REMARK VINA RESULT:      -7.8      0.000      0.000
REMARK  Name = 60953_Capecitabine.pdbqt.pdb
REMARK  6 active torsions:
REMARK  status: ('A' for Active; 'I' for Inactive)
REMARK    1  A    between atoms: N_4  and  C_16
REMARK    2  A    between atoms: C_11  and  O_23
REMARK    3  A    between atoms: C_14  and  O_19
REMARK    4  A    between atoms: C_15  and  O_21
REMARK    5  A    between atoms: O_23  and  C_24
REMARK    6  A    between atoms: C_25  and  C_26
REMARK                            x       y       z     vdW  Elec       q    Type
REMARK                         _______ _______ _______ _____ _____    ______ ____
ROOT
ATOM      1  F   UNL     1       5.966  32.993  16.809  0.00  0.00    +0.000 F 
ATOM      2  O   UNL     1      10.555  34.923  14.832  0.00  0.00    +0.000 OA
ATOM      3  O   UNL     1       9.794  30.316  15.056  0.00  0.00    +0.000 OA
ATOM      4  N   UNL     1       8.558  35.333  15.946  0.00  0.00    +0.000 N 
ATOM      5  N   UNL     1       9.316  33.106  15.470  0.00  0.00    +0.000 NA
ATOM      6  N   UNL     1       7.965  31.288  16.116  0.00  0.00    +0.000 N 
ATOM      7  C   UNL     1       7.503  34.727  16.528  0.00  0.00    +0.000 C 
ATOM      8  C   UNL     1       9.548  34.486  15.384  0.00  0.00    +0.000 C 
ATOM      9  C   UNL     1       7.211  33.487  16.710  0.00  0.00    +0.000 C 
ATOM     10  C   UNL     1       8.252  32.636  16.051  0.00  0.00    +0.000 C 
ATOM     11  C   UNL     1       8.710  30.244  15.616  0.00  0.00    +0.000 C 
ATOM     12  H   UNL     1       7.101  31.002  16.554  0.00  0.00    +0.000 HD
ENDROOT
BRANCH   4  16
ATOM     13  O   UNL     1       9.500  37.389  16.810  0.00  0.00    +0.000 OA
ATOM     14  C   UNL     1       7.824  37.693  15.254  0.00  0.00    +0.000 A 
ATOM     15  C   UNL     1       8.242  38.979  15.723  0.00  0.00    +0.000 A 
ATOM     16  C   UNL     1       8.601  36.702  15.963  0.00  0.00    +0.000 A 
ATOM     17  C   UNL     1       9.294  38.771  16.680  0.00  0.00    +0.000 A 
ATOM     18  C   UNL     1       9.924  39.705  17.655  0.00  0.00    +0.000 C 
BRANCH  14  19
ATOM     19  O   UNL     1       6.543  37.522  14.813  0.00  0.00    +0.000 OA
ATOM     20  H   UNL     1       6.330  38.109  14.054  0.00  0.00    +0.000 HD
ENDBRANCH  14  19
BRANCH  15  21
ATOM     21  O   UNL     1       7.366  40.031  15.773  0.00  0.00    +0.000 OA
ATOM     22  H   UNL     1       7.832  40.851  16.026  0.00  0.00    +0.000 HD
ENDBRANCH  15  21
ENDBRANCH   4  16
BRANCH  11  23
ATOM     23  O   UNL     1       8.039  29.078  15.860  0.00  0.00    +0.000 OA
BRANCH  23  24
ATOM     24  C   UNL     1       6.712  29.145  15.773  0.00  0.00    +0.000 C 
ATOM     25  C   UNL     1       5.185  29.220  15.674  0.00  0.00    +0.000 C 
BRANCH  25  26
ATOM     26  C   UNL     1       3.659  29.293  15.577  0.00  0.00    +0.000 C 
ATOM     27  C   UNL     1       2.132  29.371  15.485  0.00  0.00    +0.000 C 
ATOM     28  C   UNL     1       0.605  29.460  15.398  0.00  0.00    +0.000 C 
ENDBRANCH  25  26
ENDBRANCH  23  24
ENDBRANCH  11  23
TORSDOF 6
ENDMDL
MODEL 2
REMARK VINA RESULT:      -7.2      3.961      7.683
REMARK  Name = 60953_Capecitabine.pdbqt.pdb
REMARK  6 active torsions:
REMARK  status: ('A' for Active; 'I' for Inactive)
REMARK    1  A    between atoms: N_4  and  C_16
REMARK    2  A    between atoms: C_11  and  O_23
REMARK    3  A    between atoms: C_14  and  O_19
REMARK    4  A    between atoms: C_15  and  O_21
REMARK    5  A    between atoms: O_23  and  C_24
REMARK    6  A    between atoms: C_25  and  C_26
REMARK                            x       y       z     vdW  Elec       q    Type
REMARK                         _______ _______ _______ _____ _____    ______ ____
ROOT
ATOM      1  F   UNL     1       6.105  33.703  16.794  0.00  0.00    +0.000 F 
ATOM      2  O   UNL     1       2.762  29.836  15.190  0.00  0.00    +0.000 OA
ATOM      3  O   UNL     1       7.330  28.989  15.712  0.00  0.00    +0.000 OA
ATOM      4  N   UNL     1       3.102  32.088  15.645  0.00  0.00    +0.000 N 
ATOM      5  N   UNL     1       4.911  30.513  15.597  0.00  0.00    +0.000 NA
ATOM      6  N   UNL     1       7.089  31.275  16.074  0.00  0.00    +0.000 N 
ATOM      7  C   UNL     1       4.054  33.001  15.925  0.00  0.00    +0.000 C 
ATOM      8  C   UNL     1       3.538  30.752  15.453  0.00  0.00    +0.000 C 
ATOM      9  C   UNL     1       5.333  32.910  16.030  0.00  0.00    +0.000 C 
ATOM     10  C   UNL     1       5.738  31.476  15.879  0.00  0.00    +0.000 C 
ATOM     11  C   UNL     1       7.781  30.086  16.005  0.00  0.00    +0.000 C 
ATOM     12  H   UNL     1       7.662  32.069  16.324  0.00  0.00    +0.000 HD
ENDROOT
BRANCH   4  16
ATOM     13  O   UNL     1       1.514  33.865  15.219  0.00  0.00    +0.000 OA
ATOM     14  C   UNL     1       0.550  31.842  15.762  0.00  0.00    +0.000 A 
ATOM     15  C   UNL     1      -0.493  32.808  15.601  0.00  0.00    +0.000 A 
ATOM     16  C   UNL     1       1.806  32.523  15.547  0.00  0.00    +0.000 A 
ATOM     17  C   UNL     1       0.125  34.058  15.251  0.00  0.00    +0.000 A 
ATOM     18  C   UNL     1      -0.430  35.440  15.204  0.00  0.00    +0.000 C 
BRANCH  14  19
ATOM     19  O   UNL     1       0.361  30.784  16.606  0.00  0.00    +0.000 OA
ATOM     20  H   UNL     1      -0.576  30.488  16.626  0.00  0.00    +0.000 HD
ENDBRANCH  14  19
BRANCH  15  21
ATOM     21  O   UNL     1      -1.662  32.711  16.308  0.00  0.00    +0.000 OA
ATOM     22  H   UNL     1      -1.542  33.052  17.214  0.00  0.00    +0.000 HD
ENDBRANCH  15  21
ENDBRANCH   4  16
BRANCH  11  23
ATOM     23  O   UNL     1       9.091  30.331  16.310  0.00  0.00    +0.000 OA
BRANCH  23  24
ATOM     24  C   UNL     1       9.527  31.560  16.043  0.00  0.00    +0.000 C 
ATOM     25  C   UNL     1      10.029  32.975  15.734  0.00  0.00    +0.000 C 
BRANCH  25  26
ATOM     26  C   UNL     1      10.530  34.388  15.423  0.00  0.00    +0.000 C 
ATOM     27  C   UNL     1      11.035  35.799  15.106  0.00  0.00    +0.000 C 
ATOM     28  C   UNL     1      11.540  37.208  14.776  0.00  0.00    +0.000 C 
ENDBRANCH  25  26
ENDBRANCH  23  24
ENDBRANCH  11  23
TORSDOF 6
ENDMDL
MODEL 3
REMARK VINA RESULT:      -7.1      1.323      2.111
REMARK  Name = 60953_Capecitabine.pdbqt.pdb
REMARK  6 active torsions:
REMARK  status: ('A' for Active; 'I' for Inactive)
REMARK    1  A    between atoms: N_4  and  C_16
REMARK    2  A    between atoms: C_11  and  O_23
REMARK    3  A    between atoms: C_14  and  O_19
REMARK    4  A    between atoms: C_15  and  O_21
REMARK    5  A    between atoms: O_23  and  C_24
REMARK    6  A    between atoms: C_25  and  C_26
REMARK                            x       y       z     vdW  Elec       q    Type
REMARK                         _______ _______ _______ _____ _____    ______ ____
ROOT
ATOM      1  F   UNL     1       5.293  33.120  16.687  0.00  0.00    +0.000 F 
ATOM      2  O   UNL     1      10.440  33.807  15.370  0.00  0.00    +0.000 OA
ATOM      3  O   UNL     1       8.424  29.602  15.038  0.00  0.00    +0.000 OA
ATOM      4  N   UNL     1       8.512  34.684  16.325  0.00  0.00    +0.000 N 
ATOM      5  N   UNL     1       8.683  32.375  15.694  0.00  0.00    +0.000 NA
ATOM      6  N   UNL     1       6.817  30.973  16.014  0.00  0.00    +0.000 N 
ATOM      7  C   UNL     1       7.269  34.362  16.737  0.00  0.00    +0.000 C 
ATOM      8  C   UNL     1       9.292  33.634  15.775  0.00  0.00    +0.000 C 
ATOM      9  C   UNL     1       6.629  33.246  16.759  0.00  0.00    +0.000 C 
ATOM     10  C   UNL     1       7.468  32.185  16.118  0.00  0.00    +0.000 C 
ATOM     11  C   UNL     1       7.302  29.800  15.480  0.00  0.00    +0.000 C 
ATOM     12  H   UNL     1       5.860  30.913  16.334  0.00  0.00    +0.000 HD
ENDROOT
BRANCH   4  16
ATOM     13  O   UNL     1       8.179  37.053  15.955  0.00  0.00    +0.000 OA
ATOM     14  C   UNL     1      10.099  36.536  17.124  0.00  0.00    +0.000 A 
ATOM     15  C   UNL     1      10.061  37.953  16.924  0.00  0.00    +0.000 A 
ATOM     16  C   UNL     1       8.927  35.980  16.489  0.00  0.00    +0.000 A 
ATOM     17  C   UNL     1       8.854  38.258  16.206  0.00  0.00    +0.000 A 
ATOM     18  C   UNL     1       8.416  39.506  15.521  0.00  0.00    +0.000 C 
BRANCH  14  19
ATOM     19  O   UNL     1      11.305  35.906  17.243  0.00  0.00    +0.000 OA
ATOM     20  H   UNL     1      11.761  35.811  16.377  0.00  0.00    +0.000 HD
ENDBRANCH  14  19
BRANCH  15  21
ATOM     21  O   UNL     1      11.216  38.681  16.811  0.00  0.00    +0.000 OA
ATOM     22  H   UNL     1      11.995  38.094  16.851  0.00  0.00    +0.000 HD
ENDBRANCH  15  21
ENDBRANCH   4  16
BRANCH  11  23
ATOM     23  O   UNL     1       6.313  28.859  15.537  0.00  0.00    +0.000 OA
BRANCH  23  24
ATOM     24  C   UNL     1       5.077  29.326  15.700  0.00  0.00    +0.000 C 
ATOM     25  C   UNL     1       3.655  29.866  15.890  0.00  0.00    +0.000 C 
BRANCH  25  26
ATOM     26  C   UNL     1       2.235  30.405  16.082  0.00  0.00    +0.000 C 
ATOM     27  C   UNL     1       0.812  30.937  16.275  0.00  0.00    +0.000 C 
ATOM     28  C   UNL     1      -0.614  31.459  16.477  0.00  0.00    +0.000 C 
ENDBRANCH  25  26
ENDBRANCH  23  24
ENDBRANCH  11  23
TORSDOF 6
ENDMDL
MODEL 4
REMARK VINA RESULT:      -7.0     14.196     16.536
REMARK  Name = 60953_Capecitabine.pdbqt.pdb
REMARK  6 active torsions:
REMARK  status: ('A' for Active; 'I' for Inactive)
REMARK    1  A    between atoms: N_4  and  C_16
REMARK    2  A    between atoms: C_11  and  O_23
REMARK    3  A    between atoms: C_14  and  O_19
REMARK    4  A    between atoms: C_15  and  O_21
REMARK    5  A    between atoms: O_23  and  C_24
REMARK    6  A    between atoms: C_25  and  C_26
REMARK                            x       y       z     vdW  Elec       q    Type
REMARK                         _______ _______ _______ _____ _____    ______ ____
ROOT
ATOM      1  F   UNL     1      15.209  47.134   9.562  0.00  0.00    +0.000 F 
ATOM      2  O   UNL     1      10.164  46.030  10.984  0.00  0.00    +0.000 OA
ATOM      3  O   UNL     1      12.829  42.798   8.909  0.00  0.00    +0.000 OA
ATOM      4  N   UNL     1      11.835  47.620  10.710  0.00  0.00    +0.000 N 
ATOM      5  N   UNL     1      12.083  45.366   9.927  0.00  0.00    +0.000 NA
ATOM      6  N   UNL     1      14.106  44.743   8.892  0.00  0.00    +0.000 N 
ATOM      7  C   UNL     1      13.068  47.813  10.201  0.00  0.00    +0.000 C 
ATOM      8  C   UNL     1      11.281  46.322  10.564  0.00  0.00    +0.000 C 
ATOM      9  C   UNL     1      13.869  47.036   9.560  0.00  0.00    +0.000 C 
ATOM     10  C   UNL     1      13.268  45.666   9.483  0.00  0.00    +0.000 C 
ATOM     11  C   UNL     1      13.860  43.407   8.666  0.00  0.00    +0.000 C 
ATOM     12  H   UNL     1      15.026  45.045   8.603  0.00  0.00    +0.000 HD
ENDROOT
BRANCH   4  16
ATOM     13  O   UNL     1      11.725  49.264  12.484  0.00  0.00    +0.000 OA
ATOM     14  C   UNL     1      10.001  49.399  10.958  0.00  0.00    +0.000 A 
ATOM     15  C   UNL     1       9.778  50.379  11.977  0.00  0.00    +0.000 A 
ATOM     16  C   UNL     1      11.211  48.688  11.301  0.00  0.00    +0.000 A 
ATOM     17  C   UNL     1      10.867  50.289  12.911  0.00  0.00    +0.000 A 
ATOM     18  C   UNL     1      11.037  50.875  14.270  0.00  0.00    +0.000 C 
BRANCH  14  19
ATOM     19  O   UNL     1       8.933  48.864  10.294  0.00  0.00    +0.000 OA
ATOM     20  H   UNL     1       9.132  48.696   9.346  0.00  0.00    +0.000 HD
ENDBRANCH  14  19
BRANCH  15  21
ATOM     21  O   UNL     1       8.509  50.760  12.324  0.00  0.00    +0.000 OA
ATOM     22  H   UNL     1       7.963  49.978  12.533  0.00  0.00    +0.000 HD
ENDBRANCH  15  21
ENDBRANCH   4  16
BRANCH  11  23
ATOM     23  O   UNL     1      14.973  42.853   8.099  0.00  0.00    +0.000 OA
BRANCH  23  24
ATOM     24  C   UNL     1      15.987  43.688   7.878  0.00  0.00    +0.000 C 
ATOM     25  C   UNL     1      17.154  44.647   7.624  0.00  0.00    +0.000 C 
BRANCH  25  26
ATOM     26  C   UNL     1      18.322  45.605   7.373  0.00  0.00    +0.000 C 
ATOM     27  C   UNL     1      19.490  46.561   7.114  0.00  0.00    +0.000 C 
ATOM     28  C   UNL     1      20.656  47.518   6.842  0.00  0.00    +0.000 C 
ENDBRANCH  25  26
ENDBRANCH  23  24
ENDBRANCH  11  23
TORSDOF 6
ENDMDL
MODEL 5
REMARK VINA RESULT:      -6.6     14.990     17.676
REMARK  Name = 60953_Capecitabine.pdbqt.pdb
REMARK  6 active torsions:
REMARK  status: ('A' for Active; 'I' for Inactive)
REMARK    1  A    between atoms: N_4  and  C_16
REMARK    2  A    between atoms: C_11  and  O_23
REMARK    3  A    between atoms: C_14  and  O_19
REMARK    4  A    between atoms: C_15  and  O_21
REMARK    5  A    between atoms: O_23  and  C_24
REMARK    6  A    between atoms: C_25  and  C_26
REMARK                            x       y       z     vdW  Elec       q    Type
REMARK                         _______ _______ _______ _____ _____    ______ ____
ROOT
ATOM      1  F   UNL     1      16.058  48.287   8.352  0.00  0.00    +0.000 F 
ATOM      2  O   UNL     1      13.759  44.491  11.353  0.00  0.00    +0.000 OA
ATOM      3  O   UNL     1      17.155  43.420   8.323  0.00  0.00    +0.000 OA
ATOM      4  N   UNL     1      13.755  46.692  10.609  0.00  0.00    +0.000 N 
ATOM      5  N   UNL     1      15.214  45.034   9.670  0.00  0.00    +0.000 NA
ATOM      6  N   UNL     1      16.716  45.678   7.974  0.00  0.00    +0.000 N 
ATOM      7  C   UNL     1      14.323  47.531   9.719  0.00  0.00    +0.000 C 
ATOM      8  C   UNL     1      14.206  45.347  10.592  0.00  0.00    +0.000 C 
ATOM      9  C   UNL     1      15.207  47.349   8.803  0.00  0.00    +0.000 C 
ATOM     10  C   UNL     1      15.694  45.934   8.864  0.00  0.00    +0.000 C 
ATOM     11  C   UNL     1      17.381  44.488   7.776  0.00  0.00    +0.000 C 
ATOM     12  H   UNL     1      17.059  46.439   7.404  0.00  0.00    +0.000 HD
ENDROOT
BRANCH   4  16
ATOM     13  O   UNL     1      11.705  47.944  10.910  0.00  0.00    +0.000 OA
ATOM     14  C   UNL     1      12.623  47.141  12.868  0.00  0.00    +0.000 A 
ATOM     15  C   UNL     1      11.461  47.909  13.197  0.00  0.00    +0.000 A 
ATOM     16  C   UNL     1      12.781  47.193  11.433  0.00  0.00    +0.000 A 
ATOM     17  C   UNL     1      10.895  48.389  11.967  0.00  0.00    +0.000 A 
ATOM     18  C   UNL     1       9.849  49.418  11.710  0.00  0.00    +0.000 C 
BRANCH  14  19
ATOM     19  O   UNL     1      13.644  47.047  13.771  0.00  0.00    +0.000 OA
ATOM     20  H   UNL     1      13.924  47.928  14.108  0.00  0.00    +0.000 HD
ENDBRANCH  14  19
BRANCH  15  21
ATOM     21  O   UNL     1      11.373  48.582  14.387  0.00  0.00    +0.000 OA
ATOM     22  H   UNL     1      11.766  48.053  15.108  0.00  0.00    +0.000 HD
ENDBRANCH  15  21
ENDBRANCH   4  16
BRANCH  11  23
ATOM     23  O   UNL     1      18.351  44.687   6.833  0.00  0.00    +0.000 OA
BRANCH  23  24
ATOM     24  C   UNL     1      18.217  45.782   6.087  0.00  0.00    +0.000 C 
ATOM     25  C   UNL     1      18.060  47.040   5.226  0.00  0.00    +0.000 C 
BRANCH  25  26
ATOM     26  C   UNL     1      17.903  48.296   4.365  0.00  0.00    +0.000 C 
ATOM     27  C   UNL     1      17.745  49.557   3.510  0.00  0.00    +0.000 C 
ATOM     28  C   UNL     1      17.592  50.826   2.664  0.00  0.00    +0.000 C 
ENDBRANCH  25  26
ENDBRANCH  23  24
ENDBRANCH  11  23
TORSDOF 6
ENDMDL
MODEL 6
REMARK VINA RESULT:      -6.6     11.591     13.812
REMARK  Name = 60953_Capecitabine.pdbqt.pdb
REMARK  6 active torsions:
REMARK  status: ('A' for Active; 'I' for Inactive)
REMARK    1  A    between atoms: N_4  and  C_16
REMARK    2  A    between atoms: C_11  and  O_23
REMARK    3  A    between atoms: C_14  and  O_19
REMARK    4  A    between atoms: C_15  and  O_21
REMARK    5  A    between atoms: O_23  and  C_24
REMARK    6  A    between atoms: C_25  and  C_26
REMARK                            x       y       z     vdW  Elec       q    Type
REMARK                         _______ _______ _______ _____ _____    ______ ____
ROOT
ATOM      1  F   UNL     1      -2.447  42.761  14.894  0.00  0.00    +0.000 F 
ATOM      2  O   UNL     1       1.121  42.350  18.869  0.00  0.00    +0.000 OA
ATOM      3  O   UNL     1      -3.357  41.191  19.542  0.00  0.00    +0.000 OA
ATOM      4  N   UNL     1       0.632  43.098  16.725  0.00  0.00    +0.000 N 
ATOM      5  N   UNL     1      -1.059  42.219  18.183  0.00  0.00    +0.000 NA
ATOM      6  N   UNL     1      -3.272  42.070  17.389  0.00  0.00    +0.000 N 
ATOM      7  C   UNL     1      -0.376  43.270  15.846  0.00  0.00    +0.000 C 
ATOM      8  C   UNL     1       0.289  42.549  17.987  0.00  0.00    +0.000 C 
ATOM      9  C   UNL     1      -1.641  43.055  15.930  0.00  0.00    +0.000 C 
ATOM     10  C   UNL     1      -1.945  42.423  17.253  0.00  0.00    +0.000 C 
ATOM     11  C   UNL     1      -3.878  41.476  18.474  0.00  0.00    +0.000 C 
ATOM     12  H   UNL     1      -3.894  42.229  16.609  0.00  0.00    +0.000 HD
ENDROOT
BRANCH   4  16
ATOM     13  O   UNL     1       2.116  44.756  15.772  0.00  0.00    +0.000 OA
ATOM     14  C   UNL     1       3.155  42.785  16.368  0.00  0.00    +0.000 A 
ATOM     15  C   UNL     1       4.129  43.643  15.766  0.00  0.00    +0.000 A 
ATOM     16  C   UNL     1       1.890  43.484  16.342  0.00  0.00    +0.000 A 
ATOM     17  C   UNL     1       3.468  44.870  15.413  0.00  0.00    +0.000 A 
ATOM     18  C   UNL     1       3.911  46.004  14.554  0.00  0.00    +0.000 C 
BRANCH  14  19
ATOM     19  O   UNL     1       3.308  41.430  16.284  0.00  0.00    +0.000 OA
ATOM     20  H   UNL     1       4.100  41.179  15.757  0.00  0.00    +0.000 HD
ENDBRANCH  14  19
BRANCH  15  21
ATOM     21  O   UNL     1       5.193  43.127  15.073  0.00  0.00    +0.000 OA
ATOM     22  H   UNL     1       5.481  43.749  14.378  0.00  0.00    +0.000 HD
ENDBRANCH  15  21
ENDBRANCH   4  16
BRANCH  11  23
ATOM     23  O   UNL     1      -5.193  41.261  18.170  0.00  0.00    +0.000 OA
BRANCH  23  24
ATOM     24  C   UNL     1      -6.076  41.768  19.028  0.00  0.00    +0.000 C 
ATOM     25  C   UNL     1      -7.093  42.352  20.014  0.00  0.00    +0.000 C 
BRANCH  25  26
ATOM     26  C   UNL     1      -8.110  42.938  20.998  0.00  0.00    +0.000 C 
ATOM     27  C   UNL     1      -9.131  43.518  21.979  0.00  0.00    +0.000 C 
ATOM     28  C   UNL     1     -10.160  44.088  22.963  0.00  0.00    +0.000 C 
ENDBRANCH  25  26
ENDBRANCH  23  24
ENDBRANCH  11  23
TORSDOF 6
ENDMDL
MODEL 7
REMARK VINA RESULT:      -6.5     10.801     12.982
REMARK  Name = 60953_Capecitabine.pdbqt.pdb
REMARK  6 active torsions:
REMARK  status: ('A' for Active; 'I' for Inactive)
REMARK    1  A    between atoms: N_4  and  C_16
REMARK    2  A    between atoms: C_11  and  O_23
REMARK    3  A    between atoms: C_14  and  O_19
REMARK    4  A    between atoms: C_15  and  O_21
REMARK    5  A    between atoms: O_23  and  C_24
REMARK    6  A    between atoms: C_25  and  C_26
REMARK                            x       y       z     vdW  Elec       q    Type
REMARK                         _______ _______ _______ _____ _____    ______ ____
ROOT
ATOM      1  F   UNL     1      -2.292  42.536  14.622  0.00  0.00    +0.000 F 
ATOM      2  O   UNL     1       0.872  42.357  18.941  0.00  0.00    +0.000 OA
ATOM      3  O   UNL     1      -3.668  41.287  19.252  0.00  0.00    +0.000 OA
ATOM      4  N   UNL     1       0.602  42.964  16.715  0.00  0.00    +0.000 N 
ATOM      5  N   UNL     1      -1.234  42.200  18.057  0.00  0.00    +0.000 NA
ATOM      6  N   UNL     1      -3.363  42.020  17.065  0.00  0.00    +0.000 N 
ATOM      7  C   UNL     1      -0.314  43.087  15.733  0.00  0.00    +0.000 C 
ATOM      8  C   UNL     1       0.131  42.504  17.972  0.00  0.00    +0.000 C 
ATOM      9  C   UNL     1      -1.585  42.890  15.709  0.00  0.00    +0.000 C 
ATOM     10  C   UNL     1      -2.024  42.350  17.035  0.00  0.00    +0.000 C 
ATOM     11  C   UNL     1      -4.080  41.505  18.122  0.00  0.00    +0.000 C 
ATOM     12  H   UNL     1      -3.905  42.133  16.219  0.00  0.00    +0.000 HD
ENDROOT
BRANCH   4  16
ATOM     13  O   UNL     1       2.201  44.563  15.851  0.00  0.00    +0.000 OA
ATOM     14  C   UNL     1       3.138  42.587  16.583  0.00  0.00    +0.000 A 
ATOM     15  C   UNL     1       4.180  43.406  16.044  0.00  0.00    +0.000 A 
ATOM     16  C   UNL     1       1.897  43.312  16.431  0.00  0.00    +0.000 A 
ATOM     17  C   UNL     1       3.581  44.637  15.605  0.00  0.00    +0.000 A 
ATOM     18  C   UNL     1       4.122  45.738  14.759  0.00  0.00    +0.000 C 
BRANCH  14  19
ATOM     19  O   UNL     1       3.265  41.227  16.547  0.00  0.00    +0.000 OA
ATOM     20  H   UNL     1       2.488  40.793  16.130  0.00  0.00    +0.000 HD
ENDBRANCH  14  19
BRANCH  15  21
ATOM     21  O   UNL     1       5.286  42.849  15.458  0.00  0.00    +0.000 OA
ATOM     22  H   UNL     1       5.278  41.879  15.569  0.00  0.00    +0.000 HD
ENDBRANCH  15  21
ENDBRANCH   4  16
BRANCH  11  23
ATOM     23  O   UNL     1      -5.363  41.283  17.707  0.00  0.00    +0.000 OA
BRANCH  23  24
ATOM     24  C   UNL     1      -5.553  41.283  16.390  0.00  0.00    +0.000 C 
ATOM     25  C   UNL     1      -5.770  41.281  14.873  0.00  0.00    +0.000 C 
BRANCH  25  26
ATOM     26  C   UNL     1      -5.986  41.279  13.357  0.00  0.00    +0.000 C 
ATOM     27  C   UNL     1      -6.197  41.270  11.840  0.00  0.00    +0.000 C 
ATOM     28  C   UNL     1      -6.405  41.249  10.322  0.00  0.00    +0.000 C 
ENDBRANCH  25  26
ENDBRANCH  23  24
ENDBRANCH  11  23
TORSDOF 6
ENDMDL
MODEL 8
REMARK VINA RESULT:      -6.5      5.337      8.435
REMARK  Name = 60953_Capecitabine.pdbqt.pdb
REMARK  6 active torsions:
REMARK  status: ('A' for Active; 'I' for Inactive)
REMARK    1  A    between atoms: N_4  and  C_16
REMARK    2  A    between atoms: C_11  and  O_23
REMARK    3  A    between atoms: C_14  and  O_19
REMARK    4  A    between atoms: C_15  and  O_21
REMARK    5  A    between atoms: O_23  and  C_24
REMARK    6  A    between atoms: C_25  and  C_26
REMARK                            x       y       z     vdW  Elec       q    Type
REMARK                         _______ _______ _______ _____ _____    ______ ____
ROOT
ATOM      1  F   UNL     1       8.620  30.839  16.628  0.00  0.00    +0.000 F 
ATOM      2  O   UNL     1       4.916  27.556  14.579  0.00  0.00    +0.000 OA
ATOM      3  O   UNL     1       9.452  26.435  14.436  0.00  0.00    +0.000 OA
ATOM      4  N   UNL     1       5.432  29.638  15.471  0.00  0.00    +0.000 N 
ATOM      5  N   UNL     1       7.130  28.041  14.901  0.00  0.00    +0.000 NA
ATOM      6  N   UNL     1       9.384  28.592  15.305  0.00  0.00    +0.000 N 
ATOM      7  C   UNL     1       6.460  30.428  15.842  0.00  0.00    +0.000 C 
ATOM      8  C   UNL     1       5.766  28.361  14.952  0.00  0.00    +0.000 C 
ATOM      9  C   UNL     1       7.736  30.265  15.795  0.00  0.00    +0.000 C 
ATOM     10  C   UNL     1       8.036  28.885  15.297  0.00  0.00    +0.000 C 
ATOM     11  C   UNL     1       9.993  27.421  14.912  0.00  0.00    +0.000 C 
ATOM     12  H   UNL     1      10.025  29.288  15.660  0.00  0.00    +0.000 HD
ENDROOT
BRANCH   4  16
ATOM     13  O   UNL     1       3.054  29.266  15.730  0.00  0.00    +0.000 OA
ATOM     14  C   UNL     1       3.659  31.489  15.605  0.00  0.00    +0.000 A 
ATOM     15  C   UNL     1       2.233  31.415  15.691  0.00  0.00    +0.000 A 
ATOM     16  C   UNL     1       4.162  30.134  15.602  0.00  0.00    +0.000 A 
ATOM     17  C   UNL     1       1.875  30.026  15.781  0.00  0.00    +0.000 A 
ATOM     18  C   UNL     1       0.555  29.347  15.647  0.00  0.00    +0.000 C 
BRANCH  14  19
ATOM     19  O   UNL     1       4.240  32.546  14.962  0.00  0.00    +0.000 OA
ATOM     20  H   UNL     1       5.221  32.480  14.952  0.00  0.00    +0.000 HD
ENDBRANCH  14  19
BRANCH  15  21
ATOM     21  O   UNL     1       1.439  32.367  15.107  0.00  0.00    +0.000 OA
ATOM     22  H   UNL     1       1.761  32.575  14.209  0.00  0.00    +0.000 HD
ENDBRANCH  15  21
ENDBRANCH   4  16
BRANCH  11  23
ATOM     23  O   UNL     1      11.338  27.541  15.126  0.00  0.00    +0.000 OA
BRANCH  23  24
ATOM     24  C   UNL     1      12.095  27.611  14.033  0.00  0.00    +0.000 C 
ATOM     25  C   UNL     1      12.968  27.693  12.777  0.00  0.00    +0.000 C 
BRANCH  25  26
ATOM     26  C   UNL     1      13.841  27.776  11.522  0.00  0.00    +0.000 C 
ATOM     27  C   UNL     1      14.710  27.855  10.263  0.00  0.00    +0.000 C 
ATOM     28  C   UNL     1      15.570  27.930   8.997  0.00  0.00    +0.000 C 
ENDBRANCH  25  26
ENDBRANCH  23  24
ENDBRANCH  11  23
TORSDOF 6
ENDMDL
MODEL 9
REMARK VINA RESULT:      -6.4      2.935      4.475
REMARK  Name = 60953_Capecitabine.pdbqt.pdb
REMARK  6 active torsions:
REMARK  status: ('A' for Active; 'I' for Inactive)
REMARK    1  A    between atoms: N_4  and  C_16
REMARK    2  A    between atoms: C_11  and  O_23
REMARK    3  A    between atoms: C_14  and  O_19
REMARK    4  A    between atoms: C_15  and  O_21
REMARK    5  A    between atoms: O_23  and  C_24
REMARK    6  A    between atoms: C_25  and  C_26
REMARK                            x       y       z     vdW  Elec       q    Type
REMARK                         _______ _______ _______ _____ _____    ______ ____
ROOT
ATOM      1  F   UNL     1       8.063  30.559  15.172  0.00  0.00    +0.000 F 
ATOM      2  O   UNL     1       7.681  35.474  17.268  0.00  0.00    +0.000 OA
ATOM      3  O   UNL     1       3.886  32.797  16.735  0.00  0.00    +0.000 OA
ATOM      4  N   UNL     1       8.986  33.885  16.187  0.00  0.00    +0.000 N 
ATOM      5  N   UNL     1       6.626  33.589  16.510  0.00  0.00    +0.000 NA
ATOM      6  N   UNL     1       5.620  31.601  15.745  0.00  0.00    +0.000 N 
ATOM      7  C   UNL     1       8.936  32.688  15.567  0.00  0.00    +0.000 C 
ATOM      8  C   UNL     1       7.760  34.393  16.689  0.00  0.00    +0.000 C 
ATOM      9  C   UNL     1       7.960  31.893  15.302  0.00  0.00    +0.000 C 
ATOM     10  C   UNL     1       6.702  32.442  15.901  0.00  0.00    +0.000 C 
ATOM     11  C   UNL     1       4.327  31.805  16.174  0.00  0.00    +0.000 C 
ATOM     12  H   UNL     1       5.765  30.710  15.291  0.00  0.00    +0.000 HD
ENDROOT
BRANCH   4  16
ATOM     13  O   UNL     1      10.421  35.739  15.588  0.00  0.00    +0.000 OA
ATOM     14  C   UNL     1      11.430  34.151  16.922  0.00  0.00    +0.000 A 
ATOM     15  C   UNL     1      12.403  35.148  16.595  0.00  0.00    +0.000 A 
ATOM     16  C   UNL     1      10.198  34.518  16.263  0.00  0.00    +0.000 A 
ATOM     17  C   UNL     1      11.755  36.135  15.776  0.00  0.00    +0.000 A 
ATOM     18  C   UNL     1      12.318  37.244  14.955  0.00  0.00    +0.000 C 
BRANCH  14  19
ATOM     19  O   UNL     1      11.838  32.872  17.175  0.00  0.00    +0.000 OA
ATOM     20  H   UNL     1      11.634  32.263  16.430  0.00  0.00    +0.000 HD
ENDBRANCH  14  19
BRANCH  15  21
ATOM     21  O   UNL     1      13.733  34.832  16.494  0.00  0.00    +0.000 OA
ATOM     22  H   UNL     1      14.166  35.390  15.820  0.00  0.00    +0.000 HD
ENDBRANCH  15  21
ENDBRANCH   4  16
BRANCH  11  23
ATOM     23  O   UNL     1       3.587  30.702  15.852  0.00  0.00    +0.000 OA
BRANCH  23  24
ATOM     24  C   UNL     1       2.323  30.934  15.502  0.00  0.00    +0.000 C 
ATOM     25  C   UNL     1       0.869  31.203  15.102  0.00  0.00    +0.000 C 
BRANCH  25  26
ATOM     26  C   UNL     1      -0.585  31.471  14.704  0.00  0.00    +0.000 C 
ATOM     27  C   UNL     1      -2.040  31.744  14.310  0.00  0.00    +0.000 C 
ATOM     28  C   UNL     1      -3.495  32.029  13.922  0.00  0.00    +0.000 C 
ENDBRANCH  25  26
ENDBRANCH  23  24
ENDBRANCH  11  23
TORSDOF 6
ENDMDL
