MODEL 1
REMARK VINA RESULT:      -6.3      0.000      0.000
REMARK  Name = 6223_Gliotoxin.pdbqt.pdb
REMARK  3 active torsions:
REMARK  status: ('A' for Active; 'I' for Inactive)
REMARK    1  A    between atoms: C_10  and  C_21
REMARK    2  A    between atoms: C_14  and  O_19
REMARK    3  A    between atoms: C_21  and  O_22
REMARK                            x       y       z     vdW  Elec       q    Type
REMARK                         _______ _______ _______ _____ _____    ______ ____
ROOT
ATOM      1  S   UNL     1      -0.149  44.936  15.584  0.00  0.00    +0.000 S 
ATOM      2  S   UNL     1       1.808  45.499  15.251  0.00  0.00    +0.000 S 
ATOM      3  O   UNL     1       3.132  42.227  16.076  0.00  0.00    +0.000 OA
ATOM      4  O   UNL     1       0.053  45.207  19.122  0.00  0.00    +0.000 OA
ATOM      5  N   UNL     1       1.022  42.782  16.802  0.00  0.00    +0.000 N 
ATOM      6  N   UNL     1       2.084  45.001  17.955  0.00  0.00    +0.000 N 
ATOM      7  C   UNL     1       0.068  43.901  17.072  0.00  0.00    +0.000 C 
ATOM      8  C   UNL     1       0.387  41.542  16.879  0.00  0.00    +0.000 A 
ATOM      9  C   UNL     1      -1.143  43.166  17.426  0.00  0.00    +0.000 C 
ATOM     10  C   UNL     1       2.674  44.596  16.637  0.00  0.00    +0.000 C 
ATOM     11  C   UNL     1      -1.012  41.771  17.384  0.00  0.00    +0.000 A 
ATOM     12  C   UNL     1       2.340  43.078  16.477  0.00  0.00    +0.000 C 
ATOM     13  C   UNL     1       0.701  44.746  18.180  0.00  0.00    +0.000 C 
ATOM     14  C   UNL     1       0.737  40.264  16.215  0.00  0.00    +0.000 A 
ATOM     15  C   UNL     1      -1.867  40.886  16.960  0.00  0.00    +0.000 A 
ATOM     16  C   UNL     1      -0.429  39.458  15.976  0.00  0.00    +0.000 A 
ATOM     17  C   UNL     1       2.925  45.788  18.857  0.00  0.00    +0.000 C 
ATOM     18  C   UNL     1      -1.604  39.574  16.205  0.00  0.00    +0.000 A 
ENDROOT
BRANCH  14  19
ATOM     19  O   UNL     1       1.862  40.104  15.458  0.00  0.00    +0.000 OA
ATOM     20  H   UNL     1       1.909  40.724  14.703  0.00  0.00    +0.000 HD
ENDBRANCH  14  19
BRANCH  10  21
ATOM     21  C   UNL     1       4.138  44.827  16.510  0.00  0.00    +0.000 C 
BRANCH  21  22
ATOM     22  O   UNL     1       5.456  45.018  16.404  0.00  0.00    +0.000 OA
ATOM     23  H   UNL     1       5.675  45.968  16.381  0.00  0.00    +0.000 HD
ENDBRANCH  21  22
ENDBRANCH  10  21
TORSDOF 3
ENDMDL
MODEL 2
REMARK VINA RESULT:      -6.2     13.562     14.685
REMARK  Name = 6223_Gliotoxin.pdbqt.pdb
REMARK  3 active torsions:
REMARK  status: ('A' for Active; 'I' for Inactive)
REMARK    1  A    between atoms: C_10  and  C_21
REMARK    2  A    between atoms: C_14  and  O_19
REMARK    3  A    between atoms: C_21  and  O_22
REMARK                            x       y       z     vdW  Elec       q    Type
REMARK                         _______ _______ _______ _____ _____    ______ ____
ROOT
ATOM      1  S   UNL     1      14.039  46.356  13.190  0.00  0.00    +0.000 S 
ATOM      2  S   UNL     1      12.671  47.847  13.601  0.00  0.00    +0.000 S 
ATOM      3  O   UNL     1      11.193  47.718  10.293  0.00  0.00    +0.000 OA
ATOM      4  O   UNL     1      16.274  48.473  11.414  0.00  0.00    +0.000 OA
ATOM      5  N   UNL     1      13.295  46.839  10.600  0.00  0.00    +0.000 N 
ATOM      6  N   UNL     1      14.059  49.227  11.650  0.00  0.00    +0.000 N 
ATOM      7  C   UNL     1      14.501  46.812  11.485  0.00  0.00    +0.000 C 
ATOM      8  C   UNL     1      13.363  45.852   9.616  0.00  0.00    +0.000 A 
ATOM      9  C   UNL     1      15.312  45.788  10.830  0.00  0.00    +0.000 C 
ATOM     10  C   UNL     1      12.667  48.775  11.981  0.00  0.00    +0.000 C 
ATOM     11  C   UNL     1      14.725  45.218   9.693  0.00  0.00    +0.000 A 
ATOM     12  C   UNL     1      12.282  47.752  10.864  0.00  0.00    +0.000 C 
ATOM     13  C   UNL     1      15.067  48.234  11.482  0.00  0.00    +0.000 C 
ATOM     14  C   UNL     1      12.264  45.168   8.895  0.00  0.00    +0.000 A 
ATOM     15  C   UNL     1      14.740  43.975   9.307  0.00  0.00    +0.000 A 
ATOM     16  C   UNL     1      12.638  43.835   8.508  0.00  0.00    +0.000 A 
ATOM     17  C   UNL     1      14.329  50.663  11.691  0.00  0.00    +0.000 C 
ATOM     18  C   UNL     1      13.630  43.164   8.619  0.00  0.00    +0.000 A 
ENDROOT
BRANCH  14  19
ATOM     19  O   UNL     1      10.950  45.506   9.049  0.00  0.00    +0.000 OA
ATOM     20  H   UNL     1      10.690  46.288   8.521  0.00  0.00    +0.000 HD
ENDBRANCH  14  19
BRANCH  10  21
ATOM     21  C   UNL     1      11.659  49.866  12.063  0.00  0.00    +0.000 C 
BRANCH  21  22
ATOM     22  O   UNL     1      10.757  50.849  12.119  0.00  0.00    +0.000 OA
ATOM     23  H   UNL     1      10.976  51.490  12.821  0.00  0.00    +0.000 HD
ENDBRANCH  21  22
ENDBRANCH  10  21
TORSDOF 3
ENDMDL
MODEL 3
REMARK VINA RESULT:      -5.9     11.067     12.987
REMARK  Name = 6223_Gliotoxin.pdbqt.pdb
REMARK  3 active torsions:
REMARK  status: ('A' for Active; 'I' for Inactive)
REMARK    1  A    between atoms: C_10  and  C_21
REMARK    2  A    between atoms: C_14  and  O_19
REMARK    3  A    between atoms: C_21  and  O_22
REMARK                            x       y       z     vdW  Elec       q    Type
REMARK                         _______ _______ _______ _____ _____    ______ ____
ROOT
ATOM      1  S   UNL     1     -10.876  42.974  12.350  0.00  0.00    +0.000 S 
ATOM      2  S   UNL     1      -9.570  42.719  10.771  0.00  0.00    +0.000 S 
ATOM      3  O   UNL     1     -10.312  39.187  10.430  0.00  0.00    +0.000 OA
ATOM      4  O   UNL     1      -8.673  41.624  14.790  0.00  0.00    +0.000 OA
ATOM      5  N   UNL     1     -10.821  40.237  12.410  0.00  0.00    +0.000 N 
ATOM      6  N   UNL     1      -8.239  41.071  12.546  0.00  0.00    +0.000 N 
ATOM      7  C   UNL     1     -10.561  41.431  13.273  0.00  0.00    +0.000 C 
ATOM      8  C   UNL     1     -11.897  39.488  12.888  0.00  0.00    +0.000 A 
ATOM      9  C   UNL     1     -11.522  41.218  14.353  0.00  0.00    +0.000 C 
ATOM     10  C   UNL     1      -8.852  41.044  11.177  0.00  0.00    +0.000 C 
ATOM     11  C   UNL     1     -12.305  40.063  14.217  0.00  0.00    +0.000 A 
ATOM     12  C   UNL     1     -10.046  40.041  11.273  0.00  0.00    +0.000 C 
ATOM     13  C   UNL     1      -9.081  41.370  13.655  0.00  0.00    +0.000 C 
ATOM     14  C   UNL     1     -12.820  38.592  12.151  0.00  0.00    +0.000 A 
ATOM     15  C   UNL     1     -13.569  39.902  14.485  0.00  0.00    +0.000 A 
ATOM     16  C   UNL     1     -14.117  38.551  12.768  0.00  0.00    +0.000 A 
ATOM     17  C   UNL     1      -6.783  40.961  12.635  0.00  0.00    +0.000 C 
ATOM     18  C   UNL     1     -14.613  39.055  13.741  0.00  0.00    +0.000 A 
ENDROOT
BRANCH  14  19
ATOM     19  O   UNL     1     -12.667  38.295  10.827  0.00  0.00    +0.000 OA
ATOM     20  H   UNL     1     -13.498  38.375  10.317  0.00  0.00    +0.000 HD
ENDBRANCH  14  19
BRANCH  10  21
ATOM     21  C   UNL     1      -7.923  40.650  10.084  0.00  0.00    +0.000 C 
BRANCH  21  22
ATOM     22  O   UNL     1      -7.075  40.305   9.112  0.00  0.00    +0.000 OA
ATOM     23  H   UNL     1      -6.400  39.680   9.438  0.00  0.00    +0.000 HD
ENDBRANCH  21  22
ENDBRANCH  10  21
TORSDOF 3
ENDMDL
MODEL 4
REMARK VINA RESULT:      -5.8      3.853      6.478
REMARK  Name = 6223_Gliotoxin.pdbqt.pdb
REMARK  3 active torsions:
REMARK  status: ('A' for Active; 'I' for Inactive)
REMARK    1  A    between atoms: C_10  and  C_21
REMARK    2  A    between atoms: C_14  and  O_19
REMARK    3  A    between atoms: C_21  and  O_22
REMARK                            x       y       z     vdW  Elec       q    Type
REMARK                         _______ _______ _______ _____ _____    ______ ____
ROOT
ATOM      1  S   UNL     1      -2.578  44.146  15.299  0.00  0.00    +0.000 S 
ATOM      2  S   UNL     1      -4.202  43.331  14.319  0.00  0.00    +0.000 S 
ATOM      3  O   UNL     1      -4.784  40.833  16.880  0.00  0.00    +0.000 OA
ATOM      4  O   UNL     1      -0.297  41.627  14.257  0.00  0.00    +0.000 OA
ATOM      5  N   UNL     1      -2.720  41.839  16.765  0.00  0.00    +0.000 N 
ATOM      6  N   UNL     1      -2.586  41.095  14.155  0.00  0.00    +0.000 N 
ATOM      7  C   UNL     1      -1.778  42.622  15.907  0.00  0.00    +0.000 C 
ATOM      8  C   UNL     1      -2.273  41.774  18.085  0.00  0.00    +0.000 A 
ATOM      9  C   UNL     1      -0.694  42.895  16.847  0.00  0.00    +0.000 C 
ATOM     10  C   UNL     1      -3.938  41.513  14.654  0.00  0.00    +0.000 C 
ATOM     11  C   UNL     1      -0.895  42.379  18.135  0.00  0.00    +0.000 A 
ATOM     12  C   UNL     1      -3.886  41.333  16.204  0.00  0.00    +0.000 C 
ATOM     13  C   UNL     1      -1.437  41.726  14.715  0.00  0.00    +0.000 C 
ATOM     14  C   UNL     1      -3.051  41.595  19.334  0.00  0.00    +0.000 A 
ATOM     15  C   UNL     1      -0.609  42.922  19.282  0.00  0.00    +0.000 A 
ATOM     16  C   UNL     1      -2.407  42.231  20.451  0.00  0.00    +0.000 A 
ATOM     17  C   UNL     1      -2.541  40.194  13.004  0.00  0.00    +0.000 C 
ATOM     18  C   UNL     1      -1.389  42.851  20.605  0.00  0.00    +0.000 A 
ENDROOT
BRANCH  14  19
ATOM     19  O   UNL     1      -4.396  41.363  19.343  0.00  0.00    +0.000 OA
ATOM     20  H   UNL     1      -4.853  41.781  20.101  0.00  0.00    +0.000 HD
ENDBRANCH  14  19
BRANCH  10  21
ATOM     21  C   UNL     1      -5.079  40.755  14.074  0.00  0.00    +0.000 C 
BRANCH  21  22
ATOM     22  O   UNL     1      -6.091  40.063  13.545  0.00  0.00    +0.000 OA
ATOM     23  H   UNL     1      -6.625  40.620  12.946  0.00  0.00    +0.000 HD
ENDBRANCH  21  22
ENDBRANCH  10  21
TORSDOF 3
ENDMDL
MODEL 5
REMARK VINA RESULT:      -5.8      4.755      6.670
REMARK  Name = 6223_Gliotoxin.pdbqt.pdb
REMARK  3 active torsions:
REMARK  status: ('A' for Active; 'I' for Inactive)
REMARK    1  A    between atoms: C_10  and  C_21
REMARK    2  A    between atoms: C_14  and  O_19
REMARK    3  A    between atoms: C_21  and  O_22
REMARK                            x       y       z     vdW  Elec       q    Type
REMARK                         _______ _______ _______ _____ _____    ______ ____
ROOT
ATOM      1  S   UNL     1      -5.055  42.111  15.934  0.00  0.00    +0.000 S 
ATOM      2  S   UNL     1      -5.877  41.203  14.272  0.00  0.00    +0.000 S 
ATOM      3  O   UNL     1      -2.649  40.397  12.833  0.00  0.00    +0.000 OA
ATOM      4  O   UNL     1      -4.318  45.168  14.278  0.00  0.00    +0.000 OA
ATOM      5  N   UNL     1      -2.766  42.043  14.434  0.00  0.00    +0.000 N 
ATOM      6  N   UNL     1      -4.653  43.279  12.919  0.00  0.00    +0.000 N 
ATOM      7  C   UNL     1      -3.664  42.998  15.154  0.00  0.00    +0.000 C 
ATOM      8  C   UNL     1      -1.501  41.992  15.021  0.00  0.00    +0.000 A 
ATOM      9  C   UNL     1      -2.744  43.571  16.134  0.00  0.00    +0.000 C 
ATOM     10  C   UNL     1      -4.702  41.779  12.941  0.00  0.00    +0.000 C 
ATOM     11  C   UNL     1      -1.440  43.062  16.077  0.00  0.00    +0.000 A 
ATOM     12  C   UNL     1      -3.269  41.320  13.360  0.00  0.00    +0.000 C 
ATOM     13  C   UNL     1      -4.212  43.955  14.093  0.00  0.00    +0.000 C 
ATOM     14  C   UNL     1      -0.507  40.893  15.018  0.00  0.00    +0.000 A 
ATOM     15  C   UNL     1      -0.635  42.775  17.060  0.00  0.00    +0.000 A 
ATOM     16  C   UNL     1       0.305  40.915  16.204  0.00  0.00    +0.000 A 
ATOM     17  C   UNL     1      -5.226  43.956  11.756  0.00  0.00    +0.000 C 
ATOM     18  C   UNL     1       0.373  41.621  17.175  0.00  0.00    +0.000 A 
ENDROOT
BRANCH  14  19
ATOM     19  O   UNL     1      -0.680  39.737  14.313  0.00  0.00    +0.000 OA
ATOM     20  H   UNL     1      -0.429  38.937  14.817  0.00  0.00    +0.000 HD
ENDBRANCH  14  19
BRANCH  10  21
ATOM     21  C   UNL     1      -5.100  41.149  11.653  0.00  0.00    +0.000 C 
BRANCH  21  22
ATOM     22  O   UNL     1      -5.454  40.600  10.489  0.00  0.00    +0.000 OA
ATOM     23  H   UNL     1      -5.960  41.229   9.941  0.00  0.00    +0.000 HD
ENDBRANCH  21  22
ENDBRANCH  10  21
TORSDOF 3
ENDMDL
MODEL 6
REMARK VINA RESULT:      -5.8      2.181      2.669
REMARK  Name = 6223_Gliotoxin.pdbqt.pdb
REMARK  3 active torsions:
REMARK  status: ('A' for Active; 'I' for Inactive)
REMARK    1  A    between atoms: C_10  and  C_21
REMARK    2  A    between atoms: C_14  and  O_19
REMARK    3  A    between atoms: C_21  and  O_22
REMARK                            x       y       z     vdW  Elec       q    Type
REMARK                         _______ _______ _______ _____ _____    ______ ____
ROOT
ATOM      1  S   UNL     1      -2.874  44.084  17.457  0.00  0.00    +0.000 S 
ATOM      2  S   UNL     1      -1.290  45.402  17.338  0.00  0.00    +0.000 S 
ATOM      3  O   UNL     1       0.897  42.986  15.749  0.00  0.00    +0.000 OA
ATOM      4  O   UNL     1      -1.636  42.373  20.315  0.00  0.00    +0.000 OA
ATOM      5  N   UNL     1      -0.946  42.225  16.894  0.00  0.00    +0.000 N 
ATOM      6  N   UNL     1      -0.079  43.613  19.062  0.00  0.00    +0.000 N 
ATOM      7  C   UNL     1      -1.984  42.559  17.917  0.00  0.00    +0.000 C 
ATOM      8  C   UNL     1      -1.242  41.028  16.239  0.00  0.00    +0.000 A 
ATOM      9  C   UNL     1      -2.835  41.373  17.859  0.00  0.00    +0.000 C 
ATOM     10  C   UNL     1       0.140  44.266  17.730  0.00  0.00    +0.000 C 
ATOM     11  C   UNL     1      -2.426  40.407  16.929  0.00  0.00    +0.000 A 
ATOM     12  C   UNL     1       0.108  43.106  16.684  0.00  0.00    +0.000 C 
ATOM     13  C   UNL     1      -1.233  42.794  19.229  0.00  0.00    +0.000 C 
ATOM     14  C   UNL     1      -0.851  40.578  14.882  0.00  0.00    +0.000 A 
ATOM     15  C   UNL     1      -3.160  39.676  16.140  0.00  0.00    +0.000 A 
ATOM     16  C   UNL     1      -1.831  39.689  14.320  0.00  0.00    +0.000 A 
ATOM     17  C   UNL     1       0.812  43.998  20.157  0.00  0.00    +0.000 C 
ATOM     18  C   UNL     1      -2.871  39.220  14.701  0.00  0.00    +0.000 A 
ENDROOT
BRANCH  14  19
ATOM     19  O   UNL     1      -0.014  41.292  14.075  0.00  0.00    +0.000 OA
ATOM     20  H   UNL     1       0.544  40.727  13.504  0.00  0.00    +0.000 HD
ENDBRANCH  14  19
BRANCH  10  21
ATOM     21  C   UNL     1       1.405  45.041  17.615  0.00  0.00    +0.000 C 
BRANCH  21  22
ATOM     22  O   UNL     1       2.530  45.753  17.508  0.00  0.00    +0.000 OA
ATOM     23  H   UNL     1       2.512  46.327  16.719  0.00  0.00    +0.000 HD
ENDBRANCH  21  22
ENDBRANCH  10  21
TORSDOF 3
ENDMDL
MODEL 7
REMARK VINA RESULT:      -5.7     26.744     27.655
REMARK  Name = 6223_Gliotoxin.pdbqt.pdb
REMARK  3 active torsions:
REMARK  status: ('A' for Active; 'I' for Inactive)
REMARK    1  A    between atoms: C_10  and  C_21
REMARK    2  A    between atoms: C_14  and  O_19
REMARK    3  A    between atoms: C_21  and  O_22
REMARK                            x       y       z     vdW  Elec       q    Type
REMARK                         _______ _______ _______ _____ _____    ______ ____
ROOT
ATOM      1  S   UNL     1       9.645  15.257  22.440  0.00  0.00    +0.000 S 
ATOM      2  S   UNL     1       8.796  15.004  24.305  0.00  0.00    +0.000 S 
ATOM      3  O   UNL     1       5.995  17.187  23.577  0.00  0.00    +0.000 OA
ATOM      4  O   UNL     1      11.092  18.415  23.189  0.00  0.00    +0.000 OA
ATOM      5  N   UNL     1       7.890  17.351  22.286  0.00  0.00    +0.000 N 
ATOM      6  N   UNL     1       9.324  17.704  24.566  0.00  0.00    +0.000 N 
ATOM      7  C   UNL     1       9.350  17.041  22.197  0.00  0.00    +0.000 C 
ATOM      8  C   UNL     1       7.391  17.808  21.065  0.00  0.00    +0.000 A 
ATOM      9  C   UNL     1       9.654  17.480  20.837  0.00  0.00    +0.000 C 
ATOM     10  C   UNL     1       8.183  16.734  24.648  0.00  0.00    +0.000 C 
ATOM     11  C   UNL     1       8.557  17.992  20.131  0.00  0.00    +0.000 A 
ATOM     12  C   UNL     1       7.219  17.121  23.480  0.00  0.00    +0.000 C 
ATOM     13  C   UNL     1      10.023  17.819  23.330  0.00  0.00    +0.000 C 
ATOM     14  C   UNL     1       6.012  17.737  20.527  0.00  0.00    +0.000 A 
ATOM     15  C   UNL     1       8.247  17.825  18.877  0.00  0.00    +0.000 A 
ATOM     16  C   UNL     1       6.010  17.667  19.091  0.00  0.00    +0.000 A 
ATOM     17  C   UNL     1       9.756  18.343  25.809  0.00  0.00    +0.000 C 
ATOM     18  C   UNL     1       6.858  17.671  18.238  0.00  0.00    +0.000 A 
ENDROOT
BRANCH  14  19
ATOM     19  O   UNL     1       4.957  17.260  21.250  0.00  0.00    +0.000 OA
ATOM     20  H   UNL     1       4.123  17.741  21.075  0.00  0.00    +0.000 HD
ENDBRANCH  14  19
BRANCH  10  21
ATOM     21  C   UNL     1       7.458  16.730  25.947  0.00  0.00    +0.000 C 
BRANCH  21  22
ATOM     22  O   UNL     1       6.806  16.745  27.112  0.00  0.00    +0.000 OA
ATOM     23  H   UNL     1       5.900  16.397  27.015  0.00  0.00    +0.000 HD
ENDBRANCH  21  22
ENDBRANCH  10  21
TORSDOF 3
ENDMDL
MODEL 8
REMARK VINA RESULT:      -5.7     27.815     28.505
REMARK  Name = 6223_Gliotoxin.pdbqt.pdb
REMARK  3 active torsions:
REMARK  status: ('A' for Active; 'I' for Inactive)
REMARK    1  A    between atoms: C_10  and  C_21
REMARK    2  A    between atoms: C_14  and  O_19
REMARK    3  A    between atoms: C_21  and  O_22
REMARK                            x       y       z     vdW  Elec       q    Type
REMARK                         _______ _______ _______ _____ _____    ______ ____
ROOT
ATOM      1  S   UNL     1       1.547  58.996  -8.794  0.00  0.00    +0.000 S 
ATOM      2  S   UNL     1       1.532  60.945  -8.115  0.00  0.00    +0.000 S 
ATOM      3  O   UNL     1       4.328  60.423  -5.867  0.00  0.00    +0.000 OA
ATOM      4  O   UNL     1      -0.152  57.673  -5.967  0.00  0.00    +0.000 OA
ATOM      5  N   UNL     1       3.155  58.593  -6.616  0.00  0.00    +0.000 N 
ATOM      6  N   UNL     1       0.883  59.768  -5.700  0.00  0.00    +0.000 N 
ATOM      7  C   UNL     1       1.877  58.117  -7.229  0.00  0.00    +0.000 C 
ATOM      8  C   UNL     1       4.113  57.579  -6.583  0.00  0.00    +0.000 A 
ATOM      9  C   UNL     1       2.167  56.700  -7.432  0.00  0.00    +0.000 C 
ATOM     10  C   UNL     1       1.904  60.687  -6.303  0.00  0.00    +0.000 C 
ATOM     11  C   UNL     1       3.449  56.303  -7.025  0.00  0.00    +0.000 A 
ATOM     12  C   UNL     1       3.262  59.919  -6.216  0.00  0.00    +0.000 C 
ATOM     13  C   UNL     1       0.770  58.449  -6.226  0.00  0.00    +0.000 C 
ATOM     14  C   UNL     1       5.591  57.682  -6.575  0.00  0.00    +0.000 A 
ATOM     15  C   UNL     1       4.263  55.468  -7.602  0.00  0.00    +0.000 A 
ATOM     16  C   UNL     1       6.203  56.542  -7.200  0.00  0.00    +0.000 A 
ATOM     17  C   UNL     1      -0.049  60.340  -4.729  0.00  0.00    +0.000 C 
ATOM     18  C   UNL     1       5.795  55.529  -7.706  0.00  0.00    +0.000 A 
ENDROOT
BRANCH  14  19
ATOM     19  O   UNL     1       6.252  58.875  -6.502  0.00  0.00    +0.000 OA
ATOM     20  H   UNL     1       5.740  59.571  -6.042  0.00  0.00    +0.000 HD
ENDBRANCH  14  19
BRANCH  10  21
ATOM     21  C   UNL     1       2.010  62.018  -5.648  0.00  0.00    +0.000 C 
BRANCH  21  22
ATOM     22  O   UNL     1       2.116  63.205  -5.046  0.00  0.00    +0.000 OA
ATOM     23  H   UNL     1       2.382  63.900  -5.677  0.00  0.00    +0.000 HD
ENDBRANCH  21  22
ENDBRANCH  10  21
TORSDOF 3
ENDMDL
MODEL 9
REMARK VINA RESULT:      -5.6     15.747     18.079
REMARK  Name = 6223_Gliotoxin.pdbqt.pdb
REMARK  3 active torsions:
REMARK  status: ('A' for Active; 'I' for Inactive)
REMARK    1  A    between atoms: C_10  and  C_21
REMARK    2  A    between atoms: C_14  and  O_19
REMARK    3  A    between atoms: C_21  and  O_22
REMARK                            x       y       z     vdW  Elec       q    Type
REMARK                         _______ _______ _______ _____ _____    ______ ____
ROOT
ATOM      1  S   UNL     1      17.372  47.266   9.632  0.00  0.00    +0.000 S 
ATOM      2  S   UNL     1      19.060  46.988   8.478  0.00  0.00    +0.000 S 
ATOM      3  O   UNL     1      18.057  43.674   7.403  0.00  0.00    +0.000 OA
ATOM      4  O   UNL     1      18.549  45.329  12.369  0.00  0.00    +0.000 OA
ATOM      5  N   UNL     1      17.089  44.565   9.288  0.00  0.00    +0.000 N 
ATOM      6  N   UNL     1      19.584  44.966  10.288  0.00  0.00    +0.000 N 
ATOM      7  C   UNL     1      17.208  45.601  10.361  0.00  0.00    +0.000 C 
ATOM      8  C   UNL     1      15.840  43.944   9.316  0.00  0.00    +0.000 A 
ATOM      9  C   UNL     1      15.945  45.422  11.073  0.00  0.00    +0.000 C 
ATOM     10  C   UNL     1      19.420  45.187   8.813  0.00  0.00    +0.000 C 
ATOM     11  C   UNL     1      15.113  44.426  10.543  0.00  0.00    +0.000 A 
ATOM     12  C   UNL     1      18.147  44.378   8.408  0.00  0.00    +0.000 C 
ATOM     13  C   UNL     1      18.482  45.268  11.140  0.00  0.00    +0.000 C 
ATOM     14  C   UNL     1      15.091  43.290   8.217  0.00  0.00    +0.000 A 
ATOM     15  C   UNL     1      13.818  44.435  10.408  0.00  0.00    +0.000 A 
ATOM     16  C   UNL     1      13.671  43.384   8.420  0.00  0.00    +0.000 A 
ATOM     17  C   UNL     1      20.919  44.622  10.775  0.00  0.00    +0.000 C 
ATOM     18  C   UNL     1      12.962  43.848   9.274  0.00  0.00    +0.000 A 
ENDROOT
BRANCH  14  19
ATOM     19  O   UNL     1      15.606  43.122   6.965  0.00  0.00    +0.000 OA
ATOM     20  H   UNL     1      16.234  43.828   6.709  0.00  0.00    +0.000 HD
ENDBRANCH  14  19
BRANCH  10  21
ATOM     21  C   UNL     1      20.588  44.776   7.988  0.00  0.00    +0.000 C 
BRANCH  21  22
ATOM     22  O   UNL     1      21.628  44.416   7.232  0.00  0.00    +0.000 OA
ATOM     23  H   UNL     1      22.228  45.170   7.074  0.00  0.00    +0.000 HD
ENDBRANCH  21  22
ENDBRANCH  10  21
TORSDOF 3
ENDMDL
