MODEL 1
REMARK VINA RESULT:      -7.8      0.000      0.000
REMARK  Name = 6256_Trifluridine.pdbqt.pdb
REMARK  5 active torsions:
REMARK  status: ('A' for Active; 'I' for Inactive)
REMARK    1  A    between atoms: N_3  and  C1*_11
REMARK    2  A    between atoms: C_7  and  C_23
REMARK    3  A    between atoms: C3*_12  and  O3*_15
REMARK    4  A    between atoms: C4*_14  and  C5*_17
REMARK    5  A    between atoms: C5*_17  and  O5*_18
REMARK                            x       y       z     vdW  Elec       q    Type
REMARK                         _______ _______ _______ _____ _____    ______ ____
ROOT
ATOM      1  O   UNL     1       2.381  32.514  16.875  0.00  0.00    +0.000 OA
ATOM      2  O   UNL     1      -1.804  34.162  15.959  0.00  0.00    +0.000 OA
ATOM      3  N   UNL     1       0.958  31.230  15.483  0.00  0.00    +0.000 N 
ATOM      4  N   UNL     1       0.278  33.289  16.375  0.00  0.00    +0.000 N 
ATOM      5  C   UNL     1      -0.275  31.250  14.941  0.00  0.00    +0.000 A 
ATOM      6  C   UNL     1       1.320  32.334  16.289  0.00  0.00    +0.000 A 
ATOM      7  C   UNL     1      -1.281  32.062  14.963  0.00  0.00    +0.000 A 
ATOM      8  C   UNL     1      -0.994  33.261  15.791  0.00  0.00    +0.000 A 
ATOM      9  H   UNL     1       0.486  34.099  16.942  0.00  0.00    +0.000 HD
ENDROOT
BRANCH   3  11
ATOM     10  O4* UNL     1       3.163  30.240  15.394  0.00  0.00    +0.000 OA
ATOM     11  C1* UNL     1       1.775  30.164  15.237  0.00  0.00    +0.000 A 
ATOM     12  C3* UNL     1       2.597  28.119  14.656  0.00  0.00    +0.000 A 
ATOM     13  C2* UNL     1       1.421  28.880  14.778  0.00  0.00    +0.000 A 
ATOM     14  C4* UNL     1       3.682  28.988  15.038  0.00  0.00    +0.000 A 
BRANCH  12  15
ATOM     15  O3* UNL     1       2.779  27.133  13.728  0.00  0.00    +0.000 OA
ATOM     16  H3* UNL     1       3.196  26.350  14.129  0.00  0.00    +0.000 HD
ENDBRANCH  12  15
BRANCH  14  17
ATOM     17  C5* UNL     1       5.062  28.758  14.881  0.00  0.00    +0.000 C 
BRANCH  17  18
ATOM     18  O5* UNL     1       6.365  28.538  14.731  0.00  0.00    +0.000 OA
ATOM     19  H5* UNL     1       6.535  28.095  13.881  0.00  0.00    +0.000 HD
ENDBRANCH  17  18
ENDBRANCH  14  17
ENDBRANCH   3  11
BRANCH   7  23
ATOM     20  F   UNL     1      -2.870  32.980  13.494  0.00  0.00    +0.000 F 
ATOM     21  F   UNL     1      -2.706  30.816  13.582  0.00  0.00    +0.000 F 
ATOM     22  F   UNL     1      -3.608  31.887  15.240  0.00  0.00    +0.000 F 
ATOM     23  C   UNL     1      -2.603  31.948  14.333  0.00  0.00    +0.000 C 
ENDBRANCH   7  23
TORSDOF 5
ENDMDL
MODEL 2
REMARK VINA RESULT:      -7.1      2.636      3.509
REMARK  Name = 6256_Trifluridine.pdbqt.pdb
REMARK  5 active torsions:
REMARK  status: ('A' for Active; 'I' for Inactive)
REMARK    1  A    between atoms: N_3  and  C1*_11
REMARK    2  A    between atoms: C_7  and  C_23
REMARK    3  A    between atoms: C3*_12  and  O3*_15
REMARK    4  A    between atoms: C4*_14  and  C5*_17
REMARK    5  A    between atoms: C5*_17  and  O5*_18
REMARK                            x       y       z     vdW  Elec       q    Type
REMARK                         _______ _______ _______ _____ _____    ______ ____
ROOT
ATOM      1  O   UNL     1       5.210  33.244  15.563  0.00  0.00    +0.000 OA
ATOM      2  O   UNL     1       0.656  33.411  16.108  0.00  0.00    +0.000 OA
ATOM      3  N   UNL     1       4.036  31.196  15.755  0.00  0.00    +0.000 N 
ATOM      4  N   UNL     1       2.929  33.262  15.831  0.00  0.00    +0.000 N 
ATOM      5  C   UNL     1       2.787  30.714  15.917  0.00  0.00    +0.000 A 
ATOM      6  C   UNL     1       4.175  32.602  15.701  0.00  0.00    +0.000 A 
ATOM      7  C   UNL     1       1.608  31.228  16.046  0.00  0.00    +0.000 A 
ATOM      8  C   UNL     1       1.654  32.712  16.001  0.00  0.00    +0.000 A 
ATOM      9  H   UNL     1       2.975  34.271  15.800  0.00  0.00    +0.000 HD
ENDROOT
BRANCH   3  11
ATOM     10  O4* UNL     1       6.326  30.585  16.236  0.00  0.00    +0.000 OA
ATOM     11  C1* UNL     1       5.079  30.321  15.659  0.00  0.00    +0.000 A 
ATOM     12  C3* UNL     1       6.410  28.543  15.147  0.00  0.00    +0.000 A 
ATOM     13  C2* UNL     1       5.122  29.084  14.985  0.00  0.00    +0.000 A 
ATOM     14  C4* UNL     1       7.155  29.499  15.927  0.00  0.00    +0.000 A 
BRANCH  12  15
ATOM     15  O3* UNL     1       7.032  27.753  14.222  0.00  0.00    +0.000 OA
ATOM     16  H3* UNL     1       7.342  26.923  14.624  0.00  0.00    +0.000 HD
ENDBRANCH  12  15
BRANCH  14  17
ATOM     17  C5* UNL     1       8.542  29.513  16.172  0.00  0.00    +0.000 C 
BRANCH  17  18
ATOM     18  O5* UNL     1       9.851  29.524  16.407  0.00  0.00    +0.000 OA
ATOM     19  H5* UNL     1      10.340  29.304  15.596  0.00  0.00    +0.000 HD
ENDBRANCH  17  18
ENDBRANCH  14  17
ENDBRANCH   3  11
BRANCH   7  23
ATOM     20  F   UNL     1      -0.605  30.938  15.308  0.00  0.00    +0.000 F 
ATOM     21  F   UNL     1       0.410  29.219  16.162  0.00  0.00    +0.000 F 
ATOM     22  F   UNL     1      -0.227  30.838  17.461  0.00  0.00    +0.000 F 
ATOM     23  C   UNL     1       0.308  30.574  16.243  0.00  0.00    +0.000 C 
ENDBRANCH   7  23
TORSDOF 5
ENDMDL
MODEL 3
REMARK VINA RESULT:      -6.6     14.359     16.488
REMARK  Name = 6256_Trifluridine.pdbqt.pdb
REMARK  5 active torsions:
REMARK  status: ('A' for Active; 'I' for Inactive)
REMARK    1  A    between atoms: N_3  and  C1*_11
REMARK    2  A    between atoms: C_7  and  C_23
REMARK    3  A    between atoms: C3*_12  and  O3*_15
REMARK    4  A    between atoms: C4*_14  and  C5*_17
REMARK    5  A    between atoms: C5*_17  and  O5*_18
REMARK                            x       y       z     vdW  Elec       q    Type
REMARK                         _______ _______ _______ _____ _____    ______ ____
ROOT
ATOM      1  O   UNL     1      -4.308  45.069  12.401  0.00  0.00    +0.000 OA
ATOM      2  O   UNL     1      -2.755  47.494   8.828  0.00  0.00    +0.000 OA
ATOM      3  N   UNL     1      -5.290  44.681  10.281  0.00  0.00    +0.000 N 
ATOM      4  N   UNL     1      -3.569  46.247  10.573  0.00  0.00    +0.000 N 
ATOM      5  C   UNL     1      -5.214  45.090   8.999  0.00  0.00    +0.000 A 
ATOM      6  C   UNL     1      -4.404  45.288  11.199  0.00  0.00    +0.000 A 
ATOM      7  C   UNL     1      -4.500  45.946   8.344  0.00  0.00    +0.000 A 
ATOM      8  C   UNL     1      -3.531  46.639   9.230  0.00  0.00    +0.000 A 
ATOM      9  H   UNL     1      -2.916  46.711  11.189  0.00  0.00    +0.000 HD
ENDROOT
BRANCH   3  11
ATOM     10  O4* UNL     1      -5.898  42.362  10.600  0.00  0.00    +0.000 OA
ATOM     11  C1* UNL     1      -6.206  43.727  10.620  0.00  0.00    +0.000 A 
ATOM     12  C3* UNL     1      -8.107  42.633  11.238  0.00  0.00    +0.000 A 
ATOM     13  C2* UNL     1      -7.551  43.902  10.998  0.00  0.00    +0.000 A 
ATOM     14  C4* UNL     1      -7.061  41.677  10.977  0.00  0.00    +0.000 A 
BRANCH  12  15
ATOM     15  O3* UNL     1      -9.419  42.317  11.022  0.00  0.00    +0.000 OA
ATOM     16  H3* UNL     1      -9.561  42.026  10.104  0.00  0.00    +0.000 HD
ENDBRANCH  12  15
BRANCH  14  17
ATOM     17  C5* UNL     1      -7.182  40.278  10.872  0.00  0.00    +0.000 C 
BRANCH  17  18
ATOM     18  O5* UNL     1      -7.295  38.957  10.770  0.00  0.00    +0.000 OA
ATOM     19  H5* UNL     1      -7.441  38.563  11.647  0.00  0.00    +0.000 HD
ENDBRANCH  17  18
ENDBRANCH  14  17
ENDBRANCH   3  11
BRANCH   7  23
ATOM     20  F   UNL     1      -5.482  45.634   6.231  0.00  0.00    +0.000 F 
ATOM     21  F   UNL     1      -4.828  47.637   6.755  0.00  0.00    +0.000 F 
ATOM     22  F   UNL     1      -3.349  46.114   6.302  0.00  0.00    +0.000 F 
ATOM     23  C   UNL     1      -4.537  46.317   6.923  0.00  0.00    +0.000 C 
ENDBRANCH   7  23
TORSDOF 5
ENDMDL
MODEL 4
REMARK VINA RESULT:      -6.4     11.294     13.685
REMARK  Name = 6256_Trifluridine.pdbqt.pdb
REMARK  5 active torsions:
REMARK  status: ('A' for Active; 'I' for Inactive)
REMARK    1  A    between atoms: N_3  and  C1*_11
REMARK    2  A    between atoms: C_7  and  C_23
REMARK    3  A    between atoms: C3*_12  and  O3*_15
REMARK    4  A    between atoms: C4*_14  and  C5*_17
REMARK    5  A    between atoms: C5*_17  and  O5*_18
REMARK                            x       y       z     vdW  Elec       q    Type
REMARK                         _______ _______ _______ _____ _____    ______ ____
ROOT
ATOM      1  O   UNL     1       0.448  46.154  14.877  0.00  0.00    +0.000 OA
ATOM      2  O   UNL     1      -2.195  42.411  14.621  0.00  0.00    +0.000 OA
ATOM      3  N   UNL     1       1.244  44.158  15.874  0.00  0.00    +0.000 N 
ATOM      4  N   UNL     1      -0.826  44.246  14.775  0.00  0.00    +0.000 N 
ATOM      5  C   UNL     1       0.892  42.872  16.072  0.00  0.00    +0.000 A 
ATOM      6  C   UNL     1       0.330  44.968  15.162  0.00  0.00    +0.000 A 
ATOM      7  C   UNL     1      -0.125  42.135  15.766  0.00  0.00    +0.000 A 
ATOM      8  C   UNL     1      -1.146  42.904  15.010  0.00  0.00    +0.000 A 
ATOM      9  H   UNL     1      -1.513  44.782  14.264  0.00  0.00    +0.000 HD
ENDROOT
BRANCH   3  11
ATOM     10  O4* UNL     1       2.515  45.416  17.502  0.00  0.00    +0.000 OA
ATOM     11  C1* UNL     1       2.437  44.604  16.366  0.00  0.00    +0.000 A 
ATOM     12  C3* UNL     1       4.649  45.052  16.682  0.00  0.00    +0.000 A 
ATOM     13  C2* UNL     1       3.730  44.385  15.853  0.00  0.00    +0.000 A 
ATOM     14  C4* UNL     1       3.871  45.701  17.707  0.00  0.00    +0.000 A 
BRANCH  12  15
ATOM     15  O3* UNL     1       5.826  45.592  16.244  0.00  0.00    +0.000 OA
ATOM     16  H3* UNL     1       5.667  46.267  15.562  0.00  0.00    +0.000 HD
ENDBRANCH  12  15
BRANCH  14  17
ATOM     17  C5* UNL     1       4.310  46.657  18.643  0.00  0.00    +0.000 C 
BRANCH  17  18
ATOM     18  O5* UNL     1       4.725  47.558  19.529  0.00  0.00    +0.000 OA
ATOM     19  H5* UNL     1       5.549  47.259  19.952  0.00  0.00    +0.000 HD
ENDBRANCH  17  18
ENDBRANCH  14  17
ENDBRANCH   3  11
BRANCH   7  23
ATOM     20  F   UNL     1       0.630  40.127  16.728  0.00  0.00    +0.000 F 
ATOM     21  F   UNL     1      -1.488  40.584  16.872  0.00  0.00    +0.000 F 
ATOM     22  F   UNL     1      -0.650  39.991  14.959  0.00  0.00    +0.000 F 
ATOM     23  C   UNL     1      -0.396  40.724  16.071  0.00  0.00    +0.000 C 
ENDBRANCH   7  23
TORSDOF 5
ENDMDL
MODEL 5
REMARK VINA RESULT:      -6.3      4.230      6.304
REMARK  Name = 6256_Trifluridine.pdbqt.pdb
REMARK  5 active torsions:
REMARK  status: ('A' for Active; 'I' for Inactive)
REMARK    1  A    between atoms: N_3  and  C1*_11
REMARK    2  A    between atoms: C_7  and  C_23
REMARK    3  A    between atoms: C3*_12  and  O3*_15
REMARK    4  A    between atoms: C4*_14  and  C5*_17
REMARK    5  A    between atoms: C5*_17  and  O5*_18
REMARK                            x       y       z     vdW  Elec       q    Type
REMARK                         _______ _______ _______ _____ _____    ______ ____
ROOT
ATOM      1  O   UNL     1       7.040  32.238  15.956  0.00  0.00    +0.000 OA
ATOM      2  O   UNL     1       2.637  31.158  15.240  0.00  0.00    +0.000 OA
ATOM      3  N   UNL     1       6.485  29.952  15.678  0.00  0.00    +0.000 N 
ATOM      4  N   UNL     1       4.854  31.635  15.587  0.00  0.00    +0.000 N 
ATOM      5  C   UNL     1       5.425  29.150  15.458  0.00  0.00    +0.000 A 
ATOM      6  C   UNL     1       6.229  31.340  15.760  0.00  0.00    +0.000 A 
ATOM      7  C   UNL     1       4.154  29.322  15.293  0.00  0.00    +0.000 A 
ATOM      8  C   UNL     1       3.786  30.759  15.363  0.00  0.00    +0.000 A 
ATOM      9  H   UNL     1       4.618  32.616  15.640  0.00  0.00    +0.000 HD
ENDROOT
BRANCH   3  11
ATOM     10  O4* UNL     1       8.166  28.359  14.984  0.00  0.00    +0.000 OA
ATOM     11  C1* UNL     1       7.724  29.395  15.813  0.00  0.00    +0.000 A 
ATOM     12  C3* UNL     1       9.821  28.858  16.525  0.00  0.00    +0.000 A 
ATOM     13  C2* UNL     1       8.720  29.700  16.761  0.00  0.00    +0.000 A 
ATOM     14  C4* UNL     1       9.456  28.018  15.412  0.00  0.00    +0.000 A 
BRANCH  12  15
ATOM     15  O3* UNL     1      10.665  28.407  17.500  0.00  0.00    +0.000 OA
ATOM     16  H3* UNL     1      11.513  28.885  17.476  0.00  0.00    +0.000 HD
ENDBRANCH  12  15
BRANCH  14  17
ATOM     17  C5* UNL     1      10.134  26.878  14.938  0.00  0.00    +0.000 C 
BRANCH  17  18
ATOM     18  O5* UNL     1      10.775  25.803  14.488  0.00  0.00    +0.000 OA
ATOM     19  H5* UNL     1      11.503  25.570  15.090  0.00  0.00    +0.000 HD
ENDBRANCH  17  18
ENDBRANCH  14  17
ENDBRANCH   3  11
BRANCH   7  23
ATOM     20  F   UNL     1       3.552  27.063  15.047  0.00  0.00    +0.000 F 
ATOM     21  F   UNL     1       2.162  28.373  16.080  0.00  0.00    +0.000 F 
ATOM     22  F   UNL     1       2.402  28.551  13.930  0.00  0.00    +0.000 F 
ATOM     23  C   UNL     1       3.086  28.337  15.081  0.00  0.00    +0.000 C 
ENDBRANCH   7  23
TORSDOF 5
ENDMDL
MODEL 6
REMARK VINA RESULT:      -6.2      9.712     12.395
REMARK  Name = 6256_Trifluridine.pdbqt.pdb
REMARK  5 active torsions:
REMARK  status: ('A' for Active; 'I' for Inactive)
REMARK    1  A    between atoms: N_3  and  C1*_11
REMARK    2  A    between atoms: C_7  and  C_23
REMARK    3  A    between atoms: C3*_12  and  O3*_15
REMARK    4  A    between atoms: C4*_14  and  C5*_17
REMARK    5  A    between atoms: C5*_17  and  O5*_18
REMARK                            x       y       z     vdW  Elec       q    Type
REMARK                         _______ _______ _______ _____ _____    ______ ____
ROOT
ATOM      1  O   UNL     1      -6.093  42.633  15.495  0.00  0.00    +0.000 OA
ATOM      2  O   UNL     1      -2.718  40.389  17.649  0.00  0.00    +0.000 OA
ATOM      3  N   UNL     1      -5.060  40.825  14.366  0.00  0.00    +0.000 N 
ATOM      4  N   UNL     1      -4.403  41.467  16.524  0.00  0.00    +0.000 N 
ATOM      5  C   UNL     1      -4.093  39.900  14.532  0.00  0.00    +0.000 A 
ATOM      6  C   UNL     1      -5.275  41.722  15.437  0.00  0.00    +0.000 A 
ATOM      7  C   UNL     1      -3.256  39.596  15.468  0.00  0.00    +0.000 A 
ATOM      8  C   UNL     1      -3.408  40.489  16.645  0.00  0.00    +0.000 A 
ATOM      9  H   UNL     1      -4.516  42.083  17.316  0.00  0.00    +0.000 HD
ENDROOT
BRANCH   3  11
ATOM     10  O4* UNL     1      -6.934  40.113  13.015  0.00  0.00    +0.000 OA
ATOM     11  C1* UNL     1      -5.761  40.852  13.195  0.00  0.00    +0.000 A 
ATOM     12  C3* UNL     1      -6.453  41.261  11.063  0.00  0.00    +0.000 A 
ATOM     13  C2* UNL     1      -5.453  41.547  12.009  0.00  0.00    +0.000 A 
ATOM     14  C4* UNL     1      -7.371  40.354  11.706  0.00  0.00    +0.000 A 
BRANCH  12  15
ATOM     15  O3* UNL     1      -6.240  41.208   9.714  0.00  0.00    +0.000 OA
ATOM     16  H3* UNL     1      -5.300  41.055   9.515  0.00  0.00    +0.000 HD
ENDBRANCH  12  15
BRANCH  14  17
ATOM     17  C5* UNL     1      -8.412  39.619  11.107  0.00  0.00    +0.000 C 
BRANCH  17  18
ATOM     18  O5* UNL     1      -9.393  38.924  10.540  0.00  0.00    +0.000 OA
ATOM     19  H5* UNL     1     -10.012  38.601  11.217  0.00  0.00    +0.000 HD
ENDBRANCH  17  18
ENDBRANCH  14  17
ENDBRANCH   3  11
BRANCH   7  23
ATOM     20  F   UNL     1      -2.412  37.669  16.517  0.00  0.00    +0.000 F 
ATOM     21  F   UNL     1      -2.196  37.824  14.362  0.00  0.00    +0.000 F 
ATOM     22  F   UNL     1      -0.973  39.071  15.651  0.00  0.00    +0.000 F 
ATOM     23  C   UNL     1      -2.219  38.557  15.509  0.00  0.00    +0.000 C 
ENDBRANCH   7  23
TORSDOF 5
ENDMDL
MODEL 7
REMARK VINA RESULT:      -6.1     17.381     18.505
REMARK  Name = 6256_Trifluridine.pdbqt.pdb
REMARK  5 active torsions:
REMARK  status: ('A' for Active; 'I' for Inactive)
REMARK    1  A    between atoms: N_3  and  C1*_11
REMARK    2  A    between atoms: C_7  and  C_23
REMARK    3  A    between atoms: C3*_12  and  O3*_15
REMARK    4  A    between atoms: C4*_14  and  C5*_17
REMARK    5  A    between atoms: C5*_17  and  O5*_18
REMARK                            x       y       z     vdW  Elec       q    Type
REMARK                         _______ _______ _______ _____ _____    ______ ____
ROOT
ATOM      1  O   UNL     1     -17.734  30.912  24.337  0.00  0.00    +0.000 OA
ATOM      2  O   UNL     1     -15.832  34.269  26.823  0.00  0.00    +0.000 OA
ATOM      3  N   UNL     1     -15.405  31.279  24.115  0.00  0.00    +0.000 N 
ATOM      4  N   UNL     1     -16.723  32.572  25.560  0.00  0.00    +0.000 N 
ATOM      5  C   UNL     1     -14.420  32.073  24.579  0.00  0.00    +0.000 A 
ATOM      6  C   UNL     1     -16.704  31.511  24.623  0.00  0.00    +0.000 A 
ATOM      7  C   UNL     1     -14.341  33.054  25.417  0.00  0.00    +0.000 A 
ATOM      8  C   UNL     1     -15.665  33.373  26.008  0.00  0.00    +0.000 A 
ATOM      9  H   UNL     1     -17.631  32.779  25.953  0.00  0.00    +0.000 HD
ENDROOT
BRANCH   3  11
ATOM     10  O4* UNL     1     -15.328  30.504  21.825  0.00  0.00    +0.000 OA
ATOM     11  C1* UNL     1     -15.105  30.317  23.194  0.00  0.00    +0.000 A 
ATOM     12  C3* UNL     1     -14.455  28.387  22.171  0.00  0.00    +0.000 A 
ATOM     13  C2* UNL     1     -14.584  29.028  23.416  0.00  0.00    +0.000 A 
ATOM     14  C4* UNL     1     -14.933  29.323  21.184  0.00  0.00    +0.000 A 
BRANCH  12  15
ATOM     15  O3* UNL     1     -14.586  27.040  21.984  0.00  0.00    +0.000 OA
ATOM     16  H3* UNL     1     -15.436  26.827  21.560  0.00  0.00    +0.000 HD
ENDBRANCH  12  15
BRANCH  14  17
ATOM     17  C5* UNL     1     -15.203  29.074  19.824  0.00  0.00    +0.000 C 
BRANCH  17  18
ATOM     18  O5* UNL     1     -15.456  28.836  18.540  0.00  0.00    +0.000 OA
ATOM     19  H5* UNL     1     -15.766  29.647  18.103  0.00  0.00    +0.000 HD
ENDBRANCH  17  18
ENDBRANCH  14  17
ENDBRANCH   3  11
BRANCH   7  23
ATOM     20  F   UNL     1     -12.005  33.215  25.635  0.00  0.00    +0.000 F 
ATOM     21  F   UNL     1     -13.097  35.014  25.096  0.00  0.00    +0.000 F 
ATOM     22  F   UNL     1     -13.241  34.242  27.120  0.00  0.00    +0.000 F 
ATOM     23  C   UNL     1     -13.183  33.863  25.820  0.00  0.00    +0.000 C 
ENDBRANCH   7  23
TORSDOF 5
ENDMDL
MODEL 8
REMARK VINA RESULT:      -6.0     18.185     19.700
REMARK  Name = 6256_Trifluridine.pdbqt.pdb
REMARK  5 active torsions:
REMARK  status: ('A' for Active; 'I' for Inactive)
REMARK    1  A    between atoms: N_3  and  C1*_11
REMARK    2  A    between atoms: C_7  and  C_23
REMARK    3  A    between atoms: C3*_12  and  O3*_15
REMARK    4  A    between atoms: C4*_14  and  C5*_17
REMARK    5  A    between atoms: C5*_17  and  O5*_18
REMARK                            x       y       z     vdW  Elec       q    Type
REMARK                         _______ _______ _______ _____ _____    ______ ____
ROOT
ATOM      1  O   UNL     1     -15.991  34.424  21.819  0.00  0.00    +0.000 OA
ATOM      2  O   UNL     1     -15.776  29.845  21.606  0.00  0.00    +0.000 OA
ATOM      3  N   UNL     1     -15.377  33.246  23.779  0.00  0.00    +0.000 N 
ATOM      4  N   UNL     1     -15.859  32.132  21.773  0.00  0.00    +0.000 N 
ATOM      5  C   UNL     1     -15.177  31.991  24.230  0.00  0.00    +0.000 A 
ATOM      6  C   UNL     1     -15.758  33.385  22.426  0.00  0.00    +0.000 A 
ATOM      7  C   UNL     1     -15.247  30.805  23.721  0.00  0.00    +0.000 A 
ATOM      8  C   UNL     1     -15.643  30.849  22.290  0.00  0.00    +0.000 A 
ATOM      9  H   UNL     1     -16.131  32.177  20.801  0.00  0.00    +0.000 HD
ENDROOT
BRANCH   3  11
ATOM     10  O4* UNL     1     -16.271  34.816  25.387  0.00  0.00    +0.000 OA
ATOM     11  C1* UNL     1     -15.211  34.294  24.638  0.00  0.00    +0.000 A 
ATOM     12  C3* UNL     1     -14.350  36.026  25.843  0.00  0.00    +0.000 A 
ATOM     13  C2* UNL     1     -14.039  35.030  24.901  0.00  0.00    +0.000 A 
ATOM     14  C4* UNL     1     -15.755  35.884  26.132  0.00  0.00    +0.000 A 
BRANCH  12  15
ATOM     15  O3* UNL     1     -13.740  37.248  25.898  0.00  0.00    +0.000 OA
ATOM     16  H3* UNL     1     -12.822  37.166  26.210  0.00  0.00    +0.000 HD
ENDBRANCH  12  15
BRANCH  14  17
ATOM     17  C5* UNL     1     -16.579  36.774  26.849  0.00  0.00    +0.000 C 
BRANCH  17  18
ATOM     18  O5* UNL     1     -17.359  37.612  27.525  0.00  0.00    +0.000 OA
ATOM     19  H5* UNL     1     -18.163  37.810  27.014  0.00  0.00    +0.000 HD
ENDBRANCH  17  18
ENDBRANCH  14  17
ENDBRANCH   3  11
BRANCH   7  23
ATOM     20  F   UNL     1     -16.151  28.744  24.402  0.00  0.00    +0.000 F 
ATOM     21  F   UNL     1     -14.115  28.755  23.646  0.00  0.00    +0.000 F 
ATOM     22  F   UNL     1     -14.533  29.594  25.604  0.00  0.00    +0.000 F 
ATOM     23  C   UNL     1     -15.022  29.494  24.343  0.00  0.00    +0.000 C 
ENDBRANCH   7  23
TORSDOF 5
ENDMDL
MODEL 9
REMARK VINA RESULT:      -6.0     10.436     13.195
REMARK  Name = 6256_Trifluridine.pdbqt.pdb
REMARK  5 active torsions:
REMARK  status: ('A' for Active; 'I' for Inactive)
REMARK    1  A    between atoms: N_3  and  C1*_11
REMARK    2  A    between atoms: C_7  and  C_23
REMARK    3  A    between atoms: C3*_12  and  O3*_15
REMARK    4  A    between atoms: C4*_14  and  C5*_17
REMARK    5  A    between atoms: C5*_17  and  O5*_18
REMARK                            x       y       z     vdW  Elec       q    Type
REMARK                         _______ _______ _______ _____ _____    ______ ____
ROOT
ATOM      1  O   UNL     1      -1.862  44.692  14.938  0.00  0.00    +0.000 OA
ATOM      2  O   UNL     1       2.478  46.163  14.689  0.00  0.00    +0.000 OA
ATOM      3  N   UNL     1      -0.183  43.387  15.980  0.00  0.00    +0.000 N 
ATOM      4  N   UNL     1       0.327  45.380  14.854  0.00  0.00    +0.000 N 
ATOM      5  C   UNL     1       1.148  43.365  16.191  0.00  0.00    +0.000 A 
ATOM      6  C   UNL     1      -0.694  44.480  15.243  0.00  0.00    +0.000 A 
ATOM      7  C   UNL     1       2.146  44.125  15.878  0.00  0.00    +0.000 A 
ATOM      8  C   UNL     1       1.704  45.309  15.097  0.00  0.00    +0.000 A 
ATOM      9  H   UNL     1       0.013  46.179  14.322  0.00  0.00    +0.000 HD
ENDROOT
BRANCH   3  11
ATOM     10  O4* UNL     1      -0.963  41.100  15.889  0.00  0.00    +0.000 OA
ATOM     11  C1* UNL     1      -0.951  42.371  16.472  0.00  0.00    +0.000 A 
ATOM     12  C3* UNL     1      -2.423  41.125  17.687  0.00  0.00    +0.000 A 
ATOM     13  C2* UNL     1      -1.843  42.400  17.562  0.00  0.00    +0.000 A 
ATOM     14  C4* UNL     1      -1.867  40.323  16.626  0.00  0.00    +0.000 A 
BRANCH  12  15
ATOM     15  O3* UNL     1      -3.688  40.900  18.150  0.00  0.00    +0.000 OA
ATOM     16  H3* UNL     1      -4.326  40.858  17.416  0.00  0.00    +0.000 HD
ENDBRANCH  12  15
BRANCH  14  17
ATOM     17  C5* UNL     1      -2.287  39.047  16.204  0.00  0.00    +0.000 C 
BRANCH  17  18
ATOM     18  O5* UNL     1      -2.682  37.840  15.808  0.00  0.00    +0.000 OA
ATOM     19  H5* UNL     1      -3.648  37.821  15.701  0.00  0.00    +0.000 HD
ENDBRANCH  17  18
ENDBRANCH  14  17
ENDBRANCH   3  11
BRANCH   7  23
ATOM     20  F   UNL     1       4.031  44.855  17.078  0.00  0.00    +0.000 F 
ATOM     21  F   UNL     1       3.861  42.732  16.656  0.00  0.00    +0.000 F 
ATOM     22  F   UNL     1       4.344  44.107  15.047  0.00  0.00    +0.000 F 
ATOM     23  C   UNL     1       3.579  43.967  16.157  0.00  0.00    +0.000 C 
ENDBRANCH   7  23
TORSDOF 5
ENDMDL
