MODEL 1
REMARK VINA RESULT:      -5.7      0.000      0.000
REMARK  Name = 6323266_Tipiracil.pdbqt.pdb
REMARK  2 active torsions:
REMARK  status: ('A' for Active; 'I' for Inactive)
REMARK    1  A    between atoms: C_6  and  C_12
REMARK    2  A    between atoms: C_12  and  N_13
REMARK                            x       y       z     vdW  Elec       q    Type
REMARK                         _______ _______ _______ _____ _____    ______ ____
ROOT
ATOM      1 CL   UNL     1      14.171  49.402  12.120  0.00  0.00    +0.000 Cl
ATOM      2  O   UNL     1      12.911  52.020  12.882  0.00  0.00    +0.000 OA
ATOM      3  O   UNL     1       8.575  50.785  12.441  0.00  0.00    +0.000 OA
ATOM      4  N   UNL     1      10.192  49.252  12.009  0.00  0.00    +0.000 N 
ATOM      5  N   UNL     1      10.749  51.392  12.669  0.00  0.00    +0.000 N 
ATOM      6  C   UNL     1      11.513  48.893  11.926  0.00  0.00    +0.000 A 
ATOM      7  C   UNL     1      12.490  49.766  12.205  0.00  0.00    +0.000 A 
ATOM      8  C   UNL     1      12.095  51.144  12.612  0.00  0.00    +0.000 A 
ATOM      9  C   UNL     1       9.764  50.494  12.378  0.00  0.00    +0.000 A 
ATOM     10  H   UNL     1       9.469  48.571  11.789  0.00  0.00    +0.000 HD
ATOM     11  H   UNL     1      10.459  52.320  12.943  0.00  0.00    +0.000 HD
ENDROOT
BRANCH   6  12
ATOM     12  C   UNL     1      11.758  47.551  11.527  0.00  0.00    +0.000 C 
BRANCH  12  13
ATOM     13  N   UNL     1      12.113  46.185  11.195  0.00  0.00    +0.000 N 
ATOM     14  N   UNL     1      10.979  46.070   9.004  0.00  0.00    +0.000 NA
ATOM     15  C   UNL     1      13.510  45.784  11.364  0.00  0.00    +0.000 C 
ATOM     16  C   UNL     1      14.305  45.028  10.306  0.00  0.00    +0.000 C 
ATOM     17  C   UNL     1      13.067  45.121   9.413  0.00  0.00    +0.000 C 
ATOM     18  C   UNL     1      11.893  45.833   9.869  0.00  0.00    +0.000 C 
ATOM     19  H   UNL     1      11.216  45.646   8.100  0.00  0.00    +0.000 HD
ENDBRANCH  12  13
ENDBRANCH   6  12
TORSDOF 2
ENDMDL
MODEL 2
REMARK VINA RESULT:      -5.4      2.700      5.545
REMARK  Name = 6323266_Tipiracil.pdbqt.pdb
REMARK  2 active torsions:
REMARK  status: ('A' for Active; 'I' for Inactive)
REMARK    1  A    between atoms: C_6  and  C_12
REMARK    2  A    between atoms: C_12  and  N_13
REMARK                            x       y       z     vdW  Elec       q    Type
REMARK                         _______ _______ _______ _____ _____    ______ ____
ROOT
ATOM      1 CL   UNL     1      14.300  47.589  13.476  0.00  0.00    +0.000 Cl
ATOM      2  O   UNL     1      13.824  45.030  11.976  0.00  0.00    +0.000 OA
ATOM      3  O   UNL     1      10.781  46.596   9.009  0.00  0.00    +0.000 OA
ATOM      4  N   UNL     1      11.642  48.030  10.542  0.00  0.00    +0.000 N 
ATOM      5  N   UNL     1      12.313  45.823  10.492  0.00  0.00    +0.000 N 
ATOM      6  C   UNL     1      12.471  48.297  11.602  0.00  0.00    +0.000 A 
ATOM      7  C   UNL     1      13.240  47.343  12.143  0.00  0.00    +0.000 A 
ATOM      8  C   UNL     1      13.168  45.976  11.552  0.00  0.00    +0.000 A 
ATOM      9  C   UNL     1      11.533  46.804   9.955  0.00  0.00    +0.000 A 
ATOM     10  H   UNL     1      11.066  48.772  10.152  0.00  0.00    +0.000 HD
ATOM     11  H   UNL     1      12.249  44.905  10.077  0.00  0.00    +0.000 HD
ENDROOT
BRANCH   6  12
ATOM     12  C   UNL     1      12.448  49.638  12.074  0.00  0.00    +0.000 C 
BRANCH  12  13
ATOM     13  N   UNL     1      12.393  51.041  12.435  0.00  0.00    +0.000 N 
ATOM     14  N   UNL     1      10.052  51.464  11.772  0.00  0.00    +0.000 NA
ATOM     15  C   UNL     1      12.905  51.426  13.750  0.00  0.00    +0.000 C 
ATOM     16  C   UNL     1      12.155  52.336  14.715  0.00  0.00    +0.000 C 
ATOM     17  C   UNL     1      11.018  52.363  13.692  0.00  0.00    +0.000 C 
ATOM     18  C   UNL     1      11.114  51.581  12.478  0.00  0.00    +0.000 C 
ATOM     19  H   UNL     1       9.286  52.018  12.172  0.00  0.00    +0.000 HD
ENDBRANCH  12  13
ENDBRANCH   6  12
TORSDOF 2
ENDMDL
MODEL 3
REMARK VINA RESULT:      -5.4     14.493     15.599
REMARK  Name = 6323266_Tipiracil.pdbqt.pdb
REMARK  2 active torsions:
REMARK  status: ('A' for Active; 'I' for Inactive)
REMARK    1  A    between atoms: C_6  and  C_12
REMARK    2  A    between atoms: C_12  and  N_13
REMARK                            x       y       z     vdW  Elec       q    Type
REMARK                         _______ _______ _______ _____ _____    ______ ____
ROOT
ATOM      1 CL   UNL     1      -2.014  42.626  17.792  0.00  0.00    +0.000 Cl
ATOM      2  O   UNL     1      -4.004  40.534  16.964  0.00  0.00    +0.000 OA
ATOM      3  O   UNL     1      -1.070  37.459  15.399  0.00  0.00    +0.000 OA
ATOM      4  N   UNL     1      -0.261  39.408  16.233  0.00  0.00    +0.000 N 
ATOM      5  N   UNL     1      -2.531  39.000  16.194  0.00  0.00    +0.000 N 
ATOM      6  C   UNL     1      -0.453  40.639  16.804  0.00  0.00    +0.000 A 
ATOM      7  C   UNL     1      -1.682  41.093  17.084  0.00  0.00    +0.000 A 
ATOM      8  C   UNL     1      -2.839  40.212  16.755  0.00  0.00    +0.000 A 
ATOM      9  C   UNL     1      -1.274  38.553  15.911  0.00  0.00    +0.000 A 
ATOM     10  H   UNL     1       0.683  39.088  16.027  0.00  0.00    +0.000 HD
ATOM     11  H   UNL     1      -3.300  38.388  15.963  0.00  0.00    +0.000 HD
ENDROOT
BRANCH   6  12
ATOM     12  C   UNL     1       0.730  41.382  17.069  0.00  0.00    +0.000 C 
BRANCH  12  13
ATOM     13  N   UNL     1       1.982  42.035  17.397  0.00  0.00    +0.000 N 
ATOM     14  N   UNL     1       3.456  40.670  15.962  0.00  0.00    +0.000 NA
ATOM     15  C   UNL     1       2.015  43.498  17.370  0.00  0.00    +0.000 C 
ATOM     16  C   UNL     1       3.107  44.305  16.677  0.00  0.00    +0.000 C 
ATOM     17  C   UNL     1       3.705  42.971  16.227  0.00  0.00    +0.000 C 
ATOM     18  C   UNL     1       3.038  41.728  16.549  0.00  0.00    +0.000 C 
ATOM     19  H   UNL     1       4.272  40.878  15.374  0.00  0.00    +0.000 HD
ENDBRANCH  12  13
ENDBRANCH   6  12
TORSDOF 2
ENDMDL
MODEL 4
REMARK VINA RESULT:      -5.3     17.861     19.015
REMARK  Name = 6323266_Tipiracil.pdbqt.pdb
REMARK  2 active torsions:
REMARK  status: ('A' for Active; 'I' for Inactive)
REMARK    1  A    between atoms: C_6  and  C_12
REMARK    2  A    between atoms: C_12  and  N_13
REMARK                            x       y       z     vdW  Elec       q    Type
REMARK                         _______ _______ _______ _____ _____    ______ ____
ROOT
ATOM      1 CL   UNL     1      -5.378  44.241  14.191  0.00  0.00    +0.000 Cl
ATOM      2  O   UNL     1      -2.605  43.618  15.164  0.00  0.00    +0.000 OA
ATOM      3  O   UNL     1      -2.064  39.659  13.031  0.00  0.00    +0.000 OA
ATOM      4  N   UNL     1      -4.018  40.782  12.760  0.00  0.00    +0.000 N 
ATOM      5  N   UNL     1      -2.340  41.647  14.087  0.00  0.00    +0.000 N 
ATOM      6  C   UNL     1      -4.827  41.860  13.015  0.00  0.00    +0.000 A 
ATOM      7  C   UNL     1      -4.425  42.858  13.812  0.00  0.00    +0.000 A 
ATOM      8  C   UNL     1      -3.066  42.762  14.415  0.00  0.00    +0.000 A 
ATOM      9  C   UNL     1      -2.764  40.635  13.276  0.00  0.00    +0.000 A 
ATOM     10  H   UNL     1      -4.348  40.035  12.153  0.00  0.00    +0.000 HD
ATOM     11  H   UNL     1      -1.416  41.562  14.484  0.00  0.00    +0.000 HD
ENDROOT
BRANCH   6  12
ATOM     12  C   UNL     1      -6.099  41.833  12.382  0.00  0.00    +0.000 C 
BRANCH  12  13
ATOM     13  N   UNL     1      -7.362  41.693  11.682  0.00  0.00    +0.000 N 
ATOM     14  N   UNL     1      -6.475  40.747   9.581  0.00  0.00    +0.000 NA
ATOM     15  C   UNL     1      -8.474  41.071  12.401  0.00  0.00    +0.000 C 
ATOM     16  C   UNL     1      -9.347  39.968  11.815  0.00  0.00    +0.000 C 
ATOM     17  C   UNL     1      -8.452  40.020  10.575  0.00  0.00    +0.000 C 
ATOM     18  C   UNL     1      -7.309  40.906  10.539  0.00  0.00    +0.000 C 
ATOM     19  H   UNL     1      -6.800  40.021   8.932  0.00  0.00    +0.000 HD
ENDBRANCH  12  13
ENDBRANCH   6  12
TORSDOF 2
ENDMDL
MODEL 5
REMARK VINA RESULT:      -5.2     20.800     22.263
REMARK  Name = 6323266_Tipiracil.pdbqt.pdb
REMARK  2 active torsions:
REMARK  status: ('A' for Active; 'I' for Inactive)
REMARK    1  A    between atoms: C_6  and  C_12
REMARK    2  A    between atoms: C_12  and  N_13
REMARK                            x       y       z     vdW  Elec       q    Type
REMARK                         _______ _______ _______ _____ _____    ______ ____
ROOT
ATOM      1 CL   UNL     1      -6.034  41.956  14.826  0.00  0.00    +0.000 Cl
ATOM      2  O   UNL     1      -5.291  41.654  11.930  0.00  0.00    +0.000 OA
ATOM      3  O   UNL     1      -8.759  39.032  10.662  0.00  0.00    +0.000 OA
ATOM      4  N   UNL     1      -8.638  39.702  12.826  0.00  0.00    +0.000 N 
ATOM      5  N   UNL     1      -7.032  40.353  11.304  0.00  0.00    +0.000 N 
ATOM      6  C   UNL     1      -8.015  40.389  13.836  0.00  0.00    +0.000 A 
ATOM      7  C   UNL     1      -6.884  41.074  13.617  0.00  0.00    +0.000 A 
ATOM      8  C   UNL     1      -6.324  41.066  12.236  0.00  0.00    +0.000 A 
ATOM      9  C   UNL     1      -8.180  39.657  11.542  0.00  0.00    +0.000 A 
ATOM     10  H   UNL     1      -9.494  39.186  13.020  0.00  0.00    +0.000 HD
ATOM     11  H   UNL     1      -6.670  40.335  10.361  0.00  0.00    +0.000 HD
ENDROOT
BRANCH   6  12
ATOM     12  C   UNL     1      -8.647  40.318  15.107  0.00  0.00    +0.000 C 
BRANCH  12  13
ATOM     13  N   UNL     1      -9.400  40.287  16.345  0.00  0.00    +0.000 N 
ATOM     14  N   UNL     1      -7.520  40.708  17.889  0.00  0.00    +0.000 NA
ATOM     15  C   UNL     1     -10.640  41.061  16.408  0.00  0.00    +0.000 C 
ATOM     16  C   UNL     1     -10.996  41.993  17.561  0.00  0.00    +0.000 C 
ATOM     17  C   UNL     1      -9.633  41.650  18.163  0.00  0.00    +0.000 C 
ATOM     18  C   UNL     1      -8.721  40.781  17.451  0.00  0.00    +0.000 C 
ATOM     19  H   UNL     1      -7.411  41.261  18.747  0.00  0.00    +0.000 HD
ENDBRANCH  12  13
ENDBRANCH   6  12
TORSDOF 2
ENDMDL
MODEL 6
REMARK VINA RESULT:      -5.2     17.812     18.814
REMARK  Name = 6323266_Tipiracil.pdbqt.pdb
REMARK  2 active torsions:
REMARK  status: ('A' for Active; 'I' for Inactive)
REMARK    1  A    between atoms: C_6  and  C_12
REMARK    2  A    between atoms: C_12  and  N_13
REMARK                            x       y       z     vdW  Elec       q    Type
REMARK                         _______ _______ _______ _____ _____    ______ ____
ROOT
ATOM      1 CL   UNL     1      -6.091  41.583  15.944  0.00  0.00    +0.000 Cl
ATOM      2  O   UNL     1      -8.111  42.523  13.929  0.00  0.00    +0.000 OA
ATOM      3  O   UNL     1      -5.822  41.418  10.180  0.00  0.00    +0.000 OA
ATOM      4  N   UNL     1      -4.877  40.986  12.198  0.00  0.00    +0.000 N 
ATOM      5  N   UNL     1      -6.965  41.958  12.062  0.00  0.00    +0.000 N 
ATOM      6  C   UNL     1      -4.913  41.009  13.568  0.00  0.00    +0.000 A 
ATOM      7  C   UNL     1      -5.967  41.508  14.229  0.00  0.00    +0.000 A 
ATOM      8  C   UNL     1      -7.103  42.038  13.424  0.00  0.00    +0.000 A 
ATOM      9  C   UNL     1      -5.884  41.451  11.404  0.00  0.00    +0.000 A 
ATOM     10  H   UNL     1      -4.064  40.604  11.720  0.00  0.00    +0.000 HD
ATOM     11  H   UNL     1      -7.724  42.312  11.498  0.00  0.00    +0.000 HD
ENDROOT
BRANCH   6  12
ATOM     12  C   UNL     1      -3.769  40.475  14.220  0.00  0.00    +0.000 C 
BRANCH  12  13
ATOM     13  N   UNL     1      -2.560  39.891  14.768  0.00  0.00    +0.000 N 
ATOM     14  N   UNL     1      -3.214  39.947  17.149  0.00  0.00    +0.000 NA
ATOM     15  C   UNL     1      -2.043  38.676  14.137  0.00  0.00    +0.000 C 
ATOM     16  C   UNL     1      -1.616  37.437  14.915  0.00  0.00    +0.000 C 
ATOM     17  C   UNL     1      -2.061  38.168  16.182  0.00  0.00    +0.000 C 
ATOM     18  C   UNL     1      -2.661  39.482  16.092  0.00  0.00    +0.000 C 
ATOM     19  H   UNL     1      -3.085  39.305  17.939  0.00  0.00    +0.000 HD
ENDBRANCH  12  13
ENDBRANCH   6  12
TORSDOF 2
ENDMDL
MODEL 7
REMARK VINA RESULT:      -5.2     29.562     31.865
REMARK  Name = 6323266_Tipiracil.pdbqt.pdb
REMARK  2 active torsions:
REMARK  status: ('A' for Active; 'I' for Inactive)
REMARK    1  A    between atoms: C_6  and  C_12
REMARK    2  A    between atoms: C_12  and  N_13
REMARK                            x       y       z     vdW  Elec       q    Type
REMARK                         _______ _______ _______ _____ _____    ______ ____
ROOT
ATOM      1 CL   UNL     1       4.193  29.751 -14.986  0.00  0.00    +0.000 Cl
ATOM      2  O   UNL     1       6.273  30.285 -12.885  0.00  0.00    +0.000 OA
ATOM      3  O   UNL     1       4.030  33.469 -10.573  0.00  0.00    +0.000 OA
ATOM      4  N   UNL     1       3.037  32.544 -12.392  0.00  0.00    +0.000 N 
ATOM      5  N   UNL     1       5.141  31.867 -11.731  0.00  0.00    +0.000 N 
ATOM      6  C   UNL     1       3.045  31.668 -13.448  0.00  0.00    +0.000 A 
ATOM      7  C   UNL     1       4.096  30.871 -13.682  0.00  0.00    +0.000 A 
ATOM      8  C   UNL     1       5.260  30.964 -12.756  0.00  0.00    +0.000 A 
ATOM      9  C   UNL     1       4.067  32.675 -11.506  0.00  0.00    +0.000 A 
ATOM     10  H   UNL     1       2.228  33.141 -12.238  0.00  0.00    +0.000 HD
ATOM     11  H   UNL     1       5.919  31.946 -11.091  0.00  0.00    +0.000 HD
ENDROOT
BRANCH   6  12
ATOM     12  C   UNL     1       1.878  31.675 -14.257  0.00  0.00    +0.000 C 
BRANCH  12  13
ATOM     13  N   UNL     1       0.642  31.778 -15.009  0.00  0.00    +0.000 N 
ATOM     14  N   UNL     1      -0.642  30.069 -13.773  0.00  0.00    +0.000 NA
ATOM     15  C   UNL     1       0.106  33.116 -15.260  0.00  0.00    +0.000 C 
ATOM     16  C   UNL     1      -1.351  33.499 -15.029  0.00  0.00    +0.000 C 
ATOM     17  C   UNL     1      -1.566  32.076 -14.510  0.00  0.00    +0.000 C 
ATOM     18  C   UNL     1      -0.452  31.159 -14.417  0.00  0.00    +0.000 C 
ATOM     19  H   UNL     1      -1.618  29.996 -13.462  0.00  0.00    +0.000 HD
ENDBRANCH  12  13
ENDBRANCH   6  12
TORSDOF 2
ENDMDL
MODEL 8
REMARK VINA RESULT:      -5.0      2.506      5.812
REMARK  Name = 6323266_Tipiracil.pdbqt.pdb
REMARK  2 active torsions:
REMARK  status: ('A' for Active; 'I' for Inactive)
REMARK    1  A    between atoms: C_6  and  C_12
REMARK    2  A    between atoms: C_12  and  N_13
REMARK                            x       y       z     vdW  Elec       q    Type
REMARK                         _______ _______ _______ _____ _____    ______ ____
ROOT
ATOM      1 CL   UNL     1      13.830  50.090  11.741  0.00  0.00    +0.000 Cl
ATOM      2  O   UNL     1      14.107  47.181  11.044  0.00  0.00    +0.000 OA
ATOM      3  O   UNL     1       9.929  45.859  12.190  0.00  0.00    +0.000 OA
ATOM      4  N   UNL     1      10.488  48.043  12.452  0.00  0.00    +0.000 N 
ATOM      5  N   UNL     1      12.015  46.532  11.609  0.00  0.00    +0.000 N 
ATOM      6  C   UNL     1      11.393  49.069  12.354  0.00  0.00    +0.000 A 
ATOM      7  C   UNL     1      12.632  48.863  11.889  0.00  0.00    +0.000 A 
ATOM      8  C   UNL     1      12.998  47.478  11.477  0.00  0.00    +0.000 A 
ATOM      9  C   UNL     1      10.758  46.756  12.089  0.00  0.00    +0.000 A 
ATOM     10  H   UNL     1       9.554  48.225  12.812  0.00  0.00    +0.000 HD
ATOM     11  H   UNL     1      12.242  45.587  11.336  0.00  0.00    +0.000 HD
ENDROOT
BRANCH   6  12
ATOM     12  C   UNL     1      10.923  50.341  12.779  0.00  0.00    +0.000 C 
BRANCH  12  13
ATOM     13  N   UNL     1      10.563  51.683  13.194  0.00  0.00    +0.000 N 
ATOM     14  N   UNL     1      11.008  51.417  15.608  0.00  0.00    +0.000 NA
ATOM     15  C   UNL     1      11.108  52.803  12.426  0.00  0.00    +0.000 C 
ATOM     16  C   UNL     1      11.762  54.024  13.062  0.00  0.00    +0.000 C 
ATOM     17  C   UNL     1      11.542  53.345  14.415  0.00  0.00    +0.000 C 
ATOM     18  C   UNL     1      10.962  52.021  14.480  0.00  0.00    +0.000 C 
ATOM     19  H   UNL     1      11.416  52.022  16.329  0.00  0.00    +0.000 HD
ENDBRANCH  12  13
ENDBRANCH   6  12
TORSDOF 2
ENDMDL
MODEL 9
REMARK VINA RESULT:      -5.0     17.320     18.399
REMARK  Name = 6323266_Tipiracil.pdbqt.pdb
REMARK  2 active torsions:
REMARK  status: ('A' for Active; 'I' for Inactive)
REMARK    1  A    between atoms: C_6  and  C_12
REMARK    2  A    between atoms: C_12  and  N_13
REMARK                            x       y       z     vdW  Elec       q    Type
REMARK                         _______ _______ _______ _____ _____    ______ ____
ROOT
ATOM      1 CL   UNL     1      -4.402  44.210  13.271  0.00  0.00    +0.000 Cl
ATOM      2  O   UNL     1      -6.452  44.730  11.137  0.00  0.00    +0.000 OA
ATOM      3  O   UNL     1      -7.025  40.452   9.761  0.00  0.00    +0.000 OA
ATOM      4  N   UNL     1      -5.550  40.868  11.435  0.00  0.00    +0.000 N 
ATOM      5  N   UNL     1      -6.739  42.589  10.463  0.00  0.00    +0.000 N 
ATOM      6  C   UNL     1      -4.913  41.736  12.284  0.00  0.00    +0.000 A 
ATOM      7  C   UNL     1      -5.161  43.052  12.249  0.00  0.00    +0.000 A 
ATOM      8  C   UNL     1      -6.157  43.544  11.256  0.00  0.00    +0.000 A 
ATOM      9  C   UNL     1      -6.473  41.253  10.507  0.00  0.00    +0.000 A 
ATOM     10  H   UNL     1      -5.341  39.873  11.479  0.00  0.00    +0.000 HD
ATOM     11  H   UNL     1      -7.417  42.902   9.784  0.00  0.00    +0.000 HD
ENDROOT
BRANCH   6  12
ATOM     12  C   UNL     1      -3.985  41.142  13.183  0.00  0.00    +0.000 C 
BRANCH  12  13
ATOM     13  N   UNL     1      -2.987  40.654  14.114  0.00  0.00    +0.000 N 
ATOM     14  N   UNL     1      -4.393  40.662  16.144  0.00  0.00    +0.000 NA
ATOM     15  C   UNL     1      -2.204  39.482  13.721  0.00  0.00    +0.000 C 
ATOM     16  C   UNL     1      -1.969  38.280  14.629  0.00  0.00    +0.000 C 
ATOM     17  C   UNL     1      -2.860  38.977  15.659  0.00  0.00    +0.000 C 
ATOM     18  C   UNL     1      -3.490  40.240  15.341  0.00  0.00    +0.000 C 
ATOM     19  H   UNL     1      -4.487  40.034  16.950  0.00  0.00    +0.000 HD
ENDBRANCH  12  13
ENDBRANCH   6  12
TORSDOF 2
ENDMDL
