MODEL 1
REMARK VINA RESULT:      -7.1      0.000      0.000
REMARK  Name = 6325056_Deoxyelephantopin.pdbqt.pdb
REMARK  3 active torsions:
REMARK  status: ('A' for Active; 'I' for Inactive)
REMARK    1  A    between atoms: C_6  and  O_20
REMARK    2  A    between atoms: O_20  and  C_22
REMARK    3  A    between atoms: C_22  and  C_23
REMARK                            x       y       z     vdW  Elec       q    Type
REMARK                         _______ _______ _______ _____ _____    ______ ____
ROOT
ATOM      1  O   UNL     1      -2.883  40.033  17.219  0.00  0.00    +0.000 OA
ATOM      2  O   UNL     1      -0.263  45.994  17.562  0.00  0.00    +0.000 OA
ATOM      3  O   UNL     1      -2.825  37.881  16.417  0.00  0.00    +0.000 OA
ATOM      4  O   UNL     1       1.903  45.200  17.303  0.00  0.00    +0.000 OA
ATOM      5  C   UNL     1      -0.833  40.829  16.362  0.00  0.00    +0.000 C 
ATOM      6  C   UNL     1       0.330  41.676  16.098  0.00  0.00    +0.000 C 
ATOM      7  C   UNL     1      -2.025  41.136  17.132  0.00  0.00    +0.000 C 
ATOM      8  C   UNL     1       0.244  43.073  15.865  0.00  0.00    +0.000 C 
ATOM      9  C   UNL     1      -1.019  39.449  15.965  0.00  0.00    +0.000 C 
ATOM     10  C   UNL     1       0.129  44.498  15.805  0.00  0.00    +0.000 C 
ATOM     11  C   UNL     1      -2.440  42.364  17.699  0.00  0.00    +0.000 C 
ATOM     12  C   UNL     1      -1.454  45.622  16.904  0.00  0.00    +0.000 C 
ATOM     13  C   UNL     1      -2.333  44.815  17.687  0.00  0.00    +0.000 C 
ATOM     14  C   UNL     1      -2.891  43.621  18.197  0.00  0.00    +0.000 C 
ATOM     15  C   UNL     1      -1.131  45.092  15.638  0.00  0.00    +0.000 C 
ATOM     16  C   UNL     1      -2.314  38.982  16.529  0.00  0.00    +0.000 C 
ATOM     17  C   UNL     1       0.744  45.272  16.936  0.00  0.00    +0.000 C 
ATOM     18  C   UNL     1      -0.220  38.730  15.168  0.00  0.00    +0.000 C 
ATOM     19  C   UNL     1      -4.120  43.680  19.046  0.00  0.00    +0.000 C 
ENDROOT
BRANCH   6  20
ATOM     20  O   UNL     1       1.573  41.087  15.806  0.00  0.00    +0.000 OA
BRANCH  20  22
ATOM     21  O   UNL     1       2.318  40.930  17.978  0.00  0.00    +0.000 OA
ATOM     22  C   UNL     1       2.524  41.198  16.796  0.00  0.00    +0.000 C 
BRANCH  22  23
ATOM     23  C   UNL     1       3.826  41.681  16.209  0.00  0.00    +0.000 C 
ATOM     24  C   UNL     1       4.175  43.152  16.062  0.00  0.00    +0.000 C 
ATOM     25  C   UNL     1       4.790  40.831  15.834  0.00  0.00    +0.000 C 
ENDBRANCH  22  23
ENDBRANCH  20  22
ENDBRANCH   6  20
TORSDOF 3
ENDMDL
MODEL 2
REMARK VINA RESULT:      -6.6     20.077     22.547
REMARK  Name = 6325056_Deoxyelephantopin.pdbqt.pdb
REMARK  3 active torsions:
REMARK  status: ('A' for Active; 'I' for Inactive)
REMARK    1  A    between atoms: C_6  and  O_20
REMARK    2  A    between atoms: O_20  and  C_22
REMARK    3  A    between atoms: C_22  and  C_23
REMARK                            x       y       z     vdW  Elec       q    Type
REMARK                         _______ _______ _______ _____ _____    ______ ____
ROOT
ATOM      1  O   UNL     1       3.396  21.809  29.646  0.00  0.00    +0.000 OA
ATOM      2  O   UNL     1      -2.512  24.569  29.599  0.00  0.00    +0.000 OA
ATOM      3  O   UNL     1       5.684  22.014  29.644  0.00  0.00    +0.000 OA
ATOM      4  O   UNL     1      -1.786  26.451  30.749  0.00  0.00    +0.000 OA
ATOM      5  C   UNL     1       2.796  24.086  29.804  0.00  0.00    +0.000 C 
ATOM      6  C   UNL     1       2.012  25.312  29.959  0.00  0.00    +0.000 C 
ATOM      7  C   UNL     1       2.330  22.714  29.711  0.00  0.00    +0.000 C 
ATOM      8  C   UNL     1       0.757  25.523  29.330  0.00  0.00    +0.000 C 
ATOM      9  C   UNL     1       4.239  23.968  29.779  0.00  0.00    +0.000 C 
ATOM     10  C   UNL     1      -0.575  25.624  28.817  0.00  0.00    +0.000 C 
ATOM     11  C   UNL     1       1.010  22.216  29.602  0.00  0.00    +0.000 C 
ATOM     12  C   UNL     1      -1.898  23.848  28.552  0.00  0.00    +0.000 C 
ATOM     13  C   UNL     1      -1.324  22.604  28.951  0.00  0.00    +0.000 C 
ATOM     14  C   UNL     1      -0.315  21.726  29.409  0.00  0.00    +0.000 C 
ATOM     15  C   UNL     1      -1.025  24.708  27.855  0.00  0.00    +0.000 C 
ATOM     16  C   UNL     1       4.577  22.522  29.688  0.00  0.00    +0.000 C 
ATOM     17  C   UNL     1      -1.686  25.660  29.827  0.00  0.00    +0.000 C 
ATOM     18  C   UNL     1       5.125  24.970  29.761  0.00  0.00    +0.000 C 
ATOM     19  C   UNL     1      -0.567  20.253  29.432  0.00  0.00    +0.000 C 
ENDROOT
BRANCH   6  20
ATOM     20  O   UNL     1       2.598  26.448  30.541  0.00  0.00    +0.000 OA
BRANCH  20  22
ATOM     21  O   UNL     1       1.430  26.422  32.524  0.00  0.00    +0.000 OA
ATOM     22  C   UNL     1       1.870  27.033  31.553  0.00  0.00    +0.000 C 
BRANCH  22  23
ATOM     23  C   UNL     1       1.712  28.509  31.288  0.00  0.00    +0.000 C 
ATOM     24  C   UNL     1       2.886  29.473  31.233  0.00  0.00    +0.000 C 
ATOM     25  C   UNL     1       0.519  29.056  31.019  0.00  0.00    +0.000 C 
ENDBRANCH  22  23
ENDBRANCH  20  22
ENDBRANCH   6  20
TORSDOF 3
ENDMDL
MODEL 3
REMARK VINA RESULT:      -6.5      1.661      5.063
REMARK  Name = 6325056_Deoxyelephantopin.pdbqt.pdb
REMARK  3 active torsions:
REMARK  status: ('A' for Active; 'I' for Inactive)
REMARK    1  A    between atoms: C_6  and  O_20
REMARK    2  A    between atoms: O_20  and  C_22
REMARK    3  A    between atoms: C_22  and  C_23
REMARK                            x       y       z     vdW  Elec       q    Type
REMARK                         _______ _______ _______ _____ _____    ______ ____
ROOT
ATOM      1  O   UNL     1      -3.485  40.805  18.030  0.00  0.00    +0.000 OA
ATOM      2  O   UNL     1       2.510  42.020  15.770  0.00  0.00    +0.000 OA
ATOM      3  O   UNL     1      -5.181  41.264  19.510  0.00  0.00    +0.000 OA
ATOM      4  O   UNL     1       2.411  44.269  16.339  0.00  0.00    +0.000 OA
ATOM      5  C   UNL     1      -1.970  42.514  18.623  0.00  0.00    +0.000 C 
ATOM      6  C   UNL     1      -0.819  43.419  18.618  0.00  0.00    +0.000 C 
ATOM      7  C   UNL     1      -2.234  41.375  17.764  0.00  0.00    +0.000 C 
ATOM      8  C   UNL     1       0.511  42.991  18.364  0.00  0.00    +0.000 C 
ATOM      9  C   UNL     1      -3.150  42.606  19.456  0.00  0.00    +0.000 C 
ATOM     10  C   UNL     1       1.803  42.549  17.937  0.00  0.00    +0.000 C 
ATOM     11  C   UNL     1      -1.398  40.756  16.805  0.00  0.00    +0.000 C 
ATOM     12  C   UNL     1       2.081  40.881  16.484  0.00  0.00    +0.000 C 
ATOM     13  C   UNL     1       0.873  40.299  15.995  0.00  0.00    +0.000 C 
ATOM     14  C   UNL     1      -0.521  40.087  15.901  0.00  0.00    +0.000 C 
ATOM     15  C   UNL     1       2.082  41.176  17.862  0.00  0.00    +0.000 C 
ATOM     16  C   UNL     1      -4.082  41.521  19.048  0.00  0.00    +0.000 C 
ATOM     17  C   UNL     1       2.303  43.091  16.629  0.00  0.00    +0.000 C 
ATOM     18  C   UNL     1      -3.352  43.456  20.470  0.00  0.00    +0.000 C 
ATOM     19  C   UNL     1      -1.047  38.976  15.050  0.00  0.00    +0.000 C 
ENDROOT
BRANCH   6  20
ATOM     20  O   UNL     1      -0.952  44.723  19.124  0.00  0.00    +0.000 OA
BRANCH  20  22
ATOM     21  O   UNL     1       0.619  46.301  18.542  0.00  0.00    +0.000 OA
ATOM     22  C   UNL     1      -0.441  45.720  18.322  0.00  0.00    +0.000 C 
BRANCH  22  23
ATOM     23  C   UNL     1      -1.364  45.969  17.156  0.00  0.00    +0.000 C 
ATOM     24  C   UNL     1      -0.941  45.782  15.708  0.00  0.00    +0.000 C 
ATOM     25  C   UNL     1      -2.646  46.312  17.331  0.00  0.00    +0.000 C 
ENDBRANCH  22  23
ENDBRANCH  20  22
ENDBRANCH   6  20
TORSDOF 3
ENDMDL
MODEL 4
REMARK VINA RESULT:      -6.5      8.030     11.344
REMARK  Name = 6325056_Deoxyelephantopin.pdbqt.pdb
REMARK  3 active torsions:
REMARK  status: ('A' for Active; 'I' for Inactive)
REMARK    1  A    between atoms: C_6  and  O_20
REMARK    2  A    between atoms: O_20  and  C_22
REMARK    3  A    between atoms: C_22  and  C_23
REMARK                            x       y       z     vdW  Elec       q    Type
REMARK                         _______ _______ _______ _____ _____    ______ ____
ROOT
ATOM      1  O   UNL     1      -7.231  41.587  16.670  0.00  0.00    +0.000 OA
ATOM      2  O   UNL     1      -7.503  40.017  10.346  0.00  0.00    +0.000 OA
ATOM      3  O   UNL     1      -8.296  41.970  18.668  0.00  0.00    +0.000 OA
ATOM      4  O   UNL     1      -9.381  38.681  10.623  0.00  0.00    +0.000 OA
ATOM      5  C   UNL     1      -9.072  40.888  15.369  0.00  0.00    +0.000 C 
ATOM      6  C   UNL     1      -9.879  40.359  14.268  0.00  0.00    +0.000 C 
ATOM      7  C   UNL     1      -7.645  41.154  15.404  0.00  0.00    +0.000 C 
ATOM      8  C   UNL     1      -9.660  40.695  12.906  0.00  0.00    +0.000 C 
ATOM      9  C   UNL     1      -9.519  41.199  16.710  0.00  0.00    +0.000 C 
ATOM     10  C   UNL     1      -9.299  40.924  11.541  0.00  0.00    +0.000 C 
ATOM     11  C   UNL     1      -6.695  41.112  14.357  0.00  0.00    +0.000 C 
ATOM     12  C   UNL     1      -7.191  41.277  10.901  0.00  0.00    +0.000 C 
ATOM     13  C   UNL     1      -6.227  41.236  11.951  0.00  0.00    +0.000 C 
ATOM     14  C   UNL     1      -5.758  41.148  13.282  0.00  0.00    +0.000 C 
ATOM     15  C   UNL     1      -8.390  41.945  11.221  0.00  0.00    +0.000 C 
ATOM     16  C   UNL     1      -8.333  41.626  17.499  0.00  0.00    +0.000 C 
ATOM     17  C   UNL     1      -8.795  39.739  10.768  0.00  0.00    +0.000 C 
ATOM     18  C   UNL     1     -10.780  41.188  17.157  0.00  0.00    +0.000 C 
ATOM     19  C   UNL     1      -4.308  41.362  13.574  0.00  0.00    +0.000 C 
ENDROOT
BRANCH   6  20
ATOM     20  O   UNL     1     -11.082  39.688  14.543  0.00  0.00    +0.000 OA
BRANCH  20  22
ATOM     21  O   UNL     1     -12.498  41.439  14.066  0.00  0.00    +0.000 OA
ATOM     22  C   UNL     1     -12.210  40.248  13.983  0.00  0.00    +0.000 C 
BRANCH  22  23
ATOM     23  C   UNL     1     -13.006  39.190  13.261  0.00  0.00    +0.000 C 
ATOM     24  C   UNL     1     -12.726  38.775  11.826  0.00  0.00    +0.000 C 
ATOM     25  C   UNL     1     -13.979  38.500  13.869  0.00  0.00    +0.000 C 
ENDBRANCH  22  23
ENDBRANCH  20  22
ENDBRANCH   6  20
TORSDOF 3
ENDMDL
MODEL 5
REMARK VINA RESULT:      -6.5      3.043      5.214
REMARK  Name = 6325056_Deoxyelephantopin.pdbqt.pdb
REMARK  3 active torsions:
REMARK  status: ('A' for Active; 'I' for Inactive)
REMARK    1  A    between atoms: C_6  and  O_20
REMARK    2  A    between atoms: O_20  and  C_22
REMARK    3  A    between atoms: C_22  and  C_23
REMARK                            x       y       z     vdW  Elec       q    Type
REMARK                         _______ _______ _______ _____ _____    ______ ____
ROOT
ATOM      1  O   UNL     1      -6.619  41.593  17.108  0.00  0.00    +0.000 OA
ATOM      2  O   UNL     1      -1.123  41.151  13.626  0.00  0.00    +0.000 OA
ATOM      3  O   UNL     1      -7.679  41.680  19.145  0.00  0.00    +0.000 OA
ATOM      4  O   UNL     1       0.143  42.236  15.242  0.00  0.00    +0.000 OA
ATOM      5  C   UNL     1      -4.372  41.610  17.831  0.00  0.00    +0.000 C 
ATOM      6  C   UNL     1      -2.910  41.669  17.831  0.00  0.00    +0.000 C 
ATOM      7  C   UNL     1      -5.280  41.567  16.699  0.00  0.00    +0.000 C 
ATOM      8  C   UNL     1      -2.099  40.977  16.895  0.00  0.00    +0.000 C 
ATOM      9  C   UNL     1      -5.250  41.654  18.982  0.00  0.00    +0.000 C 
ATOM     10  C   UNL     1      -1.330  40.402  15.834  0.00  0.00    +0.000 C 
ATOM     11  C   UNL     1      -4.995  41.425  15.320  0.00  0.00    +0.000 C 
ATOM     12  C   UNL     1      -2.128  40.170  13.764  0.00  0.00    +0.000 C 
ATOM     13  C   UNL     1      -3.456  40.656  13.572  0.00  0.00    +0.000 C 
ATOM     14  C   UNL     1      -4.707  41.200  13.943  0.00  0.00    +0.000 C 
ATOM     15  C   UNL     1      -1.921  39.469  14.969  0.00  0.00    +0.000 C 
ATOM     16  C   UNL     1      -6.652  41.651  18.487  0.00  0.00    +0.000 C 
ATOM     17  C   UNL     1      -0.636  41.360  14.909  0.00  0.00    +0.000 C 
ATOM     18  C   UNL     1      -4.886  41.624  20.269  0.00  0.00    +0.000 C 
ATOM     19  C   UNL     1      -5.807  41.286  12.935  0.00  0.00    +0.000 C 
ENDROOT
BRANCH   6  20
ATOM     20  O   UNL     1      -2.233  42.219  18.933  0.00  0.00    +0.000 OA
BRANCH  20  22
ATOM     21  O   UNL     1      -1.506  44.162  17.936  0.00  0.00    +0.000 OA
ATOM     22  C   UNL     1      -1.285  43.170  18.626  0.00  0.00    +0.000 C 
BRANCH  22  23
ATOM     23  C   UNL     1       0.032  42.811  19.267  0.00  0.00    +0.000 C 
ATOM     24  C   UNL     1       0.236  42.761  20.772  0.00  0.00    +0.000 C 
ATOM     25  C   UNL     1       1.097  42.450  18.540  0.00  0.00    +0.000 C 
ENDBRANCH  22  23
ENDBRANCH  20  22
ENDBRANCH   6  20
TORSDOF 3
ENDMDL
MODEL 6
REMARK VINA RESULT:      -6.3      4.979      7.035
REMARK  Name = 6325056_Deoxyelephantopin.pdbqt.pdb
REMARK  3 active torsions:
REMARK  status: ('A' for Active; 'I' for Inactive)
REMARK    1  A    between atoms: C_6  and  O_20
REMARK    2  A    between atoms: O_20  and  C_22
REMARK    3  A    between atoms: C_22  and  C_23
REMARK                            x       y       z     vdW  Elec       q    Type
REMARK                         _______ _______ _______ _____ _____    ______ ____
ROOT
ATOM      1  O   UNL     1      -7.967  40.535  12.859  0.00  0.00    +0.000 OA
ATOM      2  O   UNL     1      -7.732  41.505  19.304  0.00  0.00    +0.000 OA
ATOM      3  O   UNL     1      -7.023  40.776  10.779  0.00  0.00    +0.000 OA
ATOM      4  O   UNL     1      -5.412  41.422  19.364  0.00  0.00    +0.000 OA
ATOM      5  C   UNL     1      -6.231  41.428  14.186  0.00  0.00    +0.000 C 
ATOM      6  C   UNL     1      -5.421  41.819  15.340  0.00  0.00    +0.000 C 
ATOM      7  C   UNL     1      -7.556  40.836  14.164  0.00  0.00    +0.000 C 
ATOM      8  C   UNL     1      -5.964  42.394  16.519  0.00  0.00    +0.000 C 
ATOM      9  C   UNL     1      -5.849  41.484  12.791  0.00  0.00    +0.000 C 
ATOM     10  C   UNL     1      -6.570  42.810  17.747  0.00  0.00    +0.000 C 
ATOM     11  C   UNL     1      -8.463  40.616  15.228  0.00  0.00    +0.000 C 
ATOM     12  C   UNL     1      -8.597  42.126  18.377  0.00  0.00    +0.000 C 
ATOM     13  C   UNL     1      -9.237  41.226  17.475  0.00  0.00    +0.000 C 
ATOM     14  C   UNL     1      -9.403  40.473  16.289  0.00  0.00    +0.000 C 
ATOM     15  C   UNL     1      -7.918  43.198  17.765  0.00  0.00    +0.000 C 
ATOM     16  C   UNL     1      -6.962  40.906  11.990  0.00  0.00    +0.000 C 
ATOM     17  C   UNL     1      -6.451  41.868  18.911  0.00  0.00    +0.000 C 
ATOM     18  C   UNL     1      -4.736  42.027  12.285  0.00  0.00    +0.000 C 
ATOM     19  C   UNL     1     -10.686  39.745  16.046  0.00  0.00    +0.000 C 
ENDROOT
BRANCH   6  20
ATOM     20  O   UNL     1      -4.021  41.877  15.225  0.00  0.00    +0.000 OA
BRANCH  20  22
ATOM     21  O   UNL     1      -3.669  40.032  16.556  0.00  0.00    +0.000 OA
ATOM     22  C   UNL     1      -3.353  40.731  15.597  0.00  0.00    +0.000 C 
BRANCH  22  23
ATOM     23  C   UNL     1      -2.205  40.475  14.653  0.00  0.00    +0.000 C 
ATOM     24  C   UNL     1      -2.126  39.251  13.755  0.00  0.00    +0.000 C 
ATOM     25  C   UNL     1      -1.206  41.353  14.500  0.00  0.00    +0.000 C 
ENDBRANCH  22  23
ENDBRANCH  20  22
ENDBRANCH   6  20
TORSDOF 3
ENDMDL
MODEL 7
REMARK VINA RESULT:      -6.3     24.785     26.444
REMARK  Name = 6325056_Deoxyelephantopin.pdbqt.pdb
REMARK  3 active torsions:
REMARK  status: ('A' for Active; 'I' for Inactive)
REMARK    1  A    between atoms: C_6  and  O_20
REMARK    2  A    between atoms: O_20  and  C_22
REMARK    3  A    between atoms: C_22  and  C_23
REMARK                            x       y       z     vdW  Elec       q    Type
REMARK                         _______ _______ _______ _____ _____    ______ ____
ROOT
ATOM      1  O   UNL     1      16.376  30.137  -0.013  0.00  0.00    +0.000 OA
ATOM      2  O   UNL     1      10.898  29.775  -3.533  0.00  0.00    +0.000 OA
ATOM      3  O   UNL     1      17.552  29.615   1.889  0.00  0.00    +0.000 OA
ATOM      4  O   UNL     1      10.334  27.689  -2.683  0.00  0.00    +0.000 OA
ATOM      5  C   UNL     1      14.406  28.901   0.389  0.00  0.00    +0.000 C 
ATOM      6  C   UNL     1      13.102  28.261   0.208  0.00  0.00    +0.000 C 
ATOM      7  C   UNL     1      15.113  29.794  -0.512  0.00  0.00    +0.000 C 
ATOM      8  C   UNL     1      12.000  28.896  -0.421  0.00  0.00    +0.000 C 
ATOM      9  C   UNL     1      15.322  28.723   1.495  0.00  0.00    +0.000 C 
ATOM     10  C   UNL     1      10.973  29.506  -1.209  0.00  0.00    +0.000 C 
ATOM     11  C   UNL     1      14.675  30.389  -1.718  0.00  0.00    +0.000 C 
ATOM     12  C   UNL     1      11.421  30.912  -2.882  0.00  0.00    +0.000 C 
ATOM     13  C   UNL     1      12.808  31.142  -3.121  0.00  0.00    +0.000 C 
ATOM     14  C   UNL     1      14.200  31.050  -2.889  0.00  0.00    +0.000 C 
ATOM     15  C   UNL     1      11.051  30.872  -1.523  0.00  0.00    +0.000 C 
ATOM     16  C   UNL     1      16.551  29.508   1.202  0.00  0.00    +0.000 C 
ATOM     17  C   UNL     1      10.653  28.854  -2.524  0.00  0.00    +0.000 C 
ATOM     18  C   UNL     1      15.092  28.043   2.625  0.00  0.00    +0.000 C 
ATOM     19  C   UNL     1      15.146  31.862  -3.713  0.00  0.00    +0.000 C 
ENDROOT
BRANCH   6  20
ATOM     20  O   UNL     1      12.809  27.067   0.889  0.00  0.00    +0.000 OA
BRANCH  20  22
ATOM     21  O   UNL     1      12.947  25.666  -0.932  0.00  0.00    +0.000 OA
ATOM     22  C   UNL     1      13.196  25.912   0.246  0.00  0.00    +0.000 C 
BRANCH  22  23
ATOM     23  C   UNL     1      13.964  25.027   1.194  0.00  0.00    +0.000 C 
ATOM     24  C   UNL     1      13.357  24.441   2.458  0.00  0.00    +0.000 C 
ATOM     25  C   UNL     1      15.224  24.648   0.944  0.00  0.00    +0.000 C 
ENDBRANCH  22  23
ENDBRANCH  20  22
ENDBRANCH   6  20
TORSDOF 3
ENDMDL
MODEL 8
REMARK VINA RESULT:      -6.2     13.147     16.931
REMARK  Name = 6325056_Deoxyelephantopin.pdbqt.pdb
REMARK  3 active torsions:
REMARK  status: ('A' for Active; 'I' for Inactive)
REMARK    1  A    between atoms: C_6  and  O_20
REMARK    2  A    between atoms: O_20  and  C_22
REMARK    3  A    between atoms: C_22  and  C_23
REMARK                            x       y       z     vdW  Elec       q    Type
REMARK                         _______ _______ _______ _____ _____    ______ ____
ROOT
ATOM      1  O   UNL     1      16.985  47.902  10.543  0.00  0.00    +0.000 OA
ATOM      2  O   UNL     1      11.093  45.114  10.339  0.00  0.00    +0.000 OA
ATOM      3  O   UNL     1      18.299  49.740  10.956  0.00  0.00    +0.000 OA
ATOM      4  O   UNL     1      10.266  46.430  12.064  0.00  0.00    +0.000 OA
ATOM      5  C   UNL     1      14.892  48.751  11.230  0.00  0.00    +0.000 C 
ATOM      6  C   UNL     1      13.478  48.841  11.594  0.00  0.00    +0.000 C 
ATOM      7  C   UNL     1      15.622  47.618  10.689  0.00  0.00    +0.000 C 
ATOM      8  C   UNL     1      12.439  48.210  10.860  0.00  0.00    +0.000 C 
ATOM      9  C   UNL     1      15.906  49.770  11.400  0.00  0.00    +0.000 C 
ATOM     10  C   UNL     1      11.448  47.423  10.194  0.00  0.00    +0.000 C 
ATOM     11  C   UNL     1      15.138  46.366  10.241  0.00  0.00    +0.000 C 
ATOM     12  C   UNL     1      11.913  45.460   9.244  0.00  0.00    +0.000 C 
ATOM     13  C   UNL     1      13.270  45.037   9.367  0.00  0.00    +0.000 C 
ATOM     14  C   UNL     1      14.636  45.140   9.715  0.00  0.00    +0.000 C 
ATOM     15  C   UNL     1      11.741  46.829   8.957  0.00  0.00    +0.000 C 
ATOM     16  C   UNL     1      17.208  49.197  10.966  0.00  0.00    +0.000 C 
ATOM     17  C   UNL     1      10.824  46.311  10.988  0.00  0.00    +0.000 C 
ATOM     18  C   UNL     1      15.714  51.033  11.798  0.00  0.00    +0.000 C 
ATOM     19  C   UNL     1      15.593  44.073   9.289  0.00  0.00    +0.000 C 
ENDROOT
BRANCH   6  20
ATOM     20  O   UNL     1      13.061  49.780  12.553  0.00  0.00    +0.000 OA
BRANCH  20  22
ATOM     21  O   UNL     1      12.085  48.370  14.089  0.00  0.00    +0.000 OA
ATOM     22  C   UNL     1      12.033  49.367  13.372  0.00  0.00    +0.000 C 
BRANCH  22  23
ATOM     23  C   UNL     1      10.869  50.318  13.257  0.00  0.00    +0.000 C 
ATOM     24  C   UNL     1       9.732  50.122  12.267  0.00  0.00    +0.000 C 
ATOM     25  C   UNL     1      10.733  51.371  14.073  0.00  0.00    +0.000 C 
ENDBRANCH  22  23
ENDBRANCH  20  22
ENDBRANCH   6  20
TORSDOF 3
ENDMDL
MODEL 9
REMARK VINA RESULT:      -6.0     22.783     25.004
REMARK  Name = 6325056_Deoxyelephantopin.pdbqt.pdb
REMARK  3 active torsions:
REMARK  status: ('A' for Active; 'I' for Inactive)
REMARK    1  A    between atoms: C_6  and  O_20
REMARK    2  A    between atoms: O_20  and  C_22
REMARK    3  A    between atoms: C_22  and  C_23
REMARK                            x       y       z     vdW  Elec       q    Type
REMARK                         _______ _______ _______ _____ _____    ______ ____
ROOT
ATOM      1  O   UNL     1      -0.432  21.981   0.548  0.00  0.00    +0.000 OA
ATOM      2  O   UNL     1      -5.124  22.297   5.066  0.00  0.00    +0.000 OA
ATOM      3  O   UNL     1       1.791  21.783   0.003  0.00  0.00    +0.000 OA
ATOM      4  O   UNL     1      -3.959  20.953   6.558  0.00  0.00    +0.000 OA
ATOM      5  C   UNL     1      -0.293  21.701   2.887  0.00  0.00    +0.000 C 
ATOM      6  C   UNL     1      -0.659  21.518   4.292  0.00  0.00    +0.000 C 
ATOM      7  C   UNL     1      -1.158  21.934   1.745  0.00  0.00    +0.000 C 
ATOM      8  C   UNL     1      -1.712  22.228   4.925  0.00  0.00    +0.000 C 
ATOM      9  C   UNL     1       1.033  21.618   2.311  0.00  0.00    +0.000 C 
ATOM     10  C   UNL     1      -2.884  22.838   5.474  0.00  0.00    +0.000 C 
ATOM     11  C   UNL     1      -2.549  22.187   1.705  0.00  0.00    +0.000 C 
ATOM     12  C   UNL     1      -4.668  23.341   4.234  0.00  0.00    +0.000 C 
ATOM     13  C   UNL     1      -4.562  22.992   2.854  0.00  0.00    +0.000 C 
ATOM     14  C   UNL     1      -3.934  22.522   1.678  0.00  0.00    +0.000 C 
ATOM     15  C   UNL     1      -3.503  23.899   4.797  0.00  0.00    +0.000 C 
ATOM     16  C   UNL     1       0.903  21.790   0.839  0.00  0.00    +0.000 C 
ATOM     17  C   UNL     1      -4.022  21.921   5.820  0.00  0.00    +0.000 C 
ATOM     18  C   UNL     1       2.188  21.489   2.974  0.00  0.00    +0.000 C 
ATOM     19  C   UNL     1      -4.641  22.631   0.365  0.00  0.00    +0.000 C 
ENDROOT
BRANCH   6  20
ATOM     20  O   UNL     1       0.196  20.806   5.151  0.00  0.00    +0.000 OA
BRANCH  20  22
ATOM     21  O   UNL     1      -0.577  19.880   7.111  0.00  0.00    +0.000 OA
ATOM     22  C   UNL     1      -0.409  19.817   5.896  0.00  0.00    +0.000 C 
BRANCH  22  23
ATOM     23  C   UNL     1      -0.827  18.679   4.999  0.00  0.00    +0.000 C 
ATOM     24  C   UNL     1       0.143  17.933   4.098  0.00  0.00    +0.000 C 
ATOM     25  C   UNL     1      -2.081  18.211   4.990  0.00  0.00    +0.000 C 
ENDBRANCH  22  23
ENDBRANCH  20  22
ENDBRANCH   6  20
TORSDOF 3
ENDMDL
