MODEL 1
REMARK VINA RESULT:      -7.5      0.000      0.000
REMARK  Name = 641785_Cardamonin.pdbqt.pdb
REMARK  6 active torsions:
REMARK  status: ('A' for Active; 'I' for Inactive)
REMARK    1  A    between atoms: C_1  and  C_14
REMARK    2  A    between atoms: C_2  and  O_7
REMARK    3  A    between atoms: C_3  and  O_9
REMARK    4  A    between atoms: C_6  and  O_11
REMARK    5  A    between atoms: C_14  and  C_15
REMARK    6  A    between atoms: C_16  and  C_17
REMARK                            x       y       z     vdW  Elec       q    Type
REMARK                         _______ _______ _______ _____ _____    ______ ____
ROOT
ATOM      1  C   UNL     1       0.594  32.426  15.891  0.00  0.00    +0.000 A 
ATOM      2  C   UNL     1      -0.158  31.257  15.669  0.00  0.00    +0.000 A 
ATOM      3  C   UNL     1       0.106  33.652  15.393  0.00  0.00    +0.000 A 
ATOM      4  C   UNL     1      -1.354  31.338  14.940  0.00  0.00    +0.000 A 
ATOM      5  C   UNL     1      -1.079  33.713  14.661  0.00  0.00    +0.000 A 
ATOM      6  C   UNL     1      -1.799  32.552  14.434  0.00  0.00    +0.000 A 
ENDROOT
BRANCH   2   7
ATOM      7  O   UNL     1       0.258  30.077  16.240  0.00  0.00    +0.000 OA
ATOM      8  C   UNL     1       0.636  29.064  15.350  0.00  0.00    +0.000 C 
ENDBRANCH   2   7
BRANCH   3   9
ATOM      9  O   UNL     1       0.743  34.854  15.579  0.00  0.00    +0.000 OA
ATOM     10  H   UNL     1       1.051  34.924  16.510  0.00  0.00    +0.000 HD
ENDBRANCH   3   9
BRANCH   6  11
ATOM     11  O   UNL     1      -2.954  32.627  13.717  0.00  0.00    +0.000 OA
ATOM     12  H   UNL     1      -3.703  32.710  14.334  0.00  0.00    +0.000 HD
ENDBRANCH   6  11
BRANCH   1  14
ATOM     13  O   UNL     1       2.081  33.278  17.507  0.00  0.00    +0.000 OA
ATOM     14  C   UNL     1       1.882  32.444  16.630  0.00  0.00    +0.000 C 
BRANCH  14  15
ATOM     15  C   UNL     1       2.943  31.533  16.277  0.00  0.00    +0.000 C 
ATOM     16  C   UNL     1       3.815  30.763  15.971  0.00  0.00    +0.000 C 
BRANCH  16  17
ATOM     17  C   UNL     1       4.853  29.854  15.614  0.00  0.00    +0.000 A 
ATOM     18  C   UNL     1       4.544  28.686  14.919  0.00  0.00    +0.000 A 
ATOM     19  C   UNL     1       6.172  30.132  15.962  0.00  0.00    +0.000 A 
ATOM     20  C   UNL     1       5.557  27.795  14.572  0.00  0.00    +0.000 A 
ATOM     21  C   UNL     1       7.185  29.241  15.614  0.00  0.00    +0.000 A 
ATOM     22  C   UNL     1       6.877  28.074  14.919  0.00  0.00    +0.000 A 
ENDBRANCH  16  17
ENDBRANCH  14  15
ENDBRANCH   1  14
TORSDOF 6
ENDMDL
MODEL 2
REMARK VINA RESULT:      -7.4      2.438      7.035
REMARK  Name = 641785_Cardamonin.pdbqt.pdb
REMARK  6 active torsions:
REMARK  status: ('A' for Active; 'I' for Inactive)
REMARK    1  A    between atoms: C_1  and  C_14
REMARK    2  A    between atoms: C_2  and  O_7
REMARK    3  A    between atoms: C_3  and  O_9
REMARK    4  A    between atoms: C_6  and  O_11
REMARK    5  A    between atoms: C_14  and  C_15
REMARK    6  A    between atoms: C_16  and  C_17
REMARK                            x       y       z     vdW  Elec       q    Type
REMARK                         _______ _______ _______ _____ _____    ______ ____
ROOT
ATOM      1  C   UNL     1       3.078  28.928  15.110  0.00  0.00    +0.000 A 
ATOM      2  C   UNL     1       4.086  29.570  15.854  0.00  0.00    +0.000 A 
ATOM      3  C   UNL     1       3.449  27.946  14.168  0.00  0.00    +0.000 A 
ATOM      4  C   UNL     1       5.428  29.236  15.621  0.00  0.00    +0.000 A 
ATOM      5  C   UNL     1       4.789  27.634  13.942  0.00  0.00    +0.000 A 
ATOM      6  C   UNL     1       5.772  28.287  14.667  0.00  0.00    +0.000 A 
ENDROOT
BRANCH   2   7
ATOM      7  O   UNL     1       3.725  30.453  16.845  0.00  0.00    +0.000 OA
ATOM      8  C   UNL     1       4.388  31.686  16.841  0.00  0.00    +0.000 C 
ENDBRANCH   2   7
BRANCH   3   9
ATOM      9  O   UNL     1       2.547  27.238  13.414  0.00  0.00    +0.000 OA
ATOM     10  H   UNL     1       1.635  27.420  13.732  0.00  0.00    +0.000 HD
ENDBRANCH   3   9
BRANCH   6  11
ATOM     11  O   UNL     1       7.076  27.972  14.435  0.00  0.00    +0.000 OA
ATOM     12  H   UNL     1       7.610  28.786  14.485  0.00  0.00    +0.000 HD
ENDBRANCH   6  11
BRANCH   1  14
ATOM     13  O   UNL     1       0.815  28.312  15.324  0.00  0.00    +0.000 OA
ATOM     14  C   UNL     1       1.631  29.225  15.264  0.00  0.00    +0.000 C 
BRANCH  14  15
ATOM     15  C   UNL     1       1.158  30.588  15.269  0.00  0.00    +0.000 C 
ATOM     16  C   UNL     1       0.763  31.723  15.292  0.00  0.00    +0.000 C 
BRANCH  16  17
ATOM     17  C   UNL     1       0.293  33.069  15.313  0.00  0.00    +0.000 A 
ATOM     18  C   UNL     1      -0.858  33.391  16.030  0.00  0.00    +0.000 A 
ATOM     19  C   UNL     1       0.982  34.057  14.615  0.00  0.00    +0.000 A 
ATOM     20  C   UNL     1      -1.318  34.706  16.049  0.00  0.00    +0.000 A 
ATOM     21  C   UNL     1       0.520  35.372  14.634  0.00  0.00    +0.000 A 
ATOM     22  C   UNL     1      -0.629  35.694  15.351  0.00  0.00    +0.000 A 
ENDBRANCH  16  17
ENDBRANCH  14  15
ENDBRANCH   1  14
TORSDOF 6
ENDMDL
MODEL 3
REMARK VINA RESULT:      -6.9      3.646      7.797
REMARK  Name = 641785_Cardamonin.pdbqt.pdb
REMARK  6 active torsions:
REMARK  status: ('A' for Active; 'I' for Inactive)
REMARK    1  A    between atoms: C_1  and  C_14
REMARK    2  A    between atoms: C_2  and  O_7
REMARK    3  A    between atoms: C_3  and  O_9
REMARK    4  A    between atoms: C_6  and  O_11
REMARK    5  A    between atoms: C_14  and  C_15
REMARK    6  A    between atoms: C_16  and  C_17
REMARK                            x       y       z     vdW  Elec       q    Type
REMARK                         _______ _______ _______ _____ _____    ______ ____
ROOT
ATOM      1  C   UNL     1       7.568  29.805  15.608  0.00  0.00    +0.000 A 
ATOM      2  C   UNL     1       7.227  28.755  14.735  0.00  0.00    +0.000 A 
ATOM      3  C   UNL     1       8.747  29.696  16.374  0.00  0.00    +0.000 A 
ATOM      4  C   UNL     1       8.052  27.622  14.669  0.00  0.00    +0.000 A 
ATOM      5  C   UNL     1       9.550  28.558  16.305  0.00  0.00    +0.000 A 
ATOM      6  C   UNL     1       9.193  27.524  15.456  0.00  0.00    +0.000 A 
ENDROOT
BRANCH   2   7
ATOM      7  O   UNL     1       6.135  28.900  13.910  0.00  0.00    +0.000 OA
ATOM      8  C   UNL     1       5.138  27.925  14.035  0.00  0.00    +0.000 C 
ENDBRANCH   2   7
BRANCH   3   9
ATOM      9  O   UNL     1       9.187  30.673  17.231  0.00  0.00    +0.000 OA
ATOM     10  H   UNL     1       9.014  30.401  18.160  0.00  0.00    +0.000 HD
ENDBRANCH   3   9
BRANCH   6  11
ATOM     11  O   UNL     1       9.986  26.419  15.399  0.00  0.00    +0.000 OA
ATOM     12  H   UNL     1       9.430  25.643  15.204  0.00  0.00    +0.000 HD
ENDBRANCH   6  11
BRANCH   1  14
ATOM     13  O   UNL     1       7.294  32.130  15.869  0.00  0.00    +0.000 OA
ATOM     14  C   UNL     1       6.751  31.035  15.768  0.00  0.00    +0.000 C 
BRANCH  14  15
ATOM     15  C   UNL     1       5.316  30.953  15.883  0.00  0.00    +0.000 C 
ATOM     16  C   UNL     1       4.119  30.871  15.964  0.00  0.00    +0.000 C 
BRANCH  16  17
ATOM     17  C   UNL     1       2.700  30.780  16.065  0.00  0.00    +0.000 A 
ATOM     18  C   UNL     1       1.972  31.841  16.600  0.00  0.00    +0.000 A 
ATOM     19  C   UNL     1       2.044  29.631  15.630  0.00  0.00    +0.000 A 
ATOM     20  C   UNL     1       0.586  31.752  16.701  0.00  0.00    +0.000 A 
ATOM     21  C   UNL     1       0.657  29.543  15.731  0.00  0.00    +0.000 A 
ATOM     22  C   UNL     1      -0.071  30.603  16.266  0.00  0.00    +0.000 A 
ENDBRANCH  16  17
ENDBRANCH  14  15
ENDBRANCH   1  14
TORSDOF 6
ENDMDL
MODEL 4
REMARK VINA RESULT:      -6.6      4.976      8.186
REMARK  Name = 641785_Cardamonin.pdbqt.pdb
REMARK  6 active torsions:
REMARK  status: ('A' for Active; 'I' for Inactive)
REMARK    1  A    between atoms: C_1  and  C_14
REMARK    2  A    between atoms: C_2  and  O_7
REMARK    3  A    between atoms: C_3  and  O_9
REMARK    4  A    between atoms: C_6  and  O_11
REMARK    5  A    between atoms: C_14  and  C_15
REMARK    6  A    between atoms: C_16  and  C_17
REMARK                            x       y       z     vdW  Elec       q    Type
REMARK                         _______ _______ _______ _____ _____    ______ ____
ROOT
ATOM      1  C   UNL     1       9.355  32.529  16.158  0.00  0.00    +0.000 A 
ATOM      2  C   UNL     1       8.709  33.667  16.678  0.00  0.00    +0.000 A 
ATOM      3  C   UNL     1      10.339  32.701  15.163  0.00  0.00    +0.000 A 
ATOM      4  C   UNL     1       9.043  34.934  16.176  0.00  0.00    +0.000 A 
ATOM      5  C   UNL     1      10.651  33.967  14.669  0.00  0.00    +0.000 A 
ATOM      6  C   UNL     1       9.995  35.076  15.175  0.00  0.00    +0.000 A 
ENDROOT
BRANCH   2   7
ATOM      7  O   UNL     1       7.823  33.515  17.719  0.00  0.00    +0.000 OA
ATOM      8  C   UNL     1       7.993  34.386  18.802  0.00  0.00    +0.000 C 
ENDBRANCH   2   7
BRANCH   3   9
ATOM      9  O   UNL     1      11.051  31.665  14.612  0.00  0.00    +0.000 OA
ATOM     10  H   UNL     1      10.493  31.195  13.953  0.00  0.00    +0.000 HD
ENDBRANCH   3   9
BRANCH   6  11
ATOM     11  O   UNL     1      10.309  36.307  14.682  0.00  0.00    +0.000 OA
ATOM     12  H   UNL     1       9.752  36.485  13.903  0.00  0.00    +0.000 HD
ENDBRANCH   6  11
BRANCH   1  14
ATOM     13  O   UNL     1       9.878  30.519  17.267  0.00  0.00    +0.000 OA
ATOM     14  C   UNL     1       9.058  31.144  16.604  0.00  0.00    +0.000 C 
BRANCH  14  15
ATOM     15  C   UNL     1       7.838  30.489  16.200  0.00  0.00    +0.000 C 
ATOM     16  C   UNL     1       6.812  29.954  15.877  0.00  0.00    +0.000 C 
BRANCH  16  17
ATOM     17  C   UNL     1       5.598  29.314  15.489  0.00  0.00    +0.000 A 
ATOM     18  C   UNL     1       5.627  28.271  14.565  0.00  0.00    +0.000 A 
ATOM     19  C   UNL     1       4.386  29.733  16.033  0.00  0.00    +0.000 A 
ATOM     20  C   UNL     1       4.441  27.647  14.184  0.00  0.00    +0.000 A 
ATOM     21  C   UNL     1       3.200  29.108  15.652  0.00  0.00    +0.000 A 
ATOM     22  C   UNL     1       3.229  28.066  14.728  0.00  0.00    +0.000 A 
ENDBRANCH  16  17
ENDBRANCH  14  15
ENDBRANCH   1  14
TORSDOF 6
ENDMDL
MODEL 5
REMARK VINA RESULT:      -6.2      3.829      7.755
REMARK  Name = 641785_Cardamonin.pdbqt.pdb
REMARK  6 active torsions:
REMARK  status: ('A' for Active; 'I' for Inactive)
REMARK    1  A    between atoms: C_1  and  C_14
REMARK    2  A    between atoms: C_2  and  O_7
REMARK    3  A    between atoms: C_3  and  O_9
REMARK    4  A    between atoms: C_6  and  O_11
REMARK    5  A    between atoms: C_14  and  C_15
REMARK    6  A    between atoms: C_16  and  C_17
REMARK                            x       y       z     vdW  Elec       q    Type
REMARK                         _______ _______ _______ _____ _____    ______ ____
ROOT
ATOM      1  C   UNL     1       7.700  30.359  15.547  0.00  0.00    +0.000 A 
ATOM      2  C   UNL     1       6.775  29.304  15.427  0.00  0.00    +0.000 A 
ATOM      3  C   UNL     1       9.045  30.125  15.196  0.00  0.00    +0.000 A 
ATOM      4  C   UNL     1       7.219  28.048  14.989  0.00  0.00    +0.000 A 
ATOM      5  C   UNL     1       9.472  28.867  14.773  0.00  0.00    +0.000 A 
ATOM      6  C   UNL     1       8.556  27.834  14.678  0.00  0.00    +0.000 A 
ENDROOT
BRANCH   2   7
ATOM      7  O   UNL     1       5.443  29.553  15.669  0.00  0.00    +0.000 OA
ATOM      8  C   UNL     1       4.533  28.887  14.839  0.00  0.00    +0.000 C 
ENDBRANCH   2   7
BRANCH   3   9
ATOM      9  O   UNL     1      10.020  31.089  15.245  0.00  0.00    +0.000 OA
ATOM     10  H   UNL     1       9.617  31.957  15.467  0.00  0.00    +0.000 HD
ENDBRANCH   3   9
BRANCH   6  11
ATOM     11  O   UNL     1       8.987  26.610  14.264  0.00  0.00    +0.000 OA
ATOM     12  H   UNL     1       9.702  26.312  14.854  0.00  0.00    +0.000 HD
ENDBRANCH   6  11
BRANCH   1  14
ATOM     13  O   UNL     1       8.092  32.338  16.762  0.00  0.00    +0.000 OA
ATOM     14  C   UNL     1       7.336  31.718  16.022  0.00  0.00    +0.000 C 
BRANCH  14  15
ATOM     15  C   UNL     1       6.059  32.296  15.682  0.00  0.00    +0.000 C 
ATOM     16  C   UNL     1       4.993  32.785  15.417  0.00  0.00    +0.000 C 
BRANCH  16  17
ATOM     17  C   UNL     1       3.729  33.361  15.096  0.00  0.00    +0.000 A 
ATOM     18  C   UNL     1       2.621  33.094  15.898  0.00  0.00    +0.000 A 
ATOM     19  C   UNL     1       3.603  34.187  13.982  0.00  0.00    +0.000 A 
ATOM     20  C   UNL     1       1.385  33.655  15.585  0.00  0.00    +0.000 A 
ATOM     21  C   UNL     1       2.366  34.747  13.669  0.00  0.00    +0.000 A 
ATOM     22  C   UNL     1       1.259  34.480  14.470  0.00  0.00    +0.000 A 
ENDBRANCH  16  17
ENDBRANCH  14  15
ENDBRANCH   1  14
TORSDOF 6
ENDMDL
MODEL 6
REMARK VINA RESULT:      -6.0      6.199      8.875
REMARK  Name = 641785_Cardamonin.pdbqt.pdb
REMARK  6 active torsions:
REMARK  status: ('A' for Active; 'I' for Inactive)
REMARK    1  A    between atoms: C_1  and  C_14
REMARK    2  A    between atoms: C_2  and  O_7
REMARK    3  A    between atoms: C_3  and  O_9
REMARK    4  A    between atoms: C_6  and  O_11
REMARK    5  A    between atoms: C_14  and  C_15
REMARK    6  A    between atoms: C_16  and  C_17
REMARK                            x       y       z     vdW  Elec       q    Type
REMARK                         _______ _______ _______ _____ _____    ______ ____
ROOT
ATOM      1  C   UNL     1       9.140  35.980  16.619  0.00  0.00    +0.000 A 
ATOM      2  C   UNL     1      10.264  35.214  16.254  0.00  0.00    +0.000 A 
ATOM      3  C   UNL     1       9.061  37.319  16.185  0.00  0.00    +0.000 A 
ATOM      4  C   UNL     1      11.281  35.809  15.493  0.00  0.00    +0.000 A 
ATOM      5  C   UNL     1      10.086  37.898  15.438  0.00  0.00    +0.000 A 
ATOM      6  C   UNL     1      11.195  37.138  15.102  0.00  0.00    +0.000 A 
ENDROOT
BRANCH   2   7
ATOM      7  O   UNL     1      10.299  33.880  16.587  0.00  0.00    +0.000 OA
ATOM      8  C   UNL     1      11.572  33.310  16.706  0.00  0.00    +0.000 C 
ENDBRANCH   2   7
BRANCH   3   9
ATOM      9  O   UNL     1       7.998  38.143  16.457  0.00  0.00    +0.000 OA
ATOM     10  H   UNL     1       8.322  38.980  16.857  0.00  0.00    +0.000 HD
ENDBRANCH   3   9
BRANCH   6  11
ATOM     11  O   UNL     1      12.190  37.717  14.373  0.00  0.00    +0.000 OA
ATOM     12  H   UNL     1      11.807  38.089  13.559  0.00  0.00    +0.000 HD
ENDBRANCH   6  11
BRANCH   1  14
ATOM     13  O   UNL     1       7.788  35.927  18.547  0.00  0.00    +0.000 OA
ATOM     14  C   UNL     1       8.021  35.453  17.441  0.00  0.00    +0.000 C 
BRANCH  14  15
ATOM     15  C   UNL     1       7.241  34.329  16.982  0.00  0.00    +0.000 C 
ATOM     16  C   UNL     1       6.606  33.385  16.593  0.00  0.00    +0.000 C 
BRANCH  16  17
ATOM     17  C   UNL     1       5.848  32.269  16.132  0.00  0.00    +0.000 A 
ATOM     18  C   UNL     1       4.475  32.399  15.931  0.00  0.00    +0.000 A 
ATOM     19  C   UNL     1       6.479  31.053  15.885  0.00  0.00    +0.000 A 
ATOM     20  C   UNL     1       3.733  31.308  15.483  0.00  0.00    +0.000 A 
ATOM     21  C   UNL     1       5.736  29.963  15.436  0.00  0.00    +0.000 A 
ATOM     22  C   UNL     1       4.364  30.092  15.236  0.00  0.00    +0.000 A 
ENDBRANCH  16  17
ENDBRANCH  14  15
ENDBRANCH   1  14
TORSDOF 6
ENDMDL
MODEL 7
REMARK VINA RESULT:      -5.9     12.723     15.212
REMARK  Name = 641785_Cardamonin.pdbqt.pdb
REMARK  6 active torsions:
REMARK  status: ('A' for Active; 'I' for Inactive)
REMARK    1  A    between atoms: C_1  and  C_14
REMARK    2  A    between atoms: C_2  and  O_7
REMARK    3  A    between atoms: C_3  and  O_9
REMARK    4  A    between atoms: C_6  and  O_11
REMARK    5  A    between atoms: C_14  and  C_15
REMARK    6  A    between atoms: C_16  and  C_17
REMARK                            x       y       z     vdW  Elec       q    Type
REMARK                         _______ _______ _______ _____ _____    ______ ____
ROOT
ATOM      1  C   UNL     1       2.823  19.121   9.864  0.00  0.00    +0.000 A 
ATOM      2  C   UNL     1       2.775  18.701   8.522  0.00  0.00    +0.000 A 
ATOM      3  C   UNL     1       1.897  20.087  10.308  0.00  0.00    +0.000 A 
ATOM      4  C   UNL     1       1.827  19.271   7.659  0.00  0.00    +0.000 A 
ATOM      5  C   UNL     1       0.969  20.651   9.434  0.00  0.00    +0.000 A 
ATOM      6  C   UNL     1       0.944  20.243   8.111  0.00  0.00    +0.000 A 
ENDROOT
BRANCH   2   7
ATOM      7  O   UNL     1       3.606  17.686   8.109  0.00  0.00    +0.000 OA
ATOM      8  C   UNL     1       2.975  16.536   7.618  0.00  0.00    +0.000 C 
ENDBRANCH   2   7
BRANCH   3   9
ATOM      9  O   UNL     1       1.837  20.543  11.601  0.00  0.00    +0.000 OA
ATOM     10  H   UNL     1       1.391  21.418  11.623  0.00  0.00    +0.000 HD
ENDBRANCH   3   9
BRANCH   6  11
ATOM     11  O   UNL     1       0.033  20.803   7.269  0.00  0.00    +0.000 OA
ATOM     12  H   UNL     1       0.501  21.175   6.500  0.00  0.00    +0.000 HD
ENDBRANCH   6  11
BRANCH   1  14
ATOM     13  O   UNL     1       4.643  19.341  11.344  0.00  0.00    +0.000 OA
ATOM     14  C   UNL     1       3.802  18.597  10.852  0.00  0.00    +0.000 C 
BRANCH  14  15
ATOM     15  C   UNL     1       3.825  17.195  11.188  0.00  0.00    +0.000 C 
ATOM     16  C   UNL     1       3.855  16.023  11.454  0.00  0.00    +0.000 C 
BRANCH  16  17
ATOM     17  C   UNL     1       3.886  14.634  11.773  0.00  0.00    +0.000 A 
ATOM     18  C   UNL     1       2.759  13.844  11.547  0.00  0.00    +0.000 A 
ATOM     19  C   UNL     1       5.039  14.069  12.313  0.00  0.00    +0.000 A 
ATOM     20  C   UNL     1       2.788  12.488  11.860  0.00  0.00    +0.000 A 
ATOM     21  C   UNL     1       5.066  12.711  12.626  0.00  0.00    +0.000 A 
ATOM     22  C   UNL     1       3.941  11.923  12.400  0.00  0.00    +0.000 A 
ENDBRANCH  16  17
ENDBRANCH  14  15
ENDBRANCH   1  14
TORSDOF 6
ENDMDL
MODEL 8
REMARK VINA RESULT:      -5.8     12.407     13.908
REMARK  Name = 641785_Cardamonin.pdbqt.pdb
REMARK  6 active torsions:
REMARK  status: ('A' for Active; 'I' for Inactive)
REMARK    1  A    between atoms: C_1  and  C_14
REMARK    2  A    between atoms: C_2  and  O_7
REMARK    3  A    between atoms: C_3  and  O_9
REMARK    4  A    between atoms: C_6  and  O_11
REMARK    5  A    between atoms: C_14  and  C_15
REMARK    6  A    between atoms: C_16  and  C_17
REMARK                            x       y       z     vdW  Elec       q    Type
REMARK                         _______ _______ _______ _____ _____    ______ ____
ROOT
ATOM      1  C   UNL     1       2.697  18.623   9.905  0.00  0.00    +0.000 A 
ATOM      2  C   UNL     1       2.310  18.116   8.650  0.00  0.00    +0.000 A 
ATOM      3  C   UNL     1       2.200  19.877  10.315  0.00  0.00    +0.000 A 
ATOM      4  C   UNL     1       1.463  18.881   7.834  0.00  0.00    +0.000 A 
ATOM      5  C   UNL     1       1.368  20.628   9.487  0.00  0.00    +0.000 A 
ATOM      6  C   UNL     1       1.010  20.127   8.247  0.00  0.00    +0.000 A 
ENDROOT
BRANCH   2   7
ATOM      7  O   UNL     1       2.708  16.850   8.288  0.00  0.00    +0.000 OA
ATOM      8  C   UNL     1       3.666  16.775   7.270  0.00  0.00    +0.000 C 
ENDBRANCH   2   7
BRANCH   3   9
ATOM      9  O   UNL     1       2.489  20.447  11.530  0.00  0.00    +0.000 OA
ATOM     10  H   UNL     1       2.346  21.418  11.481  0.00  0.00    +0.000 HD
ENDBRANCH   3   9
BRANCH   6  11
ATOM     11  O   UNL     1       0.197  20.873   7.448  0.00  0.00    +0.000 OA
ATOM     12  H   UNL     1       0.051  21.739   7.868  0.00  0.00    +0.000 HD
ENDBRANCH   6  11
BRANCH   1  14
ATOM     13  O   UNL     1       3.167  17.040  11.585  0.00  0.00    +0.000 OA
ATOM     14  C   UNL     1       3.607  17.903  10.834  0.00  0.00    +0.000 C 
BRANCH  14  15
ATOM     15  C   UNL     1       5.002  18.259  10.917  0.00  0.00    +0.000 C 
ATOM     16  C   UNL     1       6.169  18.540  10.979  0.00  0.00    +0.000 C 
BRANCH  16  17
ATOM     17  C   UNL     1       7.552  18.879  11.056  0.00  0.00    +0.000 A 
ATOM     18  C   UNL     1       8.130  19.159  12.293  0.00  0.00    +0.000 A 
ATOM     19  C   UNL     1       8.322  18.931   9.896  0.00  0.00    +0.000 A 
ATOM     20  C   UNL     1       9.481  19.491  12.369  0.00  0.00    +0.000 A 
ATOM     21  C   UNL     1       9.673  19.263   9.973  0.00  0.00    +0.000 A 
ATOM     22  C   UNL     1      10.250  19.543  11.209  0.00  0.00    +0.000 A 
ENDBRANCH  16  17
ENDBRANCH  14  15
ENDBRANCH   1  14
TORSDOF 6
ENDMDL
MODEL 9
REMARK VINA RESULT:      -5.8     16.625     18.074
REMARK  Name = 641785_Cardamonin.pdbqt.pdb
REMARK  6 active torsions:
REMARK  status: ('A' for Active; 'I' for Inactive)
REMARK    1  A    between atoms: C_1  and  C_14
REMARK    2  A    between atoms: C_2  and  O_7
REMARK    3  A    between atoms: C_3  and  O_9
REMARK    4  A    between atoms: C_6  and  O_11
REMARK    5  A    between atoms: C_14  and  C_15
REMARK    6  A    between atoms: C_16  and  C_17
REMARK                            x       y       z     vdW  Elec       q    Type
REMARK                         _______ _______ _______ _____ _____    ______ ____
ROOT
ATOM      1  C   UNL     1     -12.503  19.089  13.723  0.00  0.00    +0.000 A 
ATOM      2  C   UNL     1     -12.723  19.388  12.365  0.00  0.00    +0.000 A 
ATOM      3  C   UNL     1     -13.037  19.950  14.703  0.00  0.00    +0.000 A 
ATOM      4  C   UNL     1     -13.442  20.543  12.025  0.00  0.00    +0.000 A 
ATOM      5  C   UNL     1     -13.741  21.100  14.347  0.00  0.00    +0.000 A 
ATOM      6  C   UNL     1     -13.933  21.393  13.008  0.00  0.00    +0.000 A 
ENDROOT
BRANCH   2   7
ATOM      7  O   UNL     1     -12.294  18.499  11.407  0.00  0.00    +0.000 OA
ATOM      8  C   UNL     1     -11.427  19.013  10.435  0.00  0.00    +0.000 C 
ENDBRANCH   2   7
BRANCH   3   9
ATOM      9  O   UNL     1     -12.909  19.736  16.053  0.00  0.00    +0.000 OA
ATOM     10  H   UNL     1     -12.192  19.085  16.218  0.00  0.00    +0.000 HD
ENDBRANCH   3   9
BRANCH   6  11
ATOM     11  O   UNL     1     -14.622  22.520  12.675  0.00  0.00    +0.000 OA
ATOM     12  H   UNL     1     -15.544  22.278  12.477  0.00  0.00    +0.000 HD
ENDBRANCH   6  11
BRANCH   1  14
ATOM     13  O   UNL     1     -12.239  17.114  14.979  0.00  0.00    +0.000 OA
ATOM     14  C   UNL     1     -11.736  17.905  14.188  0.00  0.00    +0.000 C 
BRANCH  14  15
ATOM     15  C   UNL     1     -10.368  17.709  13.775  0.00  0.00    +0.000 C 
ATOM     16  C   UNL     1      -9.222  17.550  13.449  0.00  0.00    +0.000 C 
BRANCH  16  17
ATOM     17  C   UNL     1      -7.865  17.361  13.055  0.00  0.00    +0.000 A 
ATOM     18  C   UNL     1      -7.564  17.043  11.732  0.00  0.00    +0.000 A 
ATOM     19  C   UNL     1      -6.843  17.493  13.993  0.00  0.00    +0.000 A 
ATOM     20  C   UNL     1      -6.238  16.856  11.347  0.00  0.00    +0.000 A 
ATOM     21  C   UNL     1      -5.518  17.307  13.607  0.00  0.00    +0.000 A 
ATOM     22  C   UNL     1      -5.216  16.988  12.285  0.00  0.00    +0.000 A 
ENDBRANCH  16  17
ENDBRANCH  14  15
ENDBRANCH   1  14
TORSDOF 6
ENDMDL
