MODEL 1
REMARK VINA RESULT:      -7.3      0.000      0.000
REMARK  Name = 6440856_Goniothalamin.pdbqt.pdb
REMARK  2 active torsions:
REMARK  status: ('A' for Active; 'I' for Inactive)
REMARK    1  A    between atoms: C_1  and  C_5
REMARK    2  A    between atoms: C_2  and  C_10
REMARK                            x       y       z     vdW  Elec       q    Type
REMARK                         _______ _______ _______ _____ _____    ______ ____
ROOT
ATOM      1  C   UNL     1       2.116  31.115  15.569  0.00  0.00    +0.000 C 
ATOM      2  C   UNL     1       3.126  30.475  15.459  0.00  0.00    +0.000 C 
ENDROOT
BRANCH   1   5
ATOM      3  O   UNL     1       1.001  33.190  16.257  0.00  0.00    +0.000 OA
ATOM      4  O   UNL     1      -0.251  35.054  16.836  0.00  0.00    +0.000 OA
ATOM      5  C   UNL     1       0.925  31.865  15.698  0.00  0.00    +0.000 A 
ATOM      6  C   UNL     1      -0.378  31.438  15.322  0.00  0.00    +0.000 A 
ATOM      7  C   UNL     1      -1.694  32.173  15.424  0.00  0.00    +0.000 A 
ATOM      8  C   UNL     1      -1.361  33.217  15.908  0.00  0.00    +0.000 A 
ATOM      9  C   UNL     1      -0.185  33.923  16.379  0.00  0.00    +0.000 A 
ENDBRANCH   1   5
BRANCH   2  10
ATOM     10  C   UNL     1       4.325  29.715  15.328  0.00  0.00    +0.000 A 
ATOM     11  C   UNL     1       4.307  28.497  14.652  0.00  0.00    +0.000 A 
ATOM     12  C   UNL     1       5.514  30.192  15.876  0.00  0.00    +0.000 A 
ATOM     13  C   UNL     1       5.479  27.754  14.526  0.00  0.00    +0.000 A 
ATOM     14  C   UNL     1       6.686  29.449  15.748  0.00  0.00    +0.000 A 
ATOM     15  C   UNL     1       6.667  28.231  15.072  0.00  0.00    +0.000 A 
ENDBRANCH   2  10
TORSDOF 2
ENDMDL
MODEL 2
REMARK VINA RESULT:      -7.1      5.290      9.150
REMARK  Name = 6440856_Goniothalamin.pdbqt.pdb
REMARK  2 active torsions:
REMARK  status: ('A' for Active; 'I' for Inactive)
REMARK    1  A    between atoms: C_1  and  C_5
REMARK    2  A    between atoms: C_2  and  C_10
REMARK                            x       y       z     vdW  Elec       q    Type
REMARK                         _______ _______ _______ _____ _____    ______ ____
ROOT
ATOM      1  C   UNL     1       7.637  27.956  15.041  0.00  0.00    +0.000 C 
ATOM      2  C   UNL     1       6.450  28.129  15.002  0.00  0.00    +0.000 C 
ENDROOT
BRANCH   1   5
ATOM      3  O   UNL     1       9.529  26.404  15.227  0.00  0.00    +0.000 OA
ATOM      4  O   UNL     1      11.456  25.124  15.387  0.00  0.00    +0.000 OA
ATOM      5  C   UNL     1       9.035  27.749  15.082  0.00  0.00    +0.000 A 
ATOM      6  C   UNL     1      10.033  28.758  14.993  0.00  0.00    +0.000 A 
ATOM      7  C   UNL     1      11.538  28.622  15.028  0.00  0.00    +0.000 A 
ATOM      8  C   UNL     1      11.680  27.440  15.153  0.00  0.00    +0.000 A 
ATOM      9  C   UNL     1      10.915  26.213  15.268  0.00  0.00    +0.000 A 
ENDBRANCH   1   5
BRANCH   2  10
ATOM     10  C   UNL     1       5.039  28.336  14.956  0.00  0.00    +0.000 A 
ATOM     11  C   UNL     1       4.455  29.324  15.746  0.00  0.00    +0.000 A 
ATOM     12  C   UNL     1       4.248  27.550  14.121  0.00  0.00    +0.000 A 
ATOM     13  C   UNL     1       3.077  29.525  15.701  0.00  0.00    +0.000 A 
ATOM     14  C   UNL     1       2.871  27.752  14.076  0.00  0.00    +0.000 A 
ATOM     15  C   UNL     1       2.286  28.740  14.866  0.00  0.00    +0.000 A 
ENDBRANCH   2  10
TORSDOF 2
ENDMDL
MODEL 3
REMARK VINA RESULT:      -7.1      3.874      7.729
REMARK  Name = 6440856_Goniothalamin.pdbqt.pdb
REMARK  2 active torsions:
REMARK  status: ('A' for Active; 'I' for Inactive)
REMARK    1  A    between atoms: C_1  and  C_5
REMARK    2  A    between atoms: C_2  and  C_10
REMARK                            x       y       z     vdW  Elec       q    Type
REMARK                         _______ _______ _______ _____ _____    ______ ____
ROOT
ATOM      1  C   UNL     1       5.567  29.292  15.668  0.00  0.00    +0.000 C 
ATOM      2  C   UNL     1       4.394  29.541  15.736  0.00  0.00    +0.000 C 
ENDROOT
BRANCH   1   5
ATOM      3  O   UNL     1       7.355  27.785  14.923  0.00  0.00    +0.000 OA
ATOM      4  O   UNL     1       9.194  26.512  14.314  0.00  0.00    +0.000 OA
ATOM      5  C   UNL     1       6.948  28.998  15.583  0.00  0.00    +0.000 A 
ATOM      6  C   UNL     1       8.006  29.797  16.095  0.00  0.00    +0.000 A 
ATOM      7  C   UNL     1       9.497  29.558  16.047  0.00  0.00    +0.000 A 
ATOM      8  C   UNL     1       9.564  28.514  15.463  0.00  0.00    +0.000 A 
ATOM      9  C   UNL     1       8.724  27.506  14.846  0.00  0.00    +0.000 A 
ENDBRANCH   1   5
BRANCH   2  10
ATOM     10  C   UNL     1       3.002  29.836  15.817  0.00  0.00    +0.000 A 
ATOM     11  C   UNL     1       2.066  28.914  15.353  0.00  0.00    +0.000 A 
ATOM     12  C   UNL     1       2.578  31.047  16.362  0.00  0.00    +0.000 A 
ATOM     13  C   UNL     1       0.706  29.204  15.432  0.00  0.00    +0.000 A 
ATOM     14  C   UNL     1       1.218  31.336  16.441  0.00  0.00    +0.000 A 
ATOM     15  C   UNL     1       0.283  30.413  15.976  0.00  0.00    +0.000 A 
ENDBRANCH   2  10
TORSDOF 2
ENDMDL
MODEL 4
REMARK VINA RESULT:      -6.9      1.280      2.362
REMARK  Name = 6440856_Goniothalamin.pdbqt.pdb
REMARK  2 active torsions:
REMARK  status: ('A' for Active; 'I' for Inactive)
REMARK    1  A    between atoms: C_1  and  C_5
REMARK    2  A    between atoms: C_2  and  C_10
REMARK                            x       y       z     vdW  Elec       q    Type
REMARK                         _______ _______ _______ _____ _____    ______ ____
ROOT
ATOM      1  C   UNL     1       3.877  30.404  15.898  0.00  0.00    +0.000 C 
ATOM      2  C   UNL     1       4.983  29.956  15.762  0.00  0.00    +0.000 C 
ENDROOT
BRANCH   1   5
ATOM      3  O   UNL     1       2.425  32.352  16.239  0.00  0.00    +0.000 OA
ATOM      4  O   UNL     1       0.872  34.045  16.556  0.00  0.00    +0.000 OA
ATOM      5  C   UNL     1       2.575  30.932  16.053  0.00  0.00    +0.000 A 
ATOM      6  C   UNL     1       1.364  30.188  16.044  0.00  0.00    +0.000 A 
ATOM      7  C   UNL     1      -0.059  30.672  16.201  0.00  0.00    +0.000 A 
ATOM      8  C   UNL     1       0.091  31.852  16.338  0.00  0.00    +0.000 A 
ATOM      9  C   UNL     1       1.130  32.862  16.392  0.00  0.00    +0.000 A 
ENDBRANCH   1   5
BRANCH   2  10
ATOM     10  C   UNL     1       6.296  29.423  15.601  0.00  0.00    +0.000 A 
ATOM     11  C   UNL     1       7.398  30.136  16.066  0.00  0.00    +0.000 A 
ATOM     12  C   UNL     1       6.474  28.189  14.980  0.00  0.00    +0.000 A 
ATOM     13  C   UNL     1       8.681  29.615  15.908  0.00  0.00    +0.000 A 
ATOM     14  C   UNL     1       7.757  27.668  14.822  0.00  0.00    +0.000 A 
ATOM     15  C   UNL     1       8.859  28.382  15.287  0.00  0.00    +0.000 A 
ENDBRANCH   2  10
TORSDOF 2
ENDMDL
MODEL 5
REMARK VINA RESULT:      -6.9      2.717      6.959
REMARK  Name = 6440856_Goniothalamin.pdbqt.pdb
REMARK  2 active torsions:
REMARK  status: ('A' for Active; 'I' for Inactive)
REMARK    1  A    between atoms: C_1  and  C_5
REMARK    2  A    between atoms: C_2  and  C_10
REMARK                            x       y       z     vdW  Elec       q    Type
REMARK                         _______ _______ _______ _____ _____    ______ ____
ROOT
ATOM      1  C   UNL     1       3.866  30.290  15.531  0.00  0.00    +0.000 C 
ATOM      2  C   UNL     1       2.750  30.732  15.572  0.00  0.00    +0.000 C 
ENDROOT
BRANCH   1   5
ATOM      3  O   UNL     1       6.256  30.572  16.011  0.00  0.00    +0.000 OA
ATOM      4  O   UNL     1       8.546  30.627  16.371  0.00  0.00    +0.000 OA
ATOM      5  C   UNL     1       5.181  29.773  15.482  0.00  0.00    +0.000 A 
ATOM      6  C   UNL     1       5.565  28.511  14.950  0.00  0.00    +0.000 A 
ATOM      7  C   UNL     1       6.938  27.888  14.861  0.00  0.00    +0.000 A 
ATOM      8  C   UNL     1       7.629  28.732  15.354  0.00  0.00    +0.000 A 
ATOM      9  C   UNL     1       7.553  30.049  15.956  0.00  0.00    +0.000 A 
ENDBRANCH   1   5
BRANCH   2  10
ATOM     10  C   UNL     1       1.426  31.258  15.621  0.00  0.00    +0.000 A 
ATOM     11  C   UNL     1       0.550  30.845  16.623  0.00  0.00    +0.000 A 
ATOM     12  C   UNL     1       1.009  32.184  14.668  0.00  0.00    +0.000 A 
ATOM     13  C   UNL     1      -0.745  31.358  16.670  0.00  0.00    +0.000 A 
ATOM     14  C   UNL     1      -0.285  32.698  14.715  0.00  0.00    +0.000 A 
ATOM     15  C   UNL     1      -1.161  32.284  15.717  0.00  0.00    +0.000 A 
ENDBRANCH   2  10
TORSDOF 2
ENDMDL
MODEL 6
REMARK VINA RESULT:      -6.9      1.302      2.132
REMARK  Name = 6440856_Goniothalamin.pdbqt.pdb
REMARK  2 active torsions:
REMARK  status: ('A' for Active; 'I' for Inactive)
REMARK    1  A    between atoms: C_1  and  C_5
REMARK    2  A    between atoms: C_2  and  C_10
REMARK                            x       y       z     vdW  Elec       q    Type
REMARK                         _______ _______ _______ _____ _____    ______ ____
ROOT
ATOM      1  C   UNL     1       2.254  31.237  15.475  0.00  0.00    +0.000 C 
ATOM      2  C   UNL     1       3.271  30.602  15.417  0.00  0.00    +0.000 C 
ENDROOT
BRANCH   1   5
ATOM      3  O   UNL     1      -0.118  31.464  14.888  0.00  0.00    +0.000 OA
ATOM      4  O   UNL     1      -2.356  31.882  14.449  0.00  0.00    +0.000 OA
ATOM      5  C   UNL     1       1.056  31.985  15.540  0.00  0.00    +0.000 A 
ATOM      6  C   UNL     1       0.883  33.232  16.200  0.00  0.00    +0.000 A 
ATOM      7  C   UNL     1      -0.355  34.090  16.317  0.00  0.00    +0.000 A 
ATOM      8  C   UNL     1      -1.162  33.450  15.706  0.00  0.00    +0.000 A 
ATOM      9  C   UNL     1      -1.297  32.215  14.959  0.00  0.00    +0.000 A 
ENDBRANCH   1   5
BRANCH   2  10
ATOM     10  C   UNL     1       4.480  29.848  15.347  0.00  0.00    +0.000 A 
ATOM     11  C   UNL     1       5.649  30.354  15.912  0.00  0.00    +0.000 A 
ATOM     12  C   UNL     1       4.489  28.607  14.716  0.00  0.00    +0.000 A 
ATOM     13  C   UNL     1       6.829  29.617  15.843  0.00  0.00    +0.000 A 
ATOM     14  C   UNL     1       5.670  27.870  14.647  0.00  0.00    +0.000 A 
ATOM     15  C   UNL     1       6.839  28.376  15.212  0.00  0.00    +0.000 A 
ENDBRANCH   2  10
TORSDOF 2
ENDMDL
MODEL 7
REMARK VINA RESULT:      -6.6      4.414      8.242
REMARK  Name = 6440856_Goniothalamin.pdbqt.pdb
REMARK  2 active torsions:
REMARK  status: ('A' for Active; 'I' for Inactive)
REMARK    1  A    between atoms: C_1  and  C_5
REMARK    2  A    between atoms: C_2  and  C_10
REMARK                            x       y       z     vdW  Elec       q    Type
REMARK                         _______ _______ _______ _____ _____    ______ ____
ROOT
ATOM      1  C   UNL     1       6.882  28.523  15.111  0.00  0.00    +0.000 C 
ATOM      2  C   UNL     1       5.685  28.605  15.073  0.00  0.00    +0.000 C 
ENDROOT
BRANCH   1   5
ATOM      3  O   UNL     1       9.034  29.440  15.854  0.00  0.00    +0.000 OA
ATOM      4  O   UNL     1      11.168  30.125  16.449  0.00  0.00    +0.000 OA
ATOM      5  C   UNL     1       8.292  28.423  15.155  0.00  0.00    +0.000 A 
ATOM      6  C   UNL     1       9.076  27.394  14.566  0.00  0.00    +0.000 A 
ATOM      7  C   UNL     1      10.576  27.213  14.567  0.00  0.00    +0.000 A 
ATOM      8  C   UNL     1      10.943  28.165  15.195  0.00  0.00    +0.000 A 
ATOM      9  C   UNL     1      10.429  29.329  15.890  0.00  0.00    +0.000 A 
ENDBRANCH   1   5
BRANCH   2  10
ATOM     10  C   UNL     1       4.263  28.703  15.026  0.00  0.00    +0.000 A 
ATOM     11  C   UNL     1       3.606  29.664  15.791  0.00  0.00    +0.000 A 
ATOM     12  C   UNL     1       3.533  27.837  14.215  0.00  0.00    +0.000 A 
ATOM     13  C   UNL     1       2.217  29.759  15.746  0.00  0.00    +0.000 A 
ATOM     14  C   UNL     1       2.144  27.932  14.170  0.00  0.00    +0.000 A 
ATOM     15  C   UNL     1       1.487  28.893  14.935  0.00  0.00    +0.000 A 
ENDBRANCH   2  10
TORSDOF 2
ENDMDL
MODEL 8
REMARK VINA RESULT:      -6.4      4.517      6.753
REMARK  Name = 6440856_Goniothalamin.pdbqt.pdb
REMARK  2 active torsions:
REMARK  status: ('A' for Active; 'I' for Inactive)
REMARK    1  A    between atoms: C_1  and  C_5
REMARK    2  A    between atoms: C_2  and  C_10
REMARK                            x       y       z     vdW  Elec       q    Type
REMARK                         _______ _______ _______ _____ _____    ______ ____
ROOT
ATOM      1  C   UNL     1       6.705  31.814  15.810  0.00  0.00    +0.000 C 
ATOM      2  C   UNL     1       5.986  30.880  15.580  0.00  0.00    +0.000 C 
ENDROOT
BRANCH   1   5
ATOM      3  O   UNL     1       8.840  32.969  15.451  0.00  0.00    +0.000 OA
ATOM      4  O   UNL     1      10.781  34.223  15.258  0.00  0.00    +0.000 OA
ATOM      5  C   UNL     1       7.548  32.916  16.084  0.00  0.00    +0.000 A 
ATOM      6  C   UNL     1       7.245  34.008  16.942  0.00  0.00    +0.000 A 
ATOM      7  C   UNL     1       8.084  35.217  17.286  0.00  0.00    +0.000 A 
ATOM      8  C   UNL     1       9.079  35.021  16.648  0.00  0.00    +0.000 A 
ATOM      9  C   UNL     1       9.666  34.064  15.730  0.00  0.00    +0.000 A 
ENDBRANCH   1   5
BRANCH   2  10
ATOM     10  C   UNL     1       5.133  29.770  15.307  0.00  0.00    +0.000 A 
ATOM     11  C   UNL     1       3.859  29.718  15.867  0.00  0.00    +0.000 A 
ATOM     12  C   UNL     1       5.576  28.740  14.481  0.00  0.00    +0.000 A 
ATOM     13  C   UNL     1       3.026  28.633  15.601  0.00  0.00    +0.000 A 
ATOM     14  C   UNL     1       4.743  27.656  14.214  0.00  0.00    +0.000 A 
ATOM     15  C   UNL     1       3.468  27.604  14.774  0.00  0.00    +0.000 A 
ENDBRANCH   2  10
TORSDOF 2
ENDMDL
MODEL 9
REMARK VINA RESULT:      -6.3      4.082      6.433
REMARK  Name = 6440856_Goniothalamin.pdbqt.pdb
REMARK  2 active torsions:
REMARK  status: ('A' for Active; 'I' for Inactive)
REMARK    1  A    between atoms: C_1  and  C_5
REMARK    2  A    between atoms: C_2  and  C_10
REMARK                            x       y       z     vdW  Elec       q    Type
REMARK                         _______ _______ _______ _____ _____    ______ ____
ROOT
ATOM      1  C   UNL     1       6.713  32.005  16.090  0.00  0.00    +0.000 C 
ATOM      2  C   UNL     1       6.019  31.072  15.793  0.00  0.00    +0.000 C 
ENDROOT
BRANCH   1   5
ATOM      3  O   UNL     1       7.092  33.980  17.496  0.00  0.00    +0.000 OA
ATOM      4  O   UNL     1       7.650  35.876  18.709  0.00  0.00    +0.000 OA
ATOM      5  C   UNL     1       7.533  33.102  16.443  0.00  0.00    +0.000 A 
ATOM      6  C   UNL     1       8.781  33.439  15.852  0.00  0.00    +0.000 A 
ATOM      7  C   UNL     1       9.713  34.585  16.168  0.00  0.00    +0.000 A 
ATOM      8  C   UNL     1       9.129  35.145  17.052  0.00  0.00    +0.000 A 
ATOM      9  C   UNL     1       7.912  35.062  17.836  0.00  0.00    +0.000 A 
ENDBRANCH   1   5
BRANCH   2  10
ATOM     10  C   UNL     1       5.194  29.963  15.440  0.00  0.00    +0.000 A 
ATOM     11  C   UNL     1       5.706  28.941  14.644  0.00  0.00    +0.000 A 
ATOM     12  C   UNL     1       3.878  29.904  15.892  0.00  0.00    +0.000 A 
ATOM     13  C   UNL     1       4.900  27.858  14.299  0.00  0.00    +0.000 A 
ATOM     14  C   UNL     1       3.072  28.821  15.547  0.00  0.00    +0.000 A 
ATOM     15  C   UNL     1       3.584  27.799  14.751  0.00  0.00    +0.000 A 
ENDBRANCH   2  10
TORSDOF 2
ENDMDL
