MODEL 1
REMARK VINA RESULT:      -4.2      0.000      0.000
REMARK  Name = 649_Dihydrouracil.pdb
REMARK  0 active torsions:
REMARK  status: ('A' for Active; 'I' for Inactive)
REMARK                            x       y       z     vdW  Elec       q    Type
REMARK                         _______ _______ _______ _____ _____    ______ ____
ROOT
ATOM      1  O   UNL     1       4.160  30.584  16.601  0.00  0.00    +0.000 OA
ATOM      2  O   UNL     1       3.297  27.145  13.647  0.00  0.00    +0.000 OA
ATOM      3  N   UNL     1       5.492  27.632  14.101  0.00  0.00    +0.000 N 
ATOM      4  N   UNL     1       3.749  28.854  15.115  0.00  0.00    +0.000 N 
ATOM      5  C   UNL     1       6.402  28.371  14.748  0.00  0.00    +0.000 A 
ATOM      6  C   UNL     1       5.972  29.462  15.674  0.00  0.00    +0.000 A 
ATOM      7  C   UNL     1       4.568  29.705  15.857  0.00  0.00    +0.000 A 
ATOM      8  C   UNL     1       4.123  27.826  14.243  0.00  0.00    +0.000 A 
ATOM      9  H   UNL     1       5.794  26.895  13.476  0.00  0.00    +0.000 HD
ATOM     10  H   UNL     1       2.757  28.999  15.221  0.00  0.00    +0.000 HD
ENDROOT
TORSDOF 0
ENDMDL
MODEL 2
REMARK VINA RESULT:      -4.2     18.201     19.276
REMARK  Name = 649_Dihydrouracil.pdb
REMARK  0 active torsions:
REMARK  status: ('A' for Active; 'I' for Inactive)
REMARK                            x       y       z     vdW  Elec       q    Type
REMARK                         _______ _______ _______ _____ _____    ______ ____
ROOT
ATOM      1  O   UNL     1       1.716  29.592  -4.904  0.00  0.00    +0.000 OA
ATOM      2  O   UNL     1       2.237  26.504  -1.515  0.00  0.00    +0.000 OA
ATOM      3  N   UNL     1       2.152  25.717  -3.666  0.00  0.00    +0.000 N 
ATOM      4  N   UNL     1       1.978  28.026  -3.218  0.00  0.00    +0.000 N 
ATOM      5  C   UNL     1       2.036  25.953  -4.980  0.00  0.00    +0.000 A 
ATOM      6  C   UNL     1       1.875  27.349  -5.488  0.00  0.00    +0.000 A 
ATOM      7  C   UNL     1       1.846  28.432  -4.546  0.00  0.00    +0.000 A 
ATOM      8  C   UNL     1       2.130  26.729  -2.715  0.00  0.00    +0.000 A 
ATOM      9  H   UNL     1       2.261  24.767  -3.333  0.00  0.00    +0.000 HD
ATOM     10  H   UNL     1       1.962  28.763  -2.530  0.00  0.00    +0.000 HD
ENDROOT
TORSDOF 0
ENDMDL
MODEL 3
REMARK VINA RESULT:      -3.9     10.227     11.230
REMARK  Name = 649_Dihydrouracil.pdb
REMARK  0 active torsions:
REMARK  status: ('A' for Active; 'I' for Inactive)
REMARK                            x       y       z     vdW  Elec       q    Type
REMARK                         _______ _______ _______ _____ _____    ______ ____
ROOT
ATOM      1  O   UNL     1      10.191  36.730  14.223  0.00  0.00    +0.000 OA
ATOM      2  O   UNL     1       9.794  40.010  17.445  0.00  0.00    +0.000 OA
ATOM      3  N   UNL     1       7.891  39.376  16.333  0.00  0.00    +0.000 N 
ATOM      4  N   UNL     1       9.970  38.378  15.836  0.00  0.00    +0.000 N 
ATOM      5  C   UNL     1       7.292  38.611  15.411  0.00  0.00    +0.000 A 
ATOM      6  C   UNL     1       8.083  37.627  14.612  0.00  0.00    +0.000 A 
ATOM      7  C   UNL     1       9.495  37.516  14.848  0.00  0.00    +0.000 A 
ATOM      8  C   UNL     1       9.253  39.306  16.599  0.00  0.00    +0.000 A 
ATOM      9  H   UNL     1       7.346  40.038  16.869  0.00  0.00    +0.000 HD
ATOM     10  H   UNL     1      10.958  38.325  16.026  0.00  0.00    +0.000 HD
ENDROOT
TORSDOF 0
ENDMDL
MODEL 4
REMARK VINA RESULT:      -3.8      9.751     10.534
REMARK  Name = 649_Dihydrouracil.pdb
REMARK  0 active torsions:
REMARK  status: ('A' for Active; 'I' for Inactive)
REMARK                            x       y       z     vdW  Elec       q    Type
REMARK                         _______ _______ _______ _____ _____    ______ ____
ROOT
ATOM      1  O   UNL     1      10.887  36.595  14.387  0.00  0.00    +0.000 OA
ATOM      2  O   UNL     1       6.498  37.941  14.859  0.00  0.00    +0.000 OA
ATOM      3  N   UNL     1       8.089  39.053  16.080  0.00  0.00    +0.000 N 
ATOM      4  N   UNL     1       8.690  37.286  14.638  0.00  0.00    +0.000 N 
ATOM      5  C   UNL     1       9.371  39.219  16.430  0.00  0.00    +0.000 A 
ATOM      6  C   UNL     1      10.435  38.350  15.842  0.00  0.00    +0.000 A 
ATOM      7  C   UNL     1      10.060  37.334  14.898  0.00  0.00    +0.000 A 
ATOM      8  C   UNL     1       7.674  38.086  15.173  0.00  0.00    +0.000 A 
ATOM      9  H   UNL     1       7.376  39.648  16.484  0.00  0.00    +0.000 HD
ATOM     10  H   UNL     1       8.393  36.583  13.980  0.00  0.00    +0.000 HD
ENDROOT
TORSDOF 0
ENDMDL
MODEL 5
REMARK VINA RESULT:      -3.7     22.790     23.752
REMARK  Name = 649_Dihydrouracil.pdb
REMARK  0 active torsions:
REMARK  status: ('A' for Active; 'I' for Inactive)
REMARK                            x       y       z     vdW  Elec       q    Type
REMARK                         _______ _______ _______ _____ _____    ______ ____
ROOT
ATOM      1  O   UNL     1     -14.497  33.084  27.172  0.00  0.00    +0.000 OA
ATOM      2  O   UNL     1     -16.923  36.935  26.410  0.00  0.00    +0.000 OA
ATOM      3  N   UNL     1     -14.950  36.678  25.270  0.00  0.00    +0.000 N 
ATOM      4  N   UNL     1     -15.699  35.024  26.775  0.00  0.00    +0.000 N 
ATOM      5  C   UNL     1     -13.858  35.951  24.998  0.00  0.00    +0.000 A 
ATOM      6  C   UNL     1     -13.642  34.631  25.663  0.00  0.00    +0.000 A 
ATOM      7  C   UNL     1     -14.622  34.155  26.598  0.00  0.00    +0.000 A 
ATOM      8  C   UNL     1     -15.927  36.263  26.166  0.00  0.00    +0.000 A 
ATOM      9  H   UNL     1     -15.087  37.571  24.813  0.00  0.00    +0.000 HD
ATOM     10  H   UNL     1     -16.406  34.720  27.426  0.00  0.00    +0.000 HD
ENDROOT
TORSDOF 0
ENDMDL
MODEL 6
REMARK VINA RESULT:      -3.6     11.958     12.346
REMARK  Name = 649_Dihydrouracil.pdb
REMARK  0 active torsions:
REMARK  status: ('A' for Active; 'I' for Inactive)
REMARK                            x       y       z     vdW  Elec       q    Type
REMARK                         _______ _______ _______ _____ _____    ______ ____
ROOT
ATOM      1  O   UNL     1       9.676  17.934  19.963  0.00  0.00    +0.000 OA
ATOM      2  O   UNL     1       5.425  18.458  21.680  0.00  0.00    +0.000 OA
ATOM      3  N   UNL     1       5.615  17.902  19.463  0.00  0.00    +0.000 N 
ATOM      4  N   UNL     1       7.533  18.192  20.805  0.00  0.00    +0.000 N 
ATOM      5  C   UNL     1       6.386  17.621  18.404  0.00  0.00    +0.000 A 
ATOM      6  C   UNL     1       7.874  17.617  18.529  0.00  0.00    +0.000 A 
ATOM      7  C   UNL     1       8.465  17.921  19.802  0.00  0.00    +0.000 A 
ATOM      8  C   UNL     1       6.137  18.201  20.716  0.00  0.00    +0.000 A 
ATOM      9  H   UNL     1       4.608  17.901  19.367  0.00  0.00    +0.000 HD
ATOM     10  H   UNL     1       7.916  18.409  21.711  0.00  0.00    +0.000 HD
ENDROOT
TORSDOF 0
ENDMDL
MODEL 7
REMARK VINA RESULT:      -3.4     27.561     28.449
REMARK  Name = 649_Dihydrouracil.pdb
REMARK  0 active torsions:
REMARK  status: ('A' for Active; 'I' for Inactive)
REMARK                            x       y       z     vdW  Elec       q    Type
REMARK                         _______ _______ _______ _____ _____    ______ ____
ROOT
ATOM      1  O   UNL     1       3.944  30.722 -15.605  0.00  0.00    +0.000 OA
ATOM      2  O   UNL     1       3.362  32.647 -11.452  0.00  0.00    +0.000 OA
ATOM      3  N   UNL     1       5.217  31.336 -11.765  0.00  0.00    +0.000 N 
ATOM      4  N   UNL     1       3.671  31.679 -13.513  0.00  0.00    +0.000 N 
ATOM      5  C   UNL     1       5.962  30.558 -12.562  0.00  0.00    +0.000 A 
ATOM      6  C   UNL     1       5.545  30.301 -13.974  0.00  0.00    +0.000 A 
ATOM      7  C   UNL     1       4.334  30.899 -14.461  0.00  0.00    +0.000 A 
ATOM      8  C   UNL     1       4.038  31.938 -12.188  0.00  0.00    +0.000 A 
ATOM      9  H   UNL     1       5.509  31.504 -10.811  0.00  0.00    +0.000 HD
ATOM     10  H   UNL     1       2.816  32.114 -13.824  0.00  0.00    +0.000 HD
ENDROOT
TORSDOF 0
ENDMDL
MODEL 8
REMARK VINA RESULT:      -3.3      9.479     10.415
REMARK  Name = 649_Dihydrouracil.pdb
REMARK  0 active torsions:
REMARK  status: ('A' for Active; 'I' for Inactive)
REMARK                            x       y       z     vdW  Elec       q    Type
REMARK                         _______ _______ _______ _____ _____    ______ ____
ROOT
ATOM      1  O   UNL     1       9.860  40.052  17.402  0.00  0.00    +0.000 OA
ATOM      2  O   UNL     1       8.291  35.713  17.325  0.00  0.00    +0.000 OA
ATOM      3  N   UNL     1       7.793  37.056  15.534  0.00  0.00    +0.000 N 
ATOM      4  N   UNL     1       9.063  37.878  17.343  0.00  0.00    +0.000 N 
ATOM      5  C   UNL     1       7.878  38.244  14.920  0.00  0.00    +0.000 A 
ATOM      6  C   UNL     1       8.621  39.373  15.556  0.00  0.00    +0.000 A 
ATOM      7  C   UNL     1       9.241  39.165  16.835  0.00  0.00    +0.000 A 
ATOM      8  C   UNL     1       8.374  36.803  16.770  0.00  0.00    +0.000 A 
ATOM      9  H   UNL     1       7.287  36.297  15.094  0.00  0.00    +0.000 HD
ATOM     10  H   UNL     1       9.486  37.699  18.240  0.00  0.00    +0.000 HD
ENDROOT
TORSDOF 0
ENDMDL
MODEL 9
REMARK VINA RESULT:      -3.2      8.644      9.469
REMARK  Name = 649_Dihydrouracil.pdb
REMARK  0 active torsions:
REMARK  status: ('A' for Active; 'I' for Inactive)
REMARK                            x       y       z     vdW  Elec       q    Type
REMARK                         _______ _______ _______ _____ _____    ______ ____
ROOT
ATOM      1  O   UNL     1      10.442  35.061  14.692  0.00  0.00    +0.000 OA
ATOM      2  O   UNL     1       7.787  35.933  18.364  0.00  0.00    +0.000 OA
ATOM      3  N   UNL     1       8.254  37.678  16.952  0.00  0.00    +0.000 N 
ATOM      4  N   UNL     1       9.107  35.520  16.529  0.00  0.00    +0.000 N 
ATOM      5  C   UNL     1       8.858  38.144  15.850  0.00  0.00    +0.000 A 
ATOM      6  C   UNL     1       9.668  37.232  14.987  0.00  0.00    +0.000 A 
ATOM      7  C   UNL     1       9.791  35.851  15.359  0.00  0.00    +0.000 A 
ATOM      8  C   UNL     1       8.342  36.351  17.355  0.00  0.00    +0.000 A 
ATOM      9  H   UNL     1       7.707  38.304  17.529  0.00  0.00    +0.000 HD
ATOM     10  H   UNL     1       9.173  34.557  16.818  0.00  0.00    +0.000 HD
ENDROOT
TORSDOF 0
ENDMDL
