MODEL 1
REMARK VINA RESULT:      -9.5      0.000      0.000
REMARK  Name = 6509753_ManzamineA.pdbqt.pdb
REMARK  2 active torsions:
REMARK  status: ('A' for Active; 'I' for Inactive)
REMARK    1  A    between atoms: C_7  and  O_42
REMARK    2  A    between atoms: C_11  and  C_30
REMARK                            x       y       z     vdW  Elec       q    Type
REMARK                         _______ _______ _______ _____ _____    ______ ____
ROOT
ATOM      1  N   UNL     1      -7.689  41.997  18.907  0.00  0.00    +0.000 N 
ATOM      2  N   UNL     1      -6.196  44.048  14.616  0.00  0.00    +0.000 N 
ATOM      3  C   UNL     1      -6.314  42.165  16.787  0.00  0.00    +0.000 C 
ATOM      4  C   UNL     1      -6.390  42.425  18.327  0.00  0.00    +0.000 C 
ATOM      5  C   UNL     1      -5.078  41.365  16.202  0.00  0.00    +0.000 C 
ATOM      6  C   UNL     1      -7.537  41.373  16.694  0.00  0.00    +0.000 C 
ATOM      7  C   UNL     1      -5.132  42.227  19.176  0.00  0.00    +0.000 C 
ATOM      8  C   UNL     1      -6.454  43.406  15.946  0.00  0.00    +0.000 C 
ATOM      9  C   UNL     1      -8.441  41.417  17.771  0.00  0.00    +0.000 C 
ATOM     10  C   UNL     1      -4.726  41.766  14.863  0.00  0.00    +0.000 C 
ATOM     11  C   UNL     1      -4.024  40.988  17.133  0.00  0.00    +0.000 C 
ATOM     12  C   UNL     1      -4.240  41.479  18.313  0.00  0.00    +0.000 C 
ATOM     13  C   UNL     1      -5.227  43.036  14.169  0.00  0.00    +0.000 C 
ATOM     14  C   UNL     1      -8.394  43.104  19.556  0.00  0.00    +0.000 C 
ATOM     15  C   UNL     1      -4.606  43.515  19.618  0.00  0.00    +0.000 C 
ATOM     16  C   UNL     1      -9.856  41.560  17.662  0.00  0.00    +0.000 C 
ATOM     17  C   UNL     1      -5.482  45.291  14.854  0.00  0.00    +0.000 C 
ATOM     18  C   UNL     1      -9.575  44.003  19.969  0.00  0.00    +0.000 C 
ATOM     19  C   UNL     1      -4.036  44.907  19.902  0.00  0.00    +0.000 C 
ATOM     20  C   UNL     1     -10.941  42.039  17.857  0.00  0.00    +0.000 C 
ATOM     21  C   UNL     1     -11.061  44.062  19.622  0.00  0.00    +0.000 C 
ATOM     22  C   UNL     1      -4.751  46.565  15.288  0.00  0.00    +0.000 C 
ATOM     23  C   UNL     1     -11.715  43.113  18.624  0.00  0.00    +0.000 C 
ATOM     24  C   UNL     1      -3.549  46.337  19.684  0.00  0.00    +0.000 C 
ATOM     25  C   UNL     1      -4.044  47.571  16.191  0.00  0.00    +0.000 C 
ATOM     26  C   UNL     1      -3.510  47.899  17.576  0.00  0.00    +0.000 C 
ATOM     27  C   UNL     1      -3.382  47.270  18.953  0.00  0.00    +0.000 C 
ENDROOT
BRANCH  11  30
ATOM     28  N   UNL     1      -2.790  39.012  16.457  0.00  0.00    +0.000 NA
ATOM     29  N   UNL     1      -1.267  42.315  17.136  0.00  0.00    +0.000 N 
ATOM     30  C   UNL     1      -2.774  40.320  16.799  0.00  0.00    +0.000 A 
ATOM     31  C   UNL     1      -1.561  41.004  16.839  0.00  0.00    +0.000 A 
ATOM     32  C   UNL     1      -0.353  40.373  16.537  0.00  0.00    +0.000 A 
ATOM     33  C   UNL     1      -1.618  38.408  16.165  0.00  0.00    +0.000 A 
ATOM     34  C   UNL     1      -0.369  39.014  16.185  0.00  0.00    +0.000 A 
ATOM     35  C   UNL     1       0.685  41.346  16.670  0.00  0.00    +0.000 A 
ATOM     36  C   UNL     1       0.084  42.546  17.044  0.00  0.00    +0.000 A 
ATOM     37  C   UNL     1       2.081  41.311  16.502  0.00  0.00    +0.000 A 
ATOM     38  C   UNL     1       0.807  43.723  17.260  0.00  0.00    +0.000 A 
ATOM     39  C   UNL     1       2.821  42.477  16.714  0.00  0.00    +0.000 A 
ATOM     40  C   UNL     1       2.191  43.660  17.086  0.00  0.00    +0.000 A 
ATOM     41  H   UNL     1      -1.951  43.019  17.380  0.00  0.00    +0.000 HD
ENDBRANCH  11  30
BRANCH   7  42
ATOM     42  O   UNL     1      -5.410  41.425  20.314  0.00  0.00    +0.000 OA
ATOM     43  H   UNL     1      -5.776  40.591  19.972  0.00  0.00    +0.000 HD
ENDBRANCH   7  42
TORSDOF 2
ENDMDL
MODEL 2
REMARK VINA RESULT:      -9.3      1.871      2.386
REMARK  Name = 6509753_ManzamineA.pdbqt.pdb
REMARK  2 active torsions:
REMARK  status: ('A' for Active; 'I' for Inactive)
REMARK    1  A    between atoms: C_7  and  O_42
REMARK    2  A    between atoms: C_11  and  C_30
REMARK                            x       y       z     vdW  Elec       q    Type
REMARK                         _______ _______ _______ _____ _____    ______ ____
ROOT
ATOM      1  N   UNL     1      -8.586  41.053  16.205  0.00  0.00    +0.000 N 
ATOM      2  N   UNL     1      -6.176  43.705  12.740  0.00  0.00    +0.000 N 
ATOM      3  C   UNL     1      -6.631  41.667  14.718  0.00  0.00    +0.000 C 
ATOM      4  C   UNL     1      -7.294  41.781  16.130  0.00  0.00    +0.000 C 
ATOM      5  C   UNL     1      -5.126  41.183  14.611  0.00  0.00    +0.000 C 
ATOM      6  C   UNL     1      -7.541  40.655  14.191  0.00  0.00    +0.000 C 
ATOM      7  C   UNL     1      -6.399  41.772  17.372  0.00  0.00    +0.000 C 
ATOM      8  C   UNL     1      -6.735  42.918  13.888  0.00  0.00    +0.000 C 
ATOM      9  C   UNL     1      -8.750  40.428  14.874  0.00  0.00    +0.000 C 
ATOM     10  C   UNL     1      -4.426  41.754  13.488  0.00  0.00    +0.000 C 
ATOM     11  C   UNL     1      -4.407  40.952  15.857  0.00  0.00    +0.000 C 
ATOM     12  C   UNL     1      -5.123  41.292  16.883  0.00  0.00    +0.000 C 
ATOM     13  C   UNL     1      -4.917  42.949  12.665  0.00  0.00    +0.000 C 
ATOM     14  C   UNL     1      -9.697  41.939  16.564  0.00  0.00    +0.000 C 
ATOM     15  C   UNL     1      -6.354  43.100  17.978  0.00  0.00    +0.000 C 
ATOM     16  C   UNL     1     -10.034  40.291  14.266  0.00  0.00    +0.000 C 
ATOM     17  C   UNL     1      -5.878  45.043  13.223  0.00  0.00    +0.000 C 
ATOM     18  C   UNL     1     -11.112  42.545  16.530  0.00  0.00    +0.000 C 
ATOM     19  C   UNL     1      -6.235  44.550  18.453  0.00  0.00    +0.000 C 
ATOM     20  C   UNL     1     -11.195  40.524  14.062  0.00  0.00    +0.000 C 
ATOM     21  C   UNL     1     -12.359  42.331  15.674  0.00  0.00    +0.000 C 
ATOM     22  C   UNL     1      -5.640  46.398  13.894  0.00  0.00    +0.000 C 
ATOM     23  C   UNL     1     -12.402  41.354  14.505  0.00  0.00    +0.000 C 
ATOM     24  C   UNL     1      -6.027  46.061  18.428  0.00  0.00    +0.000 C 
ATOM     25  C   UNL     1      -5.529  47.450  14.994  0.00  0.00    +0.000 C 
ATOM     26  C   UNL     1      -5.597  47.765  16.479  0.00  0.00    +0.000 C 
ATOM     27  C   UNL     1      -5.822  47.065  17.809  0.00  0.00    +0.000 C 
ENDROOT
BRANCH  11  30
ATOM     28  N   UNL     1      -2.668  39.271  16.032  0.00  0.00    +0.000 NA
ATOM     29  N   UNL     1      -2.077  42.924  16.059  0.00  0.00    +0.000 N 
ATOM     30  C   UNL     1      -3.006  40.579  15.989  0.00  0.00    +0.000 A 
ATOM     31  C   UNL     1      -2.011  41.549  16.087  0.00  0.00    +0.000 A 
ATOM     32  C   UNL     1      -0.665  41.207  16.230  0.00  0.00    +0.000 A 
ATOM     33  C   UNL     1      -1.363  38.948  16.170  0.00  0.00    +0.000 A 
ATOM     34  C   UNL     1      -0.313  39.849  16.277  0.00  0.00    +0.000 A 
ATOM     35  C   UNL     1       0.082  42.423  16.297  0.00  0.00    +0.000 A 
ATOM     36  C   UNL     1      -0.825  43.476  16.187  0.00  0.00    +0.000 A 
ATOM     37  C   UNL     1       1.450  42.721  16.438  0.00  0.00    +0.000 A 
ATOM     38  C   UNL     1      -0.438  44.819  16.210  0.00  0.00    +0.000 A 
ATOM     39  C   UNL     1       1.856  44.058  16.464  0.00  0.00    +0.000 A 
ATOM     40  C   UNL     1       0.926  45.084  16.351  0.00  0.00    +0.000 A 
ATOM     41  H   UNL     1      -2.927  43.459  15.948  0.00  0.00    +0.000 HD
ENDBRANCH  11  30
BRANCH   7  42
ATOM     42  O   UNL     1      -6.874  40.840  18.332  0.00  0.00    +0.000 OA
ATOM     43  H   UNL     1      -7.844  40.900  18.307  0.00  0.00    +0.000 HD
ENDBRANCH   7  42
TORSDOF 2
ENDMDL
MODEL 3
REMARK VINA RESULT:      -9.3      3.836      7.697
REMARK  Name = 6509753_ManzamineA.pdbqt.pdb
REMARK  2 active torsions:
REMARK  status: ('A' for Active; 'I' for Inactive)
REMARK    1  A    between atoms: C_7  and  O_42
REMARK    2  A    between atoms: C_11  and  C_30
REMARK                            x       y       z     vdW  Elec       q    Type
REMARK                         _______ _______ _______ _____ _____    ______ ____
ROOT
ATOM      1  N   UNL     1      -2.457  46.624  17.100  0.00  0.00    +0.000 N 
ATOM      2  N   UNL     1      -3.682  41.796  16.896  0.00  0.00    +0.000 N 
ATOM      3  C   UNL     1      -3.113  44.458  15.965  0.00  0.00    +0.000 C 
ATOM      4  C   UNL     1      -3.583  45.834  16.539  0.00  0.00    +0.000 C 
ATOM      5  C   UNL     1      -3.520  44.061  14.486  0.00  0.00    +0.000 C 
ATOM      6  C   UNL     1      -1.680  44.722  16.057  0.00  0.00    +0.000 C 
ATOM      7  C   UNL     1      -4.697  46.597  15.818  0.00  0.00    +0.000 C 
ATOM      8  C   UNL     1      -3.463  43.279  16.833  0.00  0.00    +0.000 C 
ATOM      9  C   UNL     1      -1.253  45.798  16.856  0.00  0.00    +0.000 C 
ATOM     10  C   UNL     1      -3.681  42.640  14.305  0.00  0.00    +0.000 C 
ATOM     11  C   UNL     1      -4.394  44.975  13.765  0.00  0.00    +0.000 C 
ATOM     12  C   UNL     1      -4.786  45.950  14.524  0.00  0.00    +0.000 C 
ATOM     13  C   UNL     1      -3.795  41.619  15.441  0.00  0.00    +0.000 C 
ATOM     14  C   UNL     1      -2.658  46.940  18.516  0.00  0.00    +0.000 C 
ATOM     15  C   UNL     1      -5.929  46.560  16.599  0.00  0.00    +0.000 C 
ATOM     16  C   UNL     1      -0.170  45.764  17.785  0.00  0.00    +0.000 C 
ATOM     17  C   UNL     1      -4.990  41.566  17.487  0.00  0.00    +0.000 C 
ATOM     18  C   UNL     1      -2.306  47.138  20.003  0.00  0.00    +0.000 C 
ATOM     19  C   UNL     1      -7.214  46.338  17.400  0.00  0.00    +0.000 C 
ATOM     20  C   UNL     1       0.388  45.883  18.843  0.00  0.00    +0.000 C 
ATOM     21  C   UNL     1      -1.061  46.911  20.858  0.00  0.00    +0.000 C 
ATOM     22  C   UNL     1      -6.377  41.510  18.134  0.00  0.00    +0.000 C 
ATOM     23  C   UNL     1       0.231  46.326  20.299  0.00  0.00    +0.000 C 
ATOM     24  C   UNL     1      -8.326  45.635  18.175  0.00  0.00    +0.000 C 
ATOM     25  C   UNL     1      -7.718  41.983  18.686  0.00  0.00    +0.000 C 
ATOM     26  C   UNL     1      -8.673  43.142  18.918  0.00  0.00    +0.000 C 
ATOM     27  C   UNL     1      -8.782  44.633  18.645  0.00  0.00    +0.000 C 
ENDROOT
BRANCH  11  30
ATOM     28  N   UNL     1      -6.073  44.039  12.285  0.00  0.00    +0.000 NA
ATOM     29  N   UNL     1      -3.199  46.092  11.180  0.00  0.00    +0.000 N 
ATOM     30  C   UNL     1      -4.947  44.773  12.433  0.00  0.00    +0.000 A 
ATOM     31  C   UNL     1      -4.325  45.311  11.309  0.00  0.00    +0.000 A 
ATOM     32  C   UNL     1      -4.834  45.113  10.024  0.00  0.00    +0.000 A 
ATOM     33  C   UNL     1      -6.559  43.852  11.039  0.00  0.00    +0.000 A 
ATOM     34  C   UNL     1      -6.001  44.349   9.869  0.00  0.00    +0.000 A 
ATOM     35  C   UNL     1      -3.971  45.793   9.111  0.00  0.00    +0.000 A 
ATOM     36  C   UNL     1      -2.962  46.393   9.860  0.00  0.00    +0.000 A 
ATOM     37  C   UNL     1      -3.962  45.952   7.713  0.00  0.00    +0.000 A 
ATOM     38  C   UNL     1      -1.936  47.152   9.287  0.00  0.00    +0.000 A 
ATOM     39  C   UNL     1      -2.945  46.706   7.121  0.00  0.00    +0.000 A 
ATOM     40  C   UNL     1      -1.953  47.293   7.898  0.00  0.00    +0.000 A 
ATOM     41  H   UNL     1      -2.627  46.411  11.950  0.00  0.00    +0.000 HD
ENDBRANCH  11  30
BRANCH   7  42
ATOM     42  O   UNL     1      -4.326  47.950  15.601  0.00  0.00    +0.000 OA
ATOM     43  H   UNL     1      -3.477  48.073  16.060  0.00  0.00    +0.000 HD
ENDBRANCH   7  42
TORSDOF 2
ENDMDL
MODEL 4
REMARK VINA RESULT:      -8.9      7.384     10.875
REMARK  Name = 6509753_ManzamineA.pdbqt.pdb
REMARK  2 active torsions:
REMARK  status: ('A' for Active; 'I' for Inactive)
REMARK    1  A    between atoms: C_7  and  O_42
REMARK    2  A    between atoms: C_11  and  C_30
REMARK                            x       y       z     vdW  Elec       q    Type
REMARK                         _______ _______ _______ _____ _____    ______ ____
ROOT
ATOM      1  N   UNL     1     -12.318  42.377   7.826  0.00  0.00    +0.000 N 
ATOM      2  N   UNL     1     -13.928  44.353  12.110  0.00  0.00    +0.000 N 
ATOM      3  C   UNL     1     -12.078  43.535  10.065  0.00  0.00    +0.000 C 
ATOM      4  C   UNL     1     -12.007  42.193   9.267  0.00  0.00    +0.000 C 
ATOM      5  C   UNL     1     -10.846  43.961  10.965  0.00  0.00    +0.000 C 
ATOM      6  C   UNL     1     -12.200  44.411   8.903  0.00  0.00    +0.000 C 
ATOM      7  C   UNL     1     -10.934  41.165   9.638  0.00  0.00    +0.000 C 
ATOM      8  C   UNL     1     -13.303  43.673  10.928  0.00  0.00    +0.000 C 
ATOM      9  C   UNL     1     -12.544  43.831   7.668  0.00  0.00    +0.000 C 
ATOM     10  C   UNL     1     -11.229  44.732  12.121  0.00  0.00    +0.000 C 
ATOM     11  C   UNL     1      -9.737  43.023  11.069  0.00  0.00    +0.000 C 
ATOM     12  C   UNL     1     -10.003  41.911  10.460  0.00  0.00    +0.000 C 
ATOM     13  C   UNL     1     -12.659  44.862  12.653  0.00  0.00    +0.000 C 
ATOM     14  C   UNL     1     -13.464  41.568   7.403  0.00  0.00    +0.000 C 
ATOM     15  C   UNL     1     -11.538  40.013  10.300  0.00  0.00    +0.000 C 
ATOM     16  C   UNL     1     -13.514  44.341   6.753  0.00  0.00    +0.000 C 
ATOM     17  C   UNL     1     -14.427  43.322  13.003  0.00  0.00    +0.000 C 
ATOM     18  C   UNL     1     -14.776  41.215   6.678  0.00  0.00    +0.000 C 
ATOM     19  C   UNL     1     -12.228  38.923  11.123  0.00  0.00    +0.000 C 
ATOM     20  C   UNL     1     -14.487  44.330   6.048  0.00  0.00    +0.000 C 
ATOM     21  C   UNL     1     -15.771  41.982   5.809  0.00  0.00    +0.000 C 
ATOM     22  C   UNL     1     -14.900  42.112  13.814  0.00  0.00    +0.000 C 
ATOM     23  C   UNL     1     -15.623  43.467   5.496  0.00  0.00    +0.000 C 
ATOM     24  C   UNL     1     -13.103  38.251  12.178  0.00  0.00    +0.000 C 
ATOM     25  C   UNL     1     -15.082  40.658  14.240  0.00  0.00    +0.000 C 
ATOM     26  C   UNL     1     -14.736  39.198  14.000  0.00  0.00    +0.000 C 
ATOM     27  C   UNL     1     -13.884  38.340  13.081  0.00  0.00    +0.000 C 
ENDROOT
BRANCH  11  30
ATOM     28  N   UNL     1      -7.490  43.872  11.413  0.00  0.00    +0.000 NA
ATOM     29  N   UNL     1      -9.394  41.887  13.888  0.00  0.00    +0.000 N 
ATOM     30  C   UNL     1      -8.547  43.180  11.894  0.00  0.00    +0.000 A 
ATOM     31  C   UNL     1      -8.476  42.615  13.165  0.00  0.00    +0.000 A 
ATOM     32  C   UNL     1      -7.337  42.743  13.962  0.00  0.00    +0.000 A 
ATOM     33  C   UNL     1      -6.392  43.992  12.190  0.00  0.00    +0.000 A 
ATOM     34  C   UNL     1      -6.238  43.459  13.462  0.00  0.00    +0.000 A 
ATOM     35  C   UNL     1      -7.593  42.059  15.190  0.00  0.00    +0.000 A 
ATOM     36  C   UNL     1      -8.882  41.536  15.115  0.00  0.00    +0.000 A 
ATOM     37  C   UNL     1      -6.842  41.841  16.360  0.00  0.00    +0.000 A 
ATOM     38  C   UNL     1      -9.468  40.803  16.151  0.00  0.00    +0.000 A 
ATOM     39  C   UNL     1      -7.410  41.110  17.407  0.00  0.00    +0.000 A 
ATOM     40  C   UNL     1      -8.700  40.603  17.300  0.00  0.00    +0.000 A 
ATOM     41  H   UNL     1     -10.323  41.649  13.569  0.00  0.00    +0.000 HD
ENDBRANCH  11  30
BRANCH   7  42
ATOM     42  O   UNL     1     -10.236  40.723   8.483  0.00  0.00    +0.000 OA
ATOM     43  H   UNL     1      -9.747  39.927   8.752  0.00  0.00    +0.000 HD
ENDBRANCH   7  42
TORSDOF 2
ENDMDL
MODEL 5
REMARK VINA RESULT:      -8.8      5.060      9.679
REMARK  Name = 6509753_ManzamineA.pdbqt.pdb
REMARK  2 active torsions:
REMARK  status: ('A' for Active; 'I' for Inactive)
REMARK    1  A    between atoms: C_7  and  O_42
REMARK    2  A    between atoms: C_11  and  C_30
REMARK                            x       y       z     vdW  Elec       q    Type
REMARK                         _______ _______ _______ _____ _____    ______ ____
ROOT
ATOM      1  N   UNL     1      -8.960  41.076  17.786  0.00  0.00    +0.000 N 
ATOM      2  N   UNL     1     -10.653  45.051  15.299  0.00  0.00    +0.000 N 
ATOM      3  C   UNL     1     -10.615  42.390  16.390  0.00  0.00    +0.000 C 
ATOM      4  C   UNL     1      -9.457  41.339  16.411  0.00  0.00    +0.000 C 
ATOM      5  C   UNL     1     -11.966  42.031  15.645  0.00  0.00    +0.000 C 
ATOM      6  C   UNL     1     -10.816  42.441  17.836  0.00  0.00    +0.000 C 
ATOM      7  C   UNL     1      -9.507  40.161  15.435  0.00  0.00    +0.000 C 
ATOM      8  C   UNL     1     -10.203  43.749  15.893  0.00  0.00    +0.000 C 
ATOM      9  C   UNL     1      -9.813  41.907  18.666  0.00  0.00    +0.000 C 
ATOM     10  C   UNL     1     -12.625  43.182  15.082  0.00  0.00    +0.000 C 
ATOM     11  C   UNL     1     -12.022  40.760  14.937  0.00  0.00    +0.000 C 
ATOM     12  C   UNL     1     -10.874  40.159  14.956  0.00  0.00    +0.000 C 
ATOM     13  C   UNL     1     -11.979  44.558  14.896  0.00  0.00    +0.000 C 
ATOM     14  C   UNL     1      -7.532  41.375  17.922  0.00  0.00    +0.000 C 
ATOM     15  C   UNL     1      -8.500  40.321  14.390  0.00  0.00    +0.000 C 
ATOM     16  C   UNL     1      -9.293  42.525  19.842  0.00  0.00    +0.000 C 
ATOM     17  C   UNL     1      -9.868  45.286  14.099  0.00  0.00    +0.000 C 
ATOM     18  C   UNL     1      -6.235  41.903  18.564  0.00  0.00    +0.000 C 
ATOM     19  C   UNL     1      -7.532  40.645  13.250  0.00  0.00    +0.000 C 
ATOM     20  C   UNL     1      -8.461  42.973  20.585  0.00  0.00    +0.000 C 
ATOM     21  C   UNL     1      -5.898  42.687  19.830  0.00  0.00    +0.000 C 
ATOM     22  C   UNL     1      -8.947  45.379  12.879  0.00  0.00    +0.000 C 
ATOM     23  C   UNL     1      -6.962  43.184  20.803  0.00  0.00    +0.000 C 
ATOM     24  C   UNL     1      -6.817  41.412  12.141  0.00  0.00    +0.000 C 
ATOM     25  C   UNL     1      -7.919  44.970  11.829  0.00  0.00    +0.000 C 
ATOM     26  C   UNL     1      -7.017  43.880  11.272  0.00  0.00    +0.000 C 
ATOM     27  C   UNL     1      -6.661  42.424  11.520  0.00  0.00    +0.000 C 
ENDROOT
BRANCH  11  30
ATOM     28  N   UNL     1     -14.267  39.860  14.740  0.00  0.00    +0.000 NA
ATOM     29  N   UNL     1     -12.017  40.554  11.885  0.00  0.00    +0.000 N 
ATOM     30  C   UNL     1     -13.131  40.268  14.131  0.00  0.00    +0.000 A 
ATOM     31  C   UNL     1     -13.033  40.199  12.743  0.00  0.00    +0.000 A 
ATOM     32  C   UNL     1     -14.081  39.716  11.957  0.00  0.00    +0.000 A 
ATOM     33  C   UNL     1     -15.276  39.394  13.973  0.00  0.00    +0.000 A 
ATOM     34  C   UNL     1     -15.260  39.289  12.589  0.00  0.00    +0.000 A 
ATOM     35  C   UNL     1     -13.661  39.782  10.593  0.00  0.00    +0.000 A 
ATOM     36  C   UNL     1     -12.371  40.308  10.580  0.00  0.00    +0.000 A 
ATOM     37  C   UNL     1     -14.266  39.442   9.369  0.00  0.00    +0.000 A 
ATOM     38  C   UNL     1     -11.647  40.518   9.402  0.00  0.00    +0.000 A 
ATOM     39  C   UNL     1     -13.558  39.643   8.181  0.00  0.00    +0.000 A 
ATOM     40  C   UNL     1     -12.272  40.172   8.202  0.00  0.00    +0.000 A 
ATOM     41  H   UNL     1     -11.133  40.952  12.171  0.00  0.00    +0.000 HD
ENDBRANCH  11  30
BRANCH   7  42
ATOM     42  O   UNL     1      -9.282  38.933  16.111  0.00  0.00    +0.000 OA
ATOM     43  H   UNL     1     -10.154  38.632  16.419  0.00  0.00    +0.000 HD
ENDBRANCH   7  42
TORSDOF 2
ENDMDL
MODEL 6
REMARK VINA RESULT:      -8.7      3.729      7.170
REMARK  Name = 6509753_ManzamineA.pdbqt.pdb
REMARK  2 active torsions:
REMARK  status: ('A' for Active; 'I' for Inactive)
REMARK    1  A    between atoms: C_7  and  O_42
REMARK    2  A    between atoms: C_11  and  C_30
REMARK                            x       y       z     vdW  Elec       q    Type
REMARK                         _______ _______ _______ _____ _____    ______ ____
ROOT
ATOM      1  N   UNL     1      -9.359  42.233  19.470  0.00  0.00    +0.000 N 
ATOM      2  N   UNL     1      -9.744  46.144  16.404  0.00  0.00    +0.000 N 
ATOM      3  C   UNL     1      -9.596  43.394  17.232  0.00  0.00    +0.000 C 
ATOM      4  C   UNL     1      -8.638  42.716  18.264  0.00  0.00    +0.000 C 
ATOM      5  C   UNL     1      -9.571  42.909  15.724  0.00  0.00    +0.000 C 
ATOM      6  C   UNL     1     -10.843  43.002  17.883  0.00  0.00    +0.000 C 
ATOM      7  C   UNL     1      -7.469  41.872  17.748  0.00  0.00    +0.000 C 
ATOM      8  C   UNL     1      -9.499  44.895  17.197  0.00  0.00    +0.000 C 
ATOM      9  C   UNL     1     -10.783  42.546  19.213  0.00  0.00    +0.000 C 
ATOM     10  C   UNL     1      -9.891  43.955  14.786  0.00  0.00    +0.000 C 
ATOM     11  C   UNL     1      -8.580  41.905  15.361  0.00  0.00    +0.000 C 
ATOM     12  C   UNL     1      -7.791  41.641  16.354  0.00  0.00    +0.000 C 
ATOM     13  C   UNL     1      -9.923  45.450  15.120  0.00  0.00    +0.000 C 
ATOM     14  C   UNL     1      -8.849  42.846  20.699  0.00  0.00    +0.000 C 
ATOM     15  C   UNL     1      -6.203  42.562  17.971  0.00  0.00    +0.000 C 
ATOM     16  C   UNL     1     -11.662  42.940  20.266  0.00  0.00    +0.000 C 
ATOM     17  C   UNL     1      -8.497  46.889  16.351  0.00  0.00    +0.000 C 
ATOM     18  C   UNL     1      -8.884  43.502  22.092  0.00  0.00    +0.000 C 
ATOM     19  C   UNL     1      -4.942  43.420  18.097  0.00  0.00    +0.000 C 
ATOM     20  C   UNL     1     -11.982  43.373  21.340  0.00  0.00    +0.000 C 
ATOM     21  C   UNL     1      -9.988  43.978  23.035  0.00  0.00    +0.000 C 
ATOM     22  C   UNL     1      -7.113  47.542  16.409  0.00  0.00    +0.000 C 
ATOM     23  C   UNL     1     -11.468  43.901  22.680  0.00  0.00    +0.000 C 
ATOM     24  C   UNL     1      -3.997  44.615  18.003  0.00  0.00    +0.000 C 
ATOM     25  C   UNL     1      -5.622  47.711  16.685  0.00  0.00    +0.000 C 
ATOM     26  C   UNL     1      -4.330  47.085  17.182  0.00  0.00    +0.000 C 
ATOM     27  C   UNL     1      -3.807  45.761  17.712  0.00  0.00    +0.000 C 
ENDROOT
BRANCH  11  30
ATOM     28  N   UNL     1      -7.119  41.539  13.460  0.00  0.00    +0.000 NA
ATOM     29  N   UNL     1     -10.636  40.408  13.660  0.00  0.00    +0.000 N 
ATOM     30  C   UNL     1      -8.335  41.376  14.026  0.00  0.00    +0.000 A 
ATOM     31  C   UNL     1      -9.338  40.716  13.320  0.00  0.00    +0.000 A 
ATOM     32  C   UNL     1      -9.123  40.217  12.034  0.00  0.00    +0.000 A 
ATOM     33  C   UNL     1      -6.918  41.053  12.215  0.00  0.00    +0.000 A 
ATOM     34  C   UNL     1      -7.862  40.390  11.444  0.00  0.00    +0.000 A 
ATOM     35  C   UNL     1     -10.339  39.604  11.603  0.00  0.00    +0.000 A 
ATOM     36  C   UNL     1     -11.264  39.739  12.637  0.00  0.00    +0.000 A 
ATOM     37  C   UNL     1     -10.734  38.944  10.424  0.00  0.00    +0.000 A 
ATOM     38  C   UNL     1     -12.570  39.246  12.559  0.00  0.00    +0.000 A 
ATOM     39  C   UNL     1     -12.036  38.445  10.328  0.00  0.00    +0.000 A 
ATOM     40  C   UNL     1     -12.933  38.595  11.379  0.00  0.00    +0.000 A 
ATOM     41  H   UNL     1     -11.070  40.633  14.545  0.00  0.00    +0.000 HD
ENDBRANCH  11  30
BRANCH   7  42
ATOM     42  O   UNL     1      -7.430  40.610  18.399  0.00  0.00    +0.000 OA
ATOM     43  H   UNL     1      -7.272  40.797  19.339  0.00  0.00    +0.000 HD
ENDBRANCH   7  42
TORSDOF 2
ENDMDL
MODEL 7
REMARK VINA RESULT:      -8.6      2.532      6.962
REMARK  Name = 6509753_ManzamineA.pdbqt.pdb
REMARK  2 active torsions:
REMARK  status: ('A' for Active; 'I' for Inactive)
REMARK    1  A    between atoms: C_7  and  O_42
REMARK    2  A    between atoms: C_11  and  C_30
REMARK                            x       y       z     vdW  Elec       q    Type
REMARK                         _______ _______ _______ _____ _____    ______ ____
ROOT
ATOM      1  N   UNL     1      -4.141  42.797  20.168  0.00  0.00    +0.000 N 
ATOM      2  N   UNL     1      -4.446  46.646  17.015  0.00  0.00    +0.000 N 
ATOM      3  C   UNL     1      -4.950  44.036  18.113  0.00  0.00    +0.000 C 
ATOM      4  C   UNL     1      -3.946  42.996  18.709  0.00  0.00    +0.000 C 
ATOM      5  C   UNL     1      -5.812  43.635  16.845  0.00  0.00    +0.000 C 
ATOM      6  C   UNL     1      -5.793  44.149  19.300  0.00  0.00    +0.000 C 
ATOM      7  C   UNL     1      -3.557  41.776  17.869  0.00  0.00    +0.000 C 
ATOM      8  C   UNL     1      -4.337  45.375  17.804  0.00  0.00    +0.000 C 
ATOM      9  C   UNL     1      -5.291  43.659  20.520  0.00  0.00    +0.000 C 
ATOM     10  C   UNL     1      -6.123  44.755  15.994  0.00  0.00    +0.000 C 
ATOM     11  C   UNL     1      -5.554  42.333  16.245  0.00  0.00    +0.000 C 
ATOM     12  C   UNL     1      -4.551  41.742  16.816  0.00  0.00    +0.000 C 
ATOM     13  C   UNL     1      -5.444  46.126  16.068  0.00  0.00    +0.000 C 
ATOM     14  C   UNL     1      -2.932  43.112  20.932  0.00  0.00    +0.000 C 
ATOM     15  C   UNL     1      -2.181  41.897  17.399  0.00  0.00    +0.000 C 
ATOM     16  C   UNL     1      -5.363  44.332  21.777  0.00  0.00    +0.000 C 
ATOM     17  C   UNL     1      -3.194  46.835  16.302  0.00  0.00    +0.000 C 
ATOM     18  C   UNL     1      -2.068  43.677  22.076  0.00  0.00    +0.000 C 
ATOM     19  C   UNL     1      -0.793  42.178  16.819  0.00  0.00    +0.000 C 
ATOM     20  C   UNL     1      -4.959  44.818  22.799  0.00  0.00    +0.000 C 
ATOM     21  C   UNL     1      -2.341  44.518  23.321  0.00  0.00    +0.000 C 
ATOM     22  C   UNL     1      -1.814  46.881  15.640  0.00  0.00    +0.000 C 
ATOM     23  C   UNL     1      -3.726  45.050  23.674  0.00  0.00    +0.000 C 
ATOM     24  C   UNL     1       0.362  42.901  16.132  0.00  0.00    +0.000 C 
ATOM     25  C   UNL     1      -0.424  46.433  15.199  0.00  0.00    +0.000 C 
ATOM     26  C   UNL     1       0.618  45.327  15.166  0.00  0.00    +0.000 C 
ATOM     27  C   UNL     1       0.800  43.886  15.611  0.00  0.00    +0.000 C 
ENDROOT
BRANCH  11  30
ATOM     28  N   UNL     1      -5.440  41.680  13.912  0.00  0.00    +0.000 NA
ATOM     29  N   UNL     1      -8.467  41.426  16.025  0.00  0.00    +0.000 N 
ATOM     30  C   UNL     1      -6.174  41.799  15.041  0.00  0.00    +0.000 A 
ATOM     31  C   UNL     1      -7.514  41.421  15.031  0.00  0.00    +0.000 A 
ATOM     32  C   UNL     1      -8.127  40.922  13.881  0.00  0.00    +0.000 A 
ATOM     33  C   UNL     1      -6.039  41.195  12.802  0.00  0.00    +0.000 A 
ATOM     34  C   UNL     1      -7.367  40.801  12.707  0.00  0.00    +0.000 A 
ATOM     35  C   UNL     1      -9.487  40.632  14.209  0.00  0.00    +0.000 A 
ATOM     36  C   UNL     1      -9.669  40.956  15.552  0.00  0.00    +0.000 A 
ATOM     37  C   UNL     1     -10.578  40.120  13.483  0.00  0.00    +0.000 A 
ATOM     38  C   UNL     1     -10.889  40.795  16.215  0.00  0.00    +0.000 A 
ATOM     39  C   UNL     1     -11.806  39.953  14.128  0.00  0.00    +0.000 A 
ATOM     40  C   UNL     1     -11.954  40.285  15.470  0.00  0.00    +0.000 A 
ATOM     41  H   UNL     1      -8.306  41.723  16.977  0.00  0.00    +0.000 HD
ENDBRANCH  11  30
BRANCH   7  42
ATOM     42  O   UNL     1      -3.686  40.580  18.625  0.00  0.00    +0.000 OA
ATOM     43  H   UNL     1      -3.631  39.851  17.985  0.00  0.00    +0.000 HD
ENDBRANCH   7  42
TORSDOF 2
ENDMDL
MODEL 8
REMARK VINA RESULT:      -8.6      4.202      6.663
REMARK  Name = 6509753_ManzamineA.pdbqt.pdb
REMARK  2 active torsions:
REMARK  status: ('A' for Active; 'I' for Inactive)
REMARK    1  A    between atoms: C_7  and  O_42
REMARK    2  A    between atoms: C_11  and  C_30
REMARK                            x       y       z     vdW  Elec       q    Type
REMARK                         _______ _______ _______ _____ _____    ______ ____
ROOT
ATOM      1  N   UNL     1      -9.355  40.435  11.479  0.00  0.00    +0.000 N 
ATOM      2  N   UNL     1      -9.769  45.183  12.936  0.00  0.00    +0.000 N 
ATOM      3  C   UNL     1      -8.504  42.704  12.211  0.00  0.00    +0.000 C 
ATOM      4  C   UNL     1      -8.869  41.242  12.627  0.00  0.00    +0.000 C 
ATOM      5  C   UNL     1      -7.080  43.282  12.597  0.00  0.00    +0.000 C 
ATOM      6  C   UNL     1      -8.607  42.495  10.769  0.00  0.00    +0.000 C 
ATOM      7  C   UNL     1      -8.013  40.536  13.682  0.00  0.00    +0.000 C 
ATOM      8  C   UNL     1      -9.512  43.735  12.642  0.00  0.00    +0.000 C 
ATOM      9  C   UNL     1      -9.266  41.339  10.311  0.00  0.00    +0.000 C 
ATOM     10  C   UNL     1      -7.088  44.705  12.823  0.00  0.00    +0.000 C 
ATOM     11  C   UNL     1      -6.212  42.436  13.405  0.00  0.00    +0.000 C 
ATOM     12  C   UNL     1      -6.818  41.350  13.768  0.00  0.00    +0.000 C 
ATOM     13  C   UNL     1      -8.348  45.554  13.018  0.00  0.00    +0.000 C 
ATOM     14  C   UNL     1     -10.707  39.918  11.703  0.00  0.00    +0.000 C 
ATOM     15  C   UNL     1      -8.750  40.409  14.935  0.00  0.00    +0.000 C 
ATOM     16  C   UNL     1     -10.227  41.295   9.257  0.00  0.00    +0.000 C 
ATOM     17  C   UNL     1     -10.341  45.270  14.269  0.00  0.00    +0.000 C 
ATOM     18  C   UNL     1     -12.164  39.533  11.382  0.00  0.00    +0.000 C 
ATOM     19  C   UNL     1      -9.531  40.460  16.251  0.00  0.00    +0.000 C 
ATOM     20  C   UNL     1     -11.276  41.057   8.722  0.00  0.00    +0.000 C 
ATOM     21  C   UNL     1     -13.083  39.697  10.172  0.00  0.00    +0.000 C 
ATOM     22  C   UNL     1     -10.942  45.175  15.674  0.00  0.00    +0.000 C 
ATOM     23  C   UNL     1     -12.652  40.411   8.897  0.00  0.00    +0.000 C 
ATOM     24  C   UNL     1     -10.356  40.999  17.416  0.00  0.00    +0.000 C 
ATOM     25  C   UNL     1     -11.380  44.569  17.005  0.00  0.00    +0.000 C 
ATOM     26  C   UNL     1     -11.419  43.347  17.907  0.00  0.00    +0.000 C 
ATOM     27  C   UNL     1     -10.942  41.905  17.934  0.00  0.00    +0.000 C 
ENDROOT
BRANCH  11  30
ATOM     28  N   UNL     1      -4.606  44.096  14.147  0.00  0.00    +0.000 NA
ATOM     29  N   UNL     1      -3.988  40.449  14.085  0.00  0.00    +0.000 N 
ATOM     30  C   UNL     1      -4.902  42.795  13.930  0.00  0.00    +0.000 A 
ATOM     31  C   UNL     1      -3.945  41.820  14.200  0.00  0.00    +0.000 A 
ATOM     32  C   UNL     1      -2.680  42.149  14.690  0.00  0.00    +0.000 A 
ATOM     33  C   UNL     1      -3.380  44.407  14.621  0.00  0.00    +0.000 A 
ATOM     34  C   UNL     1      -2.371  43.500  14.912  0.00  0.00    +0.000 A 
ATOM     35  C   UNL     1      -1.954  40.930  14.858  0.00  0.00    +0.000 A 
ATOM     36  C   UNL     1      -2.795  39.888  14.474  0.00  0.00    +0.000 A 
ATOM     37  C   UNL     1      -0.657  40.621  15.307  0.00  0.00    +0.000 A 
ATOM     38  C   UNL     1      -2.410  38.544  14.514  0.00  0.00    +0.000 A 
ATOM     39  C   UNL     1      -0.253  39.284  15.354  0.00  0.00    +0.000 A 
ATOM     40  C   UNL     1      -1.117  38.268  14.964  0.00  0.00    +0.000 A 
ATOM     41  H   UNL     1      -4.790  39.921  13.768  0.00  0.00    +0.000 HD
ENDBRANCH  11  30
BRANCH   7  42
ATOM     42  O   UNL     1      -7.627  39.243  13.238  0.00  0.00    +0.000 OA
ATOM     43  H   UNL     1      -6.952  39.385  12.553  0.00  0.00    +0.000 HD
ENDBRANCH   7  42
TORSDOF 2
ENDMDL
MODEL 9
REMARK VINA RESULT:      -8.5      5.011      9.916
REMARK  Name = 6509753_ManzamineA.pdbqt.pdb
REMARK  2 active torsions:
REMARK  status: ('A' for Active; 'I' for Inactive)
REMARK    1  A    between atoms: C_7  and  O_42
REMARK    2  A    between atoms: C_11  and  C_30
REMARK                            x       y       z     vdW  Elec       q    Type
REMARK                         _______ _______ _______ _____ _____    ______ ____
ROOT
ATOM      1  N   UNL     1      -9.312  41.118  17.404  0.00  0.00    +0.000 N 
ATOM      2  N   UNL     1     -10.144  45.220  14.698  0.00  0.00    +0.000 N 
ATOM      3  C   UNL     1     -10.400  42.494  15.579  0.00  0.00    +0.000 C 
ATOM      4  C   UNL     1      -9.288  41.463  15.960  0.00  0.00    +0.000 C 
ATOM      5  C   UNL     1     -11.375  42.164  14.375  0.00  0.00    +0.000 C 
ATOM      6  C   UNL     1     -11.111  42.447  16.852  0.00  0.00    +0.000 C 
ATOM      7  C   UNL     1      -8.936  40.351  14.968  0.00  0.00    +0.000 C 
ATOM      8  C   UNL     1      -9.888  43.889  15.341  0.00  0.00    +0.000 C 
ATOM      9  C   UNL     1     -10.456  41.875  17.959  0.00  0.00    +0.000 C 
ATOM     10  C   UNL     1     -11.831  43.339  13.676  0.00  0.00    +0.000 C 
ATOM     11  C   UNL     1     -11.123  40.942  13.625  0.00  0.00    +0.000 C 
ATOM     12  C   UNL     1     -10.037  40.359  14.026  0.00  0.00    +0.000 C 
ATOM     13  C   UNL     1     -11.214  44.734  13.814  0.00  0.00    +0.000 C 
ATOM     14  C   UNL     1      -8.042  41.429  18.066  0.00  0.00    +0.000 C 
ATOM     15  C   UNL     1      -7.627  40.595  14.370  0.00  0.00    +0.000 C 
ATOM     16  C   UNL     1     -10.420  42.423  19.276  0.00  0.00    +0.000 C 
ATOM     17  C   UNL     1      -8.988  45.547  13.880  0.00  0.00    +0.000 C 
ATOM     18  C   UNL     1      -7.086  41.934  19.162  0.00  0.00    +0.000 C 
ATOM     19  C   UNL     1      -6.326  41.009  13.679  0.00  0.00    +0.000 C 
ATOM     20  C   UNL     1      -9.931  42.834  20.294  0.00  0.00    +0.000 C 
ATOM     21  C   UNL     1      -7.260  42.638  20.507  0.00  0.00    +0.000 C 
ATOM     22  C   UNL     1      -7.692  45.734  13.085  0.00  0.00    +0.000 C 
ATOM     23  C   UNL     1      -8.621  43.053  21.053  0.00  0.00    +0.000 C 
ATOM     24  C   UNL     1      -5.288  41.859  12.950  0.00  0.00    +0.000 C 
ATOM     25  C   UNL     1      -6.339  45.411  12.458  0.00  0.00    +0.000 C 
ATOM     26  C   UNL     1      -5.256  44.375  12.207  0.00  0.00    +0.000 C 
ATOM     27  C   UNL     1      -4.958  42.912  12.486  0.00  0.00    +0.000 C 
ENDROOT
BRANCH  11  30
ATOM     28  N   UNL     1     -11.187  40.355  11.272  0.00  0.00    +0.000 NA
ATOM     29  N   UNL     1     -14.099  40.236  13.552  0.00  0.00    +0.000 N 
ATOM     30  C   UNL     1     -11.845  40.487  12.445  0.00  0.00    +0.000 A 
ATOM     31  C   UNL     1     -13.207  40.199  12.504  0.00  0.00    +0.000 A 
ATOM     32  C   UNL     1     -13.916  39.777  11.378  0.00  0.00    +0.000 A 
ATOM     33  C   UNL     1     -11.880  39.945  10.187  0.00  0.00    +0.000 A 
ATOM     34  C   UNL     1     -13.234  39.643  10.159  0.00  0.00    +0.000 A 
ATOM     35  C   UNL     1     -15.272  39.569  11.778  0.00  0.00    +0.000 A 
ATOM     36  C   UNL     1     -15.355  39.862  13.138  0.00  0.00    +0.000 A 
ATOM     37  C   UNL     1     -16.435  39.153  11.104  0.00  0.00    +0.000 A 
ATOM     38  C   UNL     1     -16.543  39.762  13.867  0.00  0.00    +0.000 A 
ATOM     39  C   UNL     1     -17.633  39.047  11.816  0.00  0.00    +0.000 A 
ATOM     40  C   UNL     1     -17.681  39.346  13.173  0.00  0.00    +0.000 A 
ATOM     41  H   UNL     1     -13.864  40.493  14.501  0.00  0.00    +0.000 HD
ENDBRANCH  11  30
BRANCH   7  42
ATOM     42  O   UNL     1      -8.924  39.085  15.610  0.00  0.00    +0.000 OA
ATOM     43  H   UNL     1      -9.800  38.982  16.019  0.00  0.00    +0.000 HD
ENDBRANCH   7  42
TORSDOF 2
ENDMDL
