MODEL 1
REMARK VINA RESULT:      -4.6      0.000      0.000
REMARK  Name = 67499_Pyrazolo.pdbqt.pdb
REMARK  0 active torsions:
REMARK  status: ('A' for Active; 'I' for Inactive)
REMARK                            x       y       z     vdW  Elec       q    Type
REMARK                         _______ _______ _______ _____ _____    ______ ____
ROOT
ATOM      1  N   UNL     1       6.539  28.294  14.024  0.00  0.00    +0.000 N 
ATOM      2  N   UNL     1       7.247  29.135  14.809  0.00  0.00    +0.000 NA
ATOM      3  N   UNL     1       4.268  27.503  13.737  0.00  0.00    +0.000 NA
ATOM      4  N   UNL     1       2.757  28.509  15.339  0.00  0.00    +0.000 NA
ATOM      5  C   UNL     1       5.040  29.107  15.397  0.00  0.00    +0.000 A 
ATOM      6  C   UNL     1       5.212  28.243  14.337  0.00  0.00    +0.000 A 
ATOM      7  C   UNL     1       6.323  29.627  15.645  0.00  0.00    +0.000 A 
ATOM      8  C   UNL     1       3.754  29.232  15.905  0.00  0.00    +0.000 A 
ATOM      9  C   UNL     1       3.062  27.699  14.305  0.00  0.00    +0.000 A 
ATOM     10  H   UNL     1       7.016  27.782  13.291  0.00  0.00    +0.000 HD
ENDROOT
TORSDOF 0
ENDMDL
MODEL 2
REMARK VINA RESULT:      -4.3      4.865      6.340
REMARK  Name = 67499_Pyrazolo.pdbqt.pdb
REMARK  0 active torsions:
REMARK  status: ('A' for Active; 'I' for Inactive)
REMARK                            x       y       z     vdW  Elec       q    Type
REMARK                         _______ _______ _______ _____ _____    ______ ____
ROOT
ATOM      1  N   UNL     1       2.197  31.633  16.345  0.00  0.00    +0.000 N 
ATOM      2  N   UNL     1       1.915  30.323  16.180  0.00  0.00    +0.000 NA
ATOM      3  N   UNL     1       1.061  33.771  16.444  0.00  0.00    +0.000 NA
ATOM      4  N   UNL     1      -1.332  33.531  16.164  0.00  0.00    +0.000 NA
ATOM      5  C   UNL     1       0.020  31.596  16.109  0.00  0.00    +0.000 A 
ATOM      6  C   UNL     1       1.094  32.437  16.310  0.00  0.00    +0.000 A 
ATOM      7  C   UNL     1       0.583  30.310  16.036  0.00  0.00    +0.000 A 
ATOM      8  C   UNL     1      -1.235  32.184  16.036  0.00  0.00    +0.000 A 
ATOM      9  C   UNL     1      -0.199  34.238  16.358  0.00  0.00    +0.000 A 
ATOM     10  H   UNL     1       3.160  31.920  16.477  0.00  0.00    +0.000 HD
ENDROOT
TORSDOF 0
ENDMDL
MODEL 3
REMARK VINA RESULT:      -4.1      3.171      4.555
REMARK  Name = 67499_Pyrazolo.pdbqt.pdb
REMARK  0 active torsions:
REMARK  status: ('A' for Active; 'I' for Inactive)
REMARK                            x       y       z     vdW  Elec       q    Type
REMARK                         _______ _______ _______ _____ _____    ______ ____
ROOT
ATOM      1  N   UNL     1       3.062  32.393  16.832  0.00  0.00    +0.000 N 
ATOM      2  N   UNL     1       2.016  33.248  16.815  0.00  0.00    +0.000 NA
ATOM      3  N   UNL     1       3.578  30.091  16.284  0.00  0.00    +0.000 NA
ATOM      4  N   UNL     1       1.639  28.913  15.435  0.00  0.00    +0.000 NA
ATOM      5  C   UNL     1       1.414  31.182  16.048  0.00  0.00    +0.000 A 
ATOM      6  C   UNL     1       2.752  31.143  16.382  0.00  0.00    +0.000 A 
ATOM      7  C   UNL     1       1.014  32.499  16.335  0.00  0.00    +0.000 A 
ATOM      8  C   UNL     1       0.853  30.011  15.558  0.00  0.00    +0.000 A 
ATOM      9  C   UNL     1       2.935  29.011  15.799  0.00  0.00    +0.000 A 
ATOM     10  H   UNL     1       3.963  32.720  17.161  0.00  0.00    +0.000 HD
ENDROOT
TORSDOF 0
ENDMDL
MODEL 4
REMARK VINA RESULT:      -4.0      9.776     10.542
REMARK  Name = 67499_Pyrazolo.pdbqt.pdb
REMARK  0 active torsions:
REMARK  status: ('A' for Active; 'I' for Inactive)
REMARK                            x       y       z     vdW  Elec       q    Type
REMARK                         _______ _______ _______ _____ _____    ______ ____
ROOT
ATOM      1  N   UNL     1      10.642  36.647  14.479  0.00  0.00    +0.000 N 
ATOM      2  N   UNL     1      11.812  37.070  15.006  0.00  0.00    +0.000 NA
ATOM      3  N   UNL     1       8.296  37.248  14.465  0.00  0.00    +0.000 NA
ATOM      4  N   UNL     1       7.866  39.222  15.801  0.00  0.00    +0.000 NA
ATOM      5  C   UNL     1      10.079  38.415  15.642  0.00  0.00    +0.000 A 
ATOM      6  C   UNL     1       9.574  37.420  14.832  0.00  0.00    +0.000 A 
ATOM      7  C   UNL     1      11.458  38.150  15.714  0.00  0.00    +0.000 A 
ATOM      8  C   UNL     1       9.174  39.343  16.137  0.00  0.00    +0.000 A 
ATOM      9  C   UNL     1       7.505  38.199  14.998  0.00  0.00    +0.000 A 
ATOM     10  H   UNL     1      10.635  35.825  13.887  0.00  0.00    +0.000 HD
ENDROOT
TORSDOF 0
ENDMDL
MODEL 5
REMARK VINA RESULT:      -3.9     22.018     22.531
REMARK  Name = 67499_Pyrazolo.pdbqt.pdb
REMARK  0 active torsions:
REMARK  status: ('A' for Active; 'I' for Inactive)
REMARK                            x       y       z     vdW  Elec       q    Type
REMARK                         _______ _______ _______ _____ _____    ______ ____
ROOT
ATOM      1  N   UNL     1     -15.523  34.629  23.021  0.00  0.00    +0.000 N 
ATOM      2  N   UNL     1     -15.607  33.339  22.630  0.00  0.00    +0.000 NA
ATOM      3  N   UNL     1     -14.451  35.980  24.721  0.00  0.00    +0.000 NA
ATOM      4  N   UNL     1     -13.092  34.639  26.210  0.00  0.00    +0.000 NA
ATOM      5  C   UNL     1     -14.253  33.569  24.455  0.00  0.00    +0.000 A 
ATOM      6  C   UNL     1     -14.724  34.818  24.110  0.00  0.00    +0.000 A 
ATOM      7  C   UNL     1     -14.828  32.699  23.512  0.00  0.00    +0.000 A 
ATOM      8  C   UNL     1     -13.405  33.496  25.551  0.00  0.00    +0.000 A 
ATOM      9  C   UNL     1     -13.622  35.798  25.767  0.00  0.00    +0.000 A 
ATOM     10  H   UNL     1     -16.034  35.337  22.505  0.00  0.00    +0.000 HD
ENDROOT
TORSDOF 0
ENDMDL
MODEL 6
REMARK VINA RESULT:      -3.9     17.348     18.186
REMARK  Name = 67499_Pyrazolo.pdbqt.pdb
REMARK  0 active torsions:
REMARK  status: ('A' for Active; 'I' for Inactive)
REMARK                            x       y       z     vdW  Elec       q    Type
REMARK                         _______ _______ _______ _____ _____    ______ ____
ROOT
ATOM      1  N   UNL     1      -6.469  40.085  10.247  0.00  0.00    +0.000 N 
ATOM      2  N   UNL     1      -5.850  41.284  10.303  0.00  0.00    +0.000 NA
ATOM      3  N   UNL     1      -8.623  39.091  10.738  0.00  0.00    +0.000 NA
ATOM      4  N   UNL     1     -10.190  40.723  11.601  0.00  0.00    +0.000 NA
ATOM      5  C   UNL     1      -8.008  41.427  11.039  0.00  0.00    +0.000 A 
ATOM      6  C   UNL     1      -7.763  40.118  10.678  0.00  0.00    +0.000 A 
ATOM      7  C   UNL     1      -6.798  42.097  10.788  0.00  0.00    +0.000 A 
ATOM      8  C   UNL     1      -9.277  41.721  11.517  0.00  0.00    +0.000 A 
ATOM      9  C   UNL     1      -9.820  39.484  11.214  0.00  0.00    +0.000 A 
ATOM     10  H   UNL     1      -5.957  39.279   9.907  0.00  0.00    +0.000 HD
ENDROOT
TORSDOF 0
ENDMDL
MODEL 7
REMARK VINA RESULT:      -3.5     32.515     33.226
REMARK  Name = 67499_Pyrazolo.pdbqt.pdb
REMARK  0 active torsions:
REMARK  status: ('A' for Active; 'I' for Inactive)
REMARK                            x       y       z     vdW  Elec       q    Type
REMARK                         _______ _______ _______ _____ _____    ______ ____
ROOT
ATOM      1  N   UNL     1      11.074  39.974 -15.624  0.00  0.00    +0.000 N 
ATOM      2  N   UNL     1      10.300  40.914 -16.208  0.00  0.00    +0.000 NA
ATOM      3  N   UNL     1      13.068  39.806 -14.260  0.00  0.00    +0.000 NA
ATOM      4  N   UNL     1      14.002  41.985 -13.760  0.00  0.00    +0.000 NA
ATOM      5  C   UNL     1      12.048  41.859 -15.080  0.00  0.00    +0.000 A 
ATOM      6  C   UNL     1      12.134  40.490 -14.936  0.00  0.00    +0.000 A 
ATOM      7  C   UNL     1      10.903  42.062 -15.870  0.00  0.00    +0.000 A 
ATOM      8  C   UNL     1      13.029  42.620 -14.460  0.00  0.00    +0.000 A 
ATOM      9  C   UNL     1      13.969  40.637 -13.699  0.00  0.00    +0.000 A 
ATOM     10  H   UNL     1      10.830  38.997 -15.730  0.00  0.00    +0.000 HD
ENDROOT
TORSDOF 0
ENDMDL
MODEL 8
REMARK VINA RESULT:      -3.5     35.246     35.835
REMARK  Name = 67499_Pyrazolo.pdbqt.pdb
REMARK  0 active torsions:
REMARK  status: ('A' for Active; 'I' for Inactive)
REMARK                            x       y       z     vdW  Elec       q    Type
REMARK                         _______ _______ _______ _____ _____    ______ ____
ROOT
ATOM      1  N   UNL     1     -12.235  55.474  -0.687  0.00  0.00    +0.000 N 
ATOM      2  N   UNL     1     -11.854  56.754  -0.891  0.00  0.00    +0.000 NA
ATOM      3  N   UNL     1     -12.529  53.413  -1.924  0.00  0.00    +0.000 NA
ATOM      4  N   UNL     1     -11.982  53.685  -4.267  0.00  0.00    +0.000 NA
ATOM      5  C   UNL     1     -11.781  55.546  -2.828  0.00  0.00    +0.000 A 
ATOM      6  C   UNL     1     -12.208  54.710  -1.817  0.00  0.00    +0.000 A 
ATOM      7  C   UNL     1     -11.580  56.788  -2.202  0.00  0.00    +0.000 A 
ATOM      8  C   UNL     1     -11.670  54.993  -4.097  0.00  0.00    +0.000 A 
ATOM      9  C   UNL     1     -12.387  52.979  -3.191  0.00  0.00    +0.000 A 
ATOM     10  H   UNL     1     -12.501  55.180   0.245  0.00  0.00    +0.000 HD
ENDROOT
TORSDOF 0
ENDMDL
MODEL 9
REMARK VINA RESULT:      -3.4     12.869     14.227
REMARK  Name = 67499_Pyrazolo.pdbqt.pdb
REMARK  0 active torsions:
REMARK  status: ('A' for Active; 'I' for Inactive)
REMARK                            x       y       z     vdW  Elec       q    Type
REMARK                         _______ _______ _______ _____ _____    ______ ____
ROOT
ATOM      1  N   UNL     1      -4.395  40.940  16.018  0.00  0.00    +0.000 N 
ATOM      2  N   UNL     1      -4.855  41.489  14.873  0.00  0.00    +0.000 NA
ATOM      3  N   UNL     1      -2.724  39.356  16.770  0.00  0.00    +0.000 NA
ATOM      4  N   UNL     1      -1.454  38.444  14.921  0.00  0.00    +0.000 NA
ATOM      5  C   UNL     1      -3.154  40.018  14.467  0.00  0.00    +0.000 A 
ATOM      6  C   UNL     1      -3.376  40.053  15.828  0.00  0.00    +0.000 A 
ATOM      7  C   UNL     1      -4.090  40.919  13.931  0.00  0.00    +0.000 A 
ATOM      8  C   UNL     1      -2.150  39.175  14.015  0.00  0.00    +0.000 A 
ATOM      9  C   UNL     1      -1.774  38.572  16.226  0.00  0.00    +0.000 A 
ATOM     10  H   UNL     1      -4.816  41.210  16.900  0.00  0.00    +0.000 HD
ENDROOT
TORSDOF 0
ENDMDL
