MODEL 1
REMARK VINA RESULT:      -5.3      0.000      0.000
REMARK  Name = 71369791_5FluoroDione.pdbqt.pdb
REMARK  1 active torsions:
REMARK  status: ('A' for Active; 'I' for Inactive)
REMARK    1  A    between atoms: N_4  and  C_12
REMARK                            x       y       z     vdW  Elec       q    Type
REMARK                         _______ _______ _______ _____ _____    ______ ____
ROOT
ATOM      1  F   UNL     1      13.452  50.998  12.172  0.00  0.00    +0.000 F 
ATOM      2  O   UNL     1      11.032  46.370  13.717  0.00  0.00    +0.000 OA
ATOM      3  O   UNL     1      11.802  50.828  14.469  0.00  0.00    +0.000 OA
ATOM      4  N   UNL     1      12.200  47.543  12.030  0.00  0.00    +0.000 N 
ATOM      5  N   UNL     1      11.384  48.618  13.968  0.00  0.00    +0.000 N 
ATOM      6  C   UNL     1      12.652  48.769  11.702  0.00  0.00    +0.000 C 
ATOM      7  C   UNL     1      12.566  50.005  12.354  0.00  0.00    +0.000 C 
ATOM      8  C   UNL     1      11.504  47.403  13.252  0.00  0.00    +0.000 C 
ATOM      9  C   UNL     1      11.892  49.894  13.682  0.00  0.00    +0.000 C 
ATOM     10  H   UNL     1      10.926  48.531  14.864  0.00  0.00    +0.000 HD
ENDROOT
BRANCH   4  12
ATOM     11  O   UNL     1      13.385  45.507  11.439  0.00  0.00    +0.000 OA
ATOM     12  C   UNL     1      12.439  46.505  11.174  0.00  0.00    +0.000 C 
ATOM     13  C   UNL     1      11.836  46.222   9.920  0.00  0.00    +0.000 C 
ATOM     14  C   UNL     1      12.228  45.005   9.081  0.00  0.00    +0.000 C 
ATOM     15  C   UNL     1      13.141  44.854  10.296  0.00  0.00    +0.000 C 
ENDBRANCH   4  12
TORSDOF 1
ENDMDL
MODEL 2
REMARK VINA RESULT:      -5.0      4.226      5.581
REMARK  Name = 71369791_5FluoroDione.pdbqt.pdb
REMARK  1 active torsions:
REMARK  status: ('A' for Active; 'I' for Inactive)
REMARK    1  A    between atoms: N_4  and  C_12
REMARK                            x       y       z     vdW  Elec       q    Type
REMARK                         _______ _______ _______ _____ _____    ______ ____
ROOT
ATOM      1  F   UNL     1      12.765  47.497  10.510  0.00  0.00    +0.000 F 
ATOM      2  O   UNL     1      13.836  42.546   8.510  0.00  0.00    +0.000 OA
ATOM      3  O   UNL     1      10.828  45.950   9.139  0.00  0.00    +0.000 OA
ATOM      4  N   UNL     1      14.684  44.554   9.423  0.00  0.00    +0.000 N 
ATOM      5  N   UNL     1      12.423  44.327   8.777  0.00  0.00    +0.000 N 
ATOM      6  C   UNL     1      14.320  45.803   9.774  0.00  0.00    +0.000 C 
ATOM      7  C   UNL     1      13.095  46.477   9.700  0.00  0.00    +0.000 C 
ATOM      8  C   UNL     1      13.693  43.708   8.876  0.00  0.00    +0.000 C 
ATOM      9  C   UNL     1      12.001  45.601   9.186  0.00  0.00    +0.000 C 
ATOM     10  H   UNL     1      11.692  43.725   8.427  0.00  0.00    +0.000 HD
ENDROOT
BRANCH   4  12
ATOM     11  O   UNL     1      16.877  43.971   8.557  0.00  0.00    +0.000 OA
ATOM     12  C   UNL     1      15.982  44.172   9.615  0.00  0.00    +0.000 C 
ATOM     13  C   UNL     1      16.667  43.909  10.831  0.00  0.00    +0.000 C 
ATOM     14  C   UNL     1      18.136  43.483  10.865  0.00  0.00    +0.000 C 
ATOM     15  C   UNL     1      17.889  43.635   9.365  0.00  0.00    +0.000 C 
ENDBRANCH   4  12
TORSDOF 1
ENDMDL
MODEL 3
REMARK VINA RESULT:      -4.7      2.542      3.559
REMARK  Name = 71369791_5FluoroDione.pdbqt.pdb
REMARK  1 active torsions:
REMARK  status: ('A' for Active; 'I' for Inactive)
REMARK    1  A    between atoms: N_4  and  C_12
REMARK                            x       y       z     vdW  Elec       q    Type
REMARK                         _______ _______ _______ _____ _____    ______ ____
ROOT
ATOM      1  F   UNL     1      14.460  52.326  13.250  0.00  0.00    +0.000 F 
ATOM      2  O   UNL     1       9.263  51.087  12.195  0.00  0.00    +0.000 OA
ATOM      3  O   UNL     1      12.533  54.283  12.556  0.00  0.00    +0.000 OA
ATOM      4  N   UNL     1      11.472  50.311  12.519  0.00  0.00    +0.000 N 
ATOM      5  N   UNL     1      10.970  52.609  12.298  0.00  0.00    +0.000 N 
ATOM      6  C   UNL     1      12.743  50.738  12.652  0.00  0.00    +0.000 C 
ATOM      7  C   UNL     1      13.308  52.018  12.631  0.00  0.00    +0.000 C 
ATOM      8  C   UNL     1      10.466  51.286  12.325  0.00  0.00    +0.000 C 
ATOM      9  C   UNL     1      12.275  53.087  12.491  0.00  0.00    +0.000 C 
ATOM     10  H   UNL     1      10.262  53.323  12.202  0.00  0.00    +0.000 HD
ENDROOT
BRANCH   4  12
ATOM     11  O   UNL     1      11.505  48.198  13.715  0.00  0.00    +0.000 OA
ATOM     12  C   UNL     1      11.220  48.969  12.581  0.00  0.00    +0.000 C 
ATOM     13  C   UNL     1      10.661  48.117  11.594  0.00  0.00    +0.000 C 
ATOM     14  C   UNL     1      10.449  46.621  11.832  0.00  0.00    +0.000 C 
ATOM     15  C   UNL     1      11.058  47.065  13.160  0.00  0.00    +0.000 C 
ENDBRANCH   4  12
TORSDOF 1
ENDMDL
MODEL 4
REMARK VINA RESULT:      -4.7      2.978      5.974
REMARK  Name = 71369791_5FluoroDione.pdbqt.pdb
REMARK  1 active torsions:
REMARK  status: ('A' for Active; 'I' for Inactive)
REMARK    1  A    between atoms: N_4  and  C_12
REMARK                            x       y       z     vdW  Elec       q    Type
REMARK                         _______ _______ _______ _____ _____    ______ ____
ROOT
ATOM      1  F   UNL     1      12.099  47.161  12.958  0.00  0.00    +0.000 F 
ATOM      2  O   UNL     1       9.529  51.769  11.607  0.00  0.00    +0.000 OA
ATOM      3  O   UNL     1      10.178  47.288  10.879  0.00  0.00    +0.000 OA
ATOM      4  N   UNL     1      10.892  50.629  13.166  0.00  0.00    +0.000 N 
ATOM      5  N   UNL     1       9.836  49.513  11.371  0.00  0.00    +0.000 N 
ATOM      6  C   UNL     1      11.375  49.408  13.466  0.00  0.00    +0.000 C 
ATOM      7  C   UNL     1      11.202  48.157  12.862  0.00  0.00    +0.000 C 
ATOM      8  C   UNL     1      10.050  50.745  12.036  0.00  0.00    +0.000 C 
ATOM      9  C   UNL     1      10.369  48.240  11.625  0.00  0.00    +0.000 C 
ATOM     10  H   UNL     1       9.271  49.582  10.537  0.00  0.00    +0.000 HD
ENDROOT
BRANCH   4  12
ATOM     11  O   UNL     1      10.660  51.915  15.213  0.00  0.00    +0.000 OA
ATOM     12  C   UNL     1      11.240  51.685  13.959  0.00  0.00    +0.000 C 
ATOM     13  C   UNL     1      12.191  52.712  13.716  0.00  0.00    +0.000 C 
ATOM     14  C   UNL     1      12.457  53.833  14.723  0.00  0.00    +0.000 C 
ATOM     15  C   UNL     1      11.384  53.017  15.441  0.00  0.00    +0.000 C 
ENDBRANCH   4  12
TORSDOF 1
ENDMDL
MODEL 5
REMARK VINA RESULT:      -4.5     15.370     16.363
REMARK  Name = 71369791_5FluoroDione.pdbqt.pdb
REMARK  1 active torsions:
REMARK  status: ('A' for Active; 'I' for Inactive)
REMARK    1  A    between atoms: N_4  and  C_12
REMARK                            x       y       z     vdW  Elec       q    Type
REMARK                         _______ _______ _______ _____ _____    ______ ____
ROOT
ATOM      1  F   UNL     1       0.422  43.223  15.581  0.00  0.00    +0.000 F 
ATOM      2  O   UNL     1      -1.916  38.502  14.197  0.00  0.00    +0.000 OA
ATOM      3  O   UNL     1       1.768  40.737  15.768  0.00  0.00    +0.000 OA
ATOM      4  N   UNL     1      -2.192  40.803  14.665  0.00  0.00    +0.000 N 
ATOM      5  N   UNL     1      -0.154  39.677  15.067  0.00  0.00    +0.000 N 
ATOM      6  C   UNL     1      -1.535  41.880  15.137  0.00  0.00    +0.000 C 
ATOM      7  C   UNL     1      -0.230  42.048  15.613  0.00  0.00    +0.000 C 
ATOM      8  C   UNL     1      -1.488  39.578  14.604  0.00  0.00    +0.000 C 
ATOM      9  C   UNL     1       0.572  40.793  15.509  0.00  0.00    +0.000 C 
ATOM     10  H   UNL     1       0.378  38.822  14.993  0.00  0.00    +0.000 HD
ENDROOT
BRANCH   4  12
ATOM     11  O   UNL     1      -4.575  40.686  15.115  0.00  0.00    +0.000 OA
ATOM     12  C   UNL     1      -3.491  40.948  14.268  0.00  0.00    +0.000 C 
ATOM     13  C   UNL     1      -4.002  41.362  13.010  0.00  0.00    +0.000 C 
ATOM     14  C   UNL     1      -5.502  41.468  12.732  0.00  0.00    +0.000 C 
ATOM     15  C   UNL     1      -5.486  40.997  14.186  0.00  0.00    +0.000 C 
ENDBRANCH   4  12
TORSDOF 1
ENDMDL
MODEL 6
REMARK VINA RESULT:      -4.4     11.531     12.843
REMARK  Name = 71369791_5FluoroDione.pdbqt.pdb
REMARK  1 active torsions:
REMARK  status: ('A' for Active; 'I' for Inactive)
REMARK    1  A    between atoms: N_4  and  C_12
REMARK                            x       y       z     vdW  Elec       q    Type
REMARK                         _______ _______ _______ _____ _____    ______ ____
ROOT
ATOM      1  F   UNL     1       8.363  35.095  19.475  0.00  0.00    +0.000 F 
ATOM      2  O   UNL     1       9.066  37.078  14.451  0.00  0.00    +0.000 OA
ATOM      3  O   UNL     1       7.054  34.013  17.207  0.00  0.00    +0.000 OA
ATOM      4  N   UNL     1       9.378  37.377  16.775  0.00  0.00    +0.000 N 
ATOM      5  N   UNL     1       8.026  35.647  15.904  0.00  0.00    +0.000 N 
ATOM      6  C   UNL     1       9.036  36.860  17.971  0.00  0.00    +0.000 C 
ATOM      7  C   UNL     1       8.222  35.779  18.327  0.00  0.00    +0.000 C 
ATOM      8  C   UNL     1       8.858  36.756  15.617  0.00  0.00    +0.000 C 
ATOM      9  C   UNL     1       7.699  35.052  17.132  0.00  0.00    +0.000 C 
ATOM     10  H   UNL     1       7.677  35.163  15.088  0.00  0.00    +0.000 HD
ENDROOT
BRANCH   4  12
ATOM     11  O   UNL     1       9.753  39.768  16.967  0.00  0.00    +0.000 OA
ATOM     12  C   UNL     1      10.206  38.463  16.742  0.00  0.00    +0.000 C 
ATOM     13  C   UNL     1      11.603  38.516  16.491  0.00  0.00    +0.000 C 
ATOM     14  C   UNL     1      12.383  39.832  16.490  0.00  0.00    +0.000 C 
ATOM     15  C   UNL     1      10.966  40.309  16.803  0.00  0.00    +0.000 C 
ENDBRANCH   4  12
TORSDOF 1
ENDMDL
MODEL 7
REMARK VINA RESULT:      -4.4     28.428     29.720
REMARK  Name = 71369791_5FluoroDione.pdbqt.pdb
REMARK  1 active torsions:
REMARK  status: ('A' for Active; 'I' for Inactive)
REMARK    1  A    between atoms: N_4  and  C_12
REMARK                            x       y       z     vdW  Elec       q    Type
REMARK                         _______ _______ _______ _____ _____    ______ ____
ROOT
ATOM      1  F   UNL     1      -2.152  25.611  -5.876  0.00  0.00    +0.000 F 
ATOM      2  O   UNL     1       1.977  27.671  -2.983  0.00  0.00    +0.000 OA
ATOM      3  O   UNL     1      -2.050  28.328  -5.076  0.00  0.00    +0.000 OA
ATOM      4  N   UNL     1       0.882  25.743  -3.801  0.00  0.00    +0.000 N 
ATOM      5  N   UNL     1      -0.079  27.895  -3.964  0.00  0.00    +0.000 N 
ATOM      6  C   UNL     1      -0.244  25.340  -4.421  0.00  0.00    +0.000 C 
ATOM      7  C   UNL     1      -1.368  26.041  -4.873  0.00  0.00    +0.000 C 
ATOM      8  C   UNL     1       1.025  27.123  -3.527  0.00  0.00    +0.000 C 
ATOM      9  C   UNL     1      -1.234  27.513  -4.662  0.00  0.00    +0.000 C 
ATOM     10  H   UNL     1       0.023  28.889  -3.815  0.00  0.00    +0.000 HD
ENDROOT
BRANCH   4  12
ATOM     11  O   UNL     1       3.020  24.657  -4.182  0.00  0.00    +0.000 OA
ATOM     12  C   UNL     1       1.821  24.807  -3.473  0.00  0.00    +0.000 C 
ATOM     13  C   UNL     1       1.802  23.848  -2.426  0.00  0.00    +0.000 C 
ATOM     14  C   UNL     1       2.951  22.863  -2.200  0.00  0.00    +0.000 C 
ATOM     15  C   UNL     1       3.449  23.651  -3.410  0.00  0.00    +0.000 C 
ENDBRANCH   4  12
TORSDOF 1
ENDMDL
MODEL 8
REMARK VINA RESULT:      -4.3     28.668     29.161
REMARK  Name = 71369791_5FluoroDione.pdbqt.pdb
REMARK  1 active torsions:
REMARK  status: ('A' for Active; 'I' for Inactive)
REMARK    1  A    between atoms: N_4  and  C_12
REMARK                            x       y       z     vdW  Elec       q    Type
REMARK                         _______ _______ _______ _____ _____    ______ ____
ROOT
ATOM      1  F   UNL     1       1.316  20.386  11.052  0.00  0.00    +0.000 F 
ATOM      2  O   UNL     1       5.386  20.601   7.439  0.00  0.00    +0.000 OA
ATOM      3  O   UNL     1       3.990  19.726  11.719  0.00  0.00    +0.000 OA
ATOM      4  N   UNL     1       3.054  20.631   7.820  0.00  0.00    +0.000 N 
ATOM      5  N   UNL     1       4.595  20.089   9.526  0.00  0.00    +0.000 N 
ATOM      6  C   UNL     1       2.128  20.435   8.779  0.00  0.00    +0.000 C 
ATOM      7  C   UNL     1       2.236  20.069  10.125  0.00  0.00    +0.000 C 
ATOM      8  C   UNL     1       4.412  20.457   8.171  0.00  0.00    +0.000 C 
ATOM      9  C   UNL     1       3.658  19.935  10.559  0.00  0.00    +0.000 C 
ATOM     10  H   UNL     1       5.561  20.001   9.807  0.00  0.00    +0.000 HD
ENDROOT
BRANCH   4  12
ATOM     11  O   UNL     1       3.134  22.112   5.897  0.00  0.00    +0.000 OA
ATOM     12  C   UNL     1       2.637  20.988   6.569  0.00  0.00    +0.000 C 
ATOM     13  C   UNL     1       1.681  20.357   5.730  0.00  0.00    +0.000 C 
ATOM     14  C   UNL     1       1.328  20.898   4.343  0.00  0.00    +0.000 C 
ATOM     15  C   UNL     1       2.374  21.907   4.815  0.00  0.00    +0.000 C 
ENDBRANCH   4  12
TORSDOF 1
ENDMDL
MODEL 9
REMARK VINA RESULT:      -4.3     11.263     12.600
REMARK  Name = 71369791_5FluoroDione.pdbqt.pdb
REMARK  1 active torsions:
REMARK  status: ('A' for Active; 'I' for Inactive)
REMARK    1  A    between atoms: N_4  and  C_12
REMARK                            x       y       z     vdW  Elec       q    Type
REMARK                         _______ _______ _______ _____ _____    ______ ____
ROOT
ATOM      1  F   UNL     1      14.011  37.361  17.266  0.00  0.00    +0.000 F 
ATOM      2  O   UNL     1      10.139  34.427  14.804  0.00  0.00    +0.000 OA
ATOM      3  O   UNL     1      14.207  34.556  16.918  0.00  0.00    +0.000 OA
ATOM      4  N   UNL     1      10.765  36.491  15.772  0.00  0.00    +0.000 N 
ATOM      5  N   UNL     1      12.114  34.560  15.955  0.00  0.00    +0.000 N 
ATOM      6  C   UNL     1      11.743  37.079  16.489  0.00  0.00    +0.000 C 
ATOM      7  C   UNL     1      12.942  36.587  17.019  0.00  0.00    +0.000 C 
ATOM      8  C   UNL     1      10.915  35.122  15.452  0.00  0.00    +0.000 C 
ATOM      9  C   UNL     1      13.174  35.158  16.653  0.00  0.00    +0.000 C 
ATOM     10  H   UNL     1      12.259  33.593  15.702  0.00  0.00    +0.000 HD
ENDROOT
BRANCH   4  12
ATOM     11  O   UNL     1       9.150  37.190  14.099  0.00  0.00    +0.000 OA
ATOM     12  C   UNL     1       9.690  37.242  15.390  0.00  0.00    +0.000 C 
ATOM     13  C   UNL     1       8.934  38.174  16.149  0.00  0.00    +0.000 C 
ATOM     14  C   UNL     1       7.749  38.939  15.558  0.00  0.00    +0.000 C 
ATOM     15  C   UNL     1       8.200  38.093  14.368  0.00  0.00    +0.000 C 
ENDBRANCH   4  12
TORSDOF 1
ENDMDL
