MODEL 1
REMARK VINA RESULT:      -3.6      0.000      0.000
REMARK  Name = 7288_3Pentanone.pdbqt.pdb
REMARK  2 active torsions:
REMARK  status: ('A' for Active; 'I' for Inactive)
REMARK    1  A    between atoms: C_2  and  C_3
REMARK    2  A    between atoms: C_2  and  C_5
REMARK                            x       y       z     vdW  Elec       q    Type
REMARK                         _______ _______ _______ _____ _____    ______ ____
ROOT
ATOM      1  O   UNL     1       3.477  27.197  13.554  0.00  0.00    +0.000 OA
ATOM      2  C   UNL     1       3.938  27.982  14.373  0.00  0.00    +0.000 C 
ENDROOT
BRANCH   2   3
ATOM      3  C   UNL     1       3.080  28.894  15.091  0.00  0.00    +0.000 C 
ATOM      4  C   UNL     1       2.145  29.853  15.854  0.00  0.00    +0.000 C 
ENDBRANCH   2   3
BRANCH   2   5
ATOM      5  C   UNL     1       5.355  28.019  14.647  0.00  0.00    +0.000 C 
ATOM      6  C   UNL     1       6.866  28.080  14.951  0.00  0.00    +0.000 C 
ENDBRANCH   2   5
TORSDOF 2
ENDMDL
MODEL 2
REMARK VINA RESULT:      -3.6      0.032      3.284
REMARK  Name = 7288_3Pentanone.pdbqt.pdb
REMARK  2 active torsions:
REMARK  status: ('A' for Active; 'I' for Inactive)
REMARK    1  A    between atoms: C_2  and  C_3
REMARK    2  A    between atoms: C_2  and  C_5
REMARK                            x       y       z     vdW  Elec       q    Type
REMARK                         _______ _______ _______ _____ _____    ______ ____
ROOT
ATOM      1  O   UNL     1       3.474  27.231  13.530  0.00  0.00    +0.000 OA
ATOM      2  C   UNL     1       3.944  27.993  14.366  0.00  0.00    +0.000 C 
ENDROOT
BRANCH   2   3
ATOM      3  C   UNL     1       5.362  28.016  14.635  0.00  0.00    +0.000 C 
ATOM      4  C   UNL     1       6.871  28.046  14.945  0.00  0.00    +0.000 C 
ENDBRANCH   2   3
BRANCH   2   5
ATOM      5  C   UNL     1       3.093  28.892  15.110  0.00  0.00    +0.000 C 
ATOM      6  C   UNL     1       2.181  29.865  15.884  0.00  0.00    +0.000 C 
ENDBRANCH   2   5
TORSDOF 2
ENDMDL
MODEL 3
REMARK VINA RESULT:      -3.5     18.522     19.365
REMARK  Name = 7288_3Pentanone.pdbqt.pdb
REMARK  2 active torsions:
REMARK  status: ('A' for Active; 'I' for Inactive)
REMARK    1  A    between atoms: C_2  and  C_3
REMARK    2  A    between atoms: C_2  and  C_5
REMARK                            x       y       z     vdW  Elec       q    Type
REMARK                         _______ _______ _______ _____ _____    ______ ____
ROOT
ATOM      1  O   UNL     1     -12.499  28.457  19.853  0.00  0.00    +0.000 OA
ATOM      2  C   UNL     1     -13.672  28.655  20.145  0.00  0.00    +0.000 C 
ENDROOT
BRANCH   2   3
ATOM      3  C   UNL     1     -14.082  28.778  21.524  0.00  0.00    +0.000 C 
ATOM      4  C   UNL     1     -14.514  28.884  22.999  0.00  0.00    +0.000 C 
ENDBRANCH   2   3
BRANCH   2   5
ATOM      5  C   UNL     1     -14.681  28.774  19.119  0.00  0.00    +0.000 C 
ATOM      6  C   UNL     1     -15.765  28.877  18.027  0.00  0.00    +0.000 C 
ENDBRANCH   2   5
TORSDOF 2
ENDMDL
MODEL 4
REMARK VINA RESULT:      -3.4      5.461      7.562
REMARK  Name = 7288_3Pentanone.pdbqt.pdb
REMARK  2 active torsions:
REMARK  status: ('A' for Active; 'I' for Inactive)
REMARK    1  A    between atoms: C_2  and  C_3
REMARK    2  A    between atoms: C_2  and  C_5
REMARK                            x       y       z     vdW  Elec       q    Type
REMARK                         _______ _______ _______ _____ _____    ______ ____
ROOT
ATOM      1  O   UNL     1      -1.362  33.449  16.512  0.00  0.00    +0.000 OA
ATOM      2  C   UNL     1      -1.343  32.508  15.728  0.00  0.00    +0.000 C 
ENDROOT
BRANCH   2   3
ATOM      3  C   UNL     1      -0.433  31.403  15.918  0.00  0.00    +0.000 C 
ATOM      4  C   UNL     1       0.555  30.240  16.128  0.00  0.00    +0.000 C 
ENDBRANCH   2   3
BRANCH   2   5
ATOM      5  C   UNL     1      -2.231  32.474  14.590  0.00  0.00    +0.000 C 
ATOM      6  C   UNL     1      -3.179  32.414  13.375  0.00  0.00    +0.000 C 
ENDBRANCH   2   5
TORSDOF 2
ENDMDL
MODEL 5
REMARK VINA RESULT:      -3.3     19.368     20.002
REMARK  Name = 7288_3Pentanone.pdbqt.pdb
REMARK  2 active torsions:
REMARK  status: ('A' for Active; 'I' for Inactive)
REMARK    1  A    between atoms: C_2  and  C_3
REMARK    2  A    between atoms: C_2  and  C_5
REMARK                            x       y       z     vdW  Elec       q    Type
REMARK                         _______ _______ _______ _____ _____    ______ ____
ROOT
ATOM      1  O   UNL     1     -13.449  26.884  22.166  0.00  0.00    +0.000 OA
ATOM      2  C   UNL     1     -14.043  27.940  21.981  0.00  0.00    +0.000 C 
ENDROOT
BRANCH   2   3
ATOM      3  C   UNL     1     -14.318  28.410  20.645  0.00  0.00    +0.000 C 
ATOM      4  C   UNL     1     -14.603  28.892  19.209  0.00  0.00    +0.000 C 
ENDBRANCH   2   3
BRANCH   2   5
ATOM      5  C   UNL     1     -14.486  28.745  23.094  0.00  0.00    +0.000 C 
ATOM      6  C   UNL     1     -14.977  29.590  24.288  0.00  0.00    +0.000 C 
ENDBRANCH   2   5
TORSDOF 2
ENDMDL
MODEL 6
REMARK VINA RESULT:      -3.2      1.861      2.550
REMARK  Name = 7288_3Pentanone.pdbqt.pdb
REMARK  2 active torsions:
REMARK  status: ('A' for Active; 'I' for Inactive)
REMARK    1  A    between atoms: C_2  and  C_3
REMARK    2  A    between atoms: C_2  and  C_5
REMARK                            x       y       z     vdW  Elec       q    Type
REMARK                         _______ _______ _______ _____ _____    ______ ____
ROOT
ATOM      1  O   UNL     1       0.740  28.490  15.177  0.00  0.00    +0.000 OA
ATOM      2  C   UNL     1       1.822  29.053  15.287  0.00  0.00    +0.000 C 
ENDROOT
BRANCH   2   3
ATOM      3  C   UNL     1       1.922  30.350  15.912  0.00  0.00    +0.000 C 
ATOM      4  C   UNL     1       2.042  31.725  16.598  0.00  0.00    +0.000 C 
ENDBRANCH   2   3
BRANCH   2   5
ATOM      5  C   UNL     1       3.031  28.438  14.793  0.00  0.00    +0.000 C 
ATOM      6  C   UNL     1       4.335  27.798  14.275  0.00  0.00    +0.000 C 
ENDBRANCH   2   5
TORSDOF 2
ENDMDL
MODEL 7
REMARK VINA RESULT:      -3.2      2.474      3.120
REMARK  Name = 7288_3Pentanone.pdbqt.pdb
REMARK  2 active torsions:
REMARK  status: ('A' for Active; 'I' for Inactive)
REMARK    1  A    between atoms: C_2  and  C_3
REMARK    2  A    between atoms: C_2  and  C_5
REMARK                            x       y       z     vdW  Elec       q    Type
REMARK                         _______ _______ _______ _____ _____    ______ ____
ROOT
ATOM      1  O   UNL     1       6.633  29.668  15.931  0.00  0.00    +0.000 OA
ATOM      2  C   UNL     1       6.579  28.654  15.246  0.00  0.00    +0.000 C 
ENDROOT
BRANCH   2   3
ATOM      3  C   UNL     1       5.317  28.160  14.750  0.00  0.00    +0.000 C 
ATOM      4  C   UNL     1       3.980  27.613  14.213  0.00  0.00    +0.000 C 
ENDBRANCH   2   3
BRANCH   2   5
ATOM      5  C   UNL     1       7.778  27.920  14.915  0.00  0.00    +0.000 C 
ATOM      6  C   UNL     1       9.044  27.119  14.551  0.00  0.00    +0.000 C 
ENDBRANCH   2   5
TORSDOF 2
ENDMDL
MODEL 8
REMARK VINA RESULT:      -3.1     19.514     20.224
REMARK  Name = 7288_3Pentanone.pdbqt.pdb
REMARK  2 active torsions:
REMARK  status: ('A' for Active; 'I' for Inactive)
REMARK    1  A    between atoms: C_2  and  C_3
REMARK    2  A    between atoms: C_2  and  C_5
REMARK                            x       y       z     vdW  Elec       q    Type
REMARK                         _______ _______ _______ _____ _____    ______ ____
ROOT
ATOM      1  O   UNL     1      -2.597  47.703   7.765  0.00  0.00    +0.000 OA
ATOM      2  C   UNL     1      -2.688  46.482   7.759  0.00  0.00    +0.000 C 
ENDROOT
BRANCH   2   3
ATOM      3  C   UNL     1      -3.854  45.823   8.298  0.00  0.00    +0.000 C 
ATOM      4  C   UNL     1      -5.105  45.141   8.885  0.00  0.00    +0.000 C 
ENDBRANCH   2   3
BRANCH   2   5
ATOM      5  C   UNL     1      -1.632  45.662   7.214  0.00  0.00    +0.000 C 
ATOM      6  C   UNL     1      -0.518  44.768   6.634  0.00  0.00    +0.000 C 
ENDBRANCH   2   5
TORSDOF 2
ENDMDL
MODEL 9
REMARK VINA RESULT:      -3.1     19.267     19.800
REMARK  Name = 7288_3Pentanone.pdbqt.pdb
REMARK  2 active torsions:
REMARK  status: ('A' for Active; 'I' for Inactive)
REMARK    1  A    between atoms: C_2  and  C_3
REMARK    2  A    between atoms: C_2  and  C_5
REMARK                            x       y       z     vdW  Elec       q    Type
REMARK                         _______ _______ _______ _____ _____    ______ ____
ROOT
ATOM      1  O   UNL     1      11.787  46.671   8.234  0.00  0.00    +0.000 OA
ATOM      2  C   UNL     1      11.820  45.871   9.161  0.00  0.00    +0.000 C 
ENDROOT
BRANCH   2   3
ATOM      3  C   UNL     1      12.468  44.590   9.012  0.00  0.00    +0.000 C 
ATOM      4  C   UNL     1      13.154  43.222   8.829  0.00  0.00    +0.000 C 
ENDBRANCH   2   3
BRANCH   2   5
ATOM      5  C   UNL     1      11.212  46.185  10.433  0.00  0.00    +0.000 C 
ATOM      6  C   UNL     1      10.541  46.523  11.779  0.00  0.00    +0.000 C 
ENDBRANCH   2   5
TORSDOF 2
ENDMDL
