MODEL 1
REMARK VINA RESULT:      -7.5      0.000      0.000
REMARK  Name = 73299_Hederagenin.pdbqt.pdb
REMARK  5 active torsions:
REMARK  status: ('A' for Active; 'I' for Inactive)
REMARK    1  A    between atoms: C_9  and  C_35
REMARK    2  A    between atoms: C_14  and  C_32
REMARK    3  A    between atoms: C_17  and  O_29
REMARK    4  A    between atoms: C_32  and  O_33
REMARK    5  A    between atoms: C_35  and  O_36
REMARK                            x       y       z     vdW  Elec       q    Type
REMARK                         _______ _______ _______ _____ _____    ______ ____
ROOT
ATOM      1  C   UNL     1      -5.216  44.447  13.643  0.00  0.00    +0.000 C 
ATOM      2  C   UNL     1      -5.300  42.955  13.112  0.00  0.00    +0.000 C 
ATOM      3  C   UNL     1      -6.538  42.373  12.421  0.00  0.00    +0.000 C 
ATOM      4  C   UNL     1      -4.443  44.548  15.104  0.00  0.00    +0.000 C 
ATOM      5  C   UNL     1      -7.925  42.894  12.897  0.00  0.00    +0.000 C 
ATOM      6  C   UNL     1      -6.607  44.901  13.746  0.00  0.00    +0.000 C 
ATOM      7  C   UNL     1      -7.893  44.218  13.417  0.00  0.00    +0.000 C 
ATOM      8  C   UNL     1      -3.039  43.732  15.113  0.00  0.00    +0.000 C 
ATOM      9  C   UNL     1      -9.156  41.986  13.054  0.00  0.00    +0.000 C 
ATOM     10  C   UNL     1      -1.786  44.215  15.734  0.00  0.00    +0.000 C 
ATOM     11  C   UNL     1      -4.126  42.200  13.428  0.00  0.00    +0.000 C 
ATOM     12  C   UNL     1      -6.585  40.928  12.626  0.00  0.00    +0.000 C 
ATOM     13  C   UNL     1      -4.047  45.922  15.466  0.00  0.00    +0.000 C 
ATOM     14  C   UNL     1      -1.398  45.815  15.854  0.00  0.00    +0.000 C 
ATOM     15  C   UNL     1      -4.456  45.282  12.533  0.00  0.00    +0.000 C 
ATOM     16  C   UNL     1      -2.696  46.490  15.832  0.00  0.00    +0.000 C 
ATOM     17  C   UNL     1      -8.983  40.465  12.794  0.00  0.00    +0.000 C 
ATOM     18  C   UNL     1      -3.062  42.650  14.389  0.00  0.00    +0.000 C 
ATOM     19  C   UNL     1      -6.422  42.688  10.908  0.00  0.00    +0.000 C 
ATOM     20  C   UNL     1      -7.682  39.932  12.797  0.00  0.00    +0.000 C 
ATOM     21  C   UNL     1      -5.300  43.912  16.283  0.00  0.00    +0.000 C 
ATOM     22  C   UNL     1      -1.133  43.356  16.722  0.00  0.00    +0.000 C 
ATOM     23  C   UNL     1      -0.641  45.908  17.131  0.00  0.00    +0.000 C 
ATOM     24  C   UNL     1      -0.292  43.337  17.978  0.00  0.00    +0.000 C 
ATOM     25  C   UNL     1     -10.288  42.507  12.109  0.00  0.00    +0.000 C 
ATOM     26  C   UNL     1      -0.111  44.819  18.099  0.00  0.00    +0.000 C 
ATOM     27  C   UNL     1      -1.080  42.757  19.166  0.00  0.00    +0.000 C 
ATOM     28  C   UNL     1       1.046  42.611  17.750  0.00  0.00    +0.000 C 
ENDROOT
BRANCH  17  29
ATOM     29  O   UNL     1     -10.017  39.705  12.273  0.00  0.00    +0.000 OA
ATOM     30  H   UNL     1      -9.675  39.040  11.639  0.00  0.00    +0.000 HD
ENDBRANCH  17  29
BRANCH  14  32
ATOM     31  O   UNL     1       0.528  46.822  14.695  0.00  0.00    +0.000 OA
ATOM     32  C   UNL     1      -0.504  46.165  14.658  0.00  0.00    +0.000 C 
BRANCH  32  33
ATOM     33  O   UNL     1      -0.979  45.743  13.465  0.00  0.00    +0.000 OA
ATOM     34  H   UNL     1      -1.880  45.403  13.654  0.00  0.00    +0.000 HD
ENDBRANCH  32  33
ENDBRANCH  14  32
BRANCH   9  35
ATOM     35  C   UNL     1      -9.615  42.088  14.476  0.00  0.00    +0.000 C 
BRANCH  35  36
ATOM     36  O   UNL     1     -10.031  42.191  15.741  0.00  0.00    +0.000 OA
ATOM     37  H   UNL     1     -10.218  41.314  16.122  0.00  0.00    +0.000 HD
ENDBRANCH  35  36
ENDBRANCH   9  35
TORSDOF 5
ENDMDL
MODEL 2
REMARK VINA RESULT:      -7.5     14.472     19.142
REMARK  Name = 73299_Hederagenin.pdbqt.pdb
REMARK  5 active torsions:
REMARK  status: ('A' for Active; 'I' for Inactive)
REMARK    1  A    between atoms: C_9  and  C_35
REMARK    2  A    between atoms: C_14  and  C_32
REMARK    3  A    between atoms: C_17  and  O_29
REMARK    4  A    between atoms: C_32  and  O_33
REMARK    5  A    between atoms: C_35  and  O_36
REMARK                            x       y       z     vdW  Elec       q    Type
REMARK                         _______ _______ _______ _____ _____    ______ ____
ROOT
ATOM      1  C   UNL     1      11.062  32.350  17.298  0.00  0.00    +0.000 C 
ATOM      2  C   UNL     1       9.810  31.419  17.014  0.00  0.00    +0.000 C 
ATOM      3  C   UNL     1       9.910  29.901  16.833  0.00  0.00    +0.000 C 
ATOM      4  C   UNL     1      10.982  33.777  16.462  0.00  0.00    +0.000 C 
ATOM      5  C   UNL     1      11.202  29.352  16.160  0.00  0.00    +0.000 C 
ATOM      6  C   UNL     1      12.231  31.562  16.892  0.00  0.00    +0.000 C 
ATOM      7  C   UNL     1      12.346  30.174  16.357  0.00  0.00    +0.000 C 
ATOM      8  C   UNL     1       9.535  34.500  16.617  0.00  0.00    +0.000 C 
ATOM      9  C   UNL     1      11.196  28.190  15.152  0.00  0.00    +0.000 C 
ATOM     10  C   UNL     1       9.334  35.952  16.814  0.00  0.00    +0.000 C 
ATOM     11  C   UNL     1       8.601  32.169  16.862  0.00  0.00    +0.000 C 
ATOM     12  C   UNL     1       8.814  29.429  15.993  0.00  0.00    +0.000 C 
ATOM     13  C   UNL     1      11.931  34.797  16.947  0.00  0.00    +0.000 C 
ATOM     14  C   UNL     1      10.424  36.915  17.594  0.00  0.00    +0.000 C 
ATOM     15  C   UNL     1      11.095  32.601  18.860  0.00  0.00    +0.000 C 
ATOM     16  C   UNL     1      11.695  36.210  17.426  0.00  0.00    +0.000 C 
ATOM     17  C   UNL     1       9.827  27.589  14.734  0.00  0.00    +0.000 C 
ATOM     18  C   UNL     1       8.543  33.661  16.698  0.00  0.00    +0.000 C 
ATOM     19  C   UNL     1       9.813  29.254  18.239  0.00  0.00    +0.000 C 
ATOM     20  C   UNL     1       8.665  28.340  14.984  0.00  0.00    +0.000 C 
ATOM     21  C   UNL     1      11.177  33.569  14.897  0.00  0.00    +0.000 C 
ATOM     22  C   UNL     1       8.461  36.658  15.876  0.00  0.00    +0.000 C 
ATOM     23  C   UNL     1      10.312  38.224  16.897  0.00  0.00    +0.000 C 
ATOM     24  C   UNL     1       8.208  37.973  15.177  0.00  0.00    +0.000 C 
ATOM     25  C   UNL     1      12.076  27.028  15.719  0.00  0.00    +0.000 C 
ATOM     26  C   UNL     1       9.320  38.742  15.823  0.00  0.00    +0.000 C 
ATOM     27  C   UNL     1       8.410  37.843  13.656  0.00  0.00    +0.000 C 
ATOM     28  C   UNL     1       6.827  38.547  15.538  0.00  0.00    +0.000 C 
ENDROOT
BRANCH  17  29
ATOM     29  O   UNL     1       9.701  26.248  14.414  0.00  0.00    +0.000 OA
ATOM     30  H   UNL     1      10.091  26.061  13.534  0.00  0.00    +0.000 HD
ENDBRANCH  17  29
BRANCH  14  32
ATOM     31  O   UNL     1      10.683  37.340  20.006  0.00  0.00    +0.000 OA
ATOM     32  C   UNL     1       9.976  37.031  19.056  0.00  0.00    +0.000 C 
BRANCH  32  33
ATOM     33  O   UNL     1       8.688  36.685  19.273  0.00  0.00    +0.000 OA
ATOM     34  H   UNL     1       8.381  36.297  18.426  0.00  0.00    +0.000 HD
ENDBRANCH  32  33
ENDBRANCH  14  32
BRANCH   9  35
ATOM     35  C   UNL     1      11.804  28.693  13.879  0.00  0.00    +0.000 C 
BRANCH  35  36
ATOM     36  O   UNL     1      12.352  29.154  12.751  0.00  0.00    +0.000 OA
ATOM     37  H   UNL     1      13.150  29.681  12.939  0.00  0.00    +0.000 HD
ENDBRANCH  35  36
ENDBRANCH   9  35
TORSDOF 5
ENDMDL
MODEL 3
REMARK VINA RESULT:      -7.1      4.112      8.107
REMARK  Name = 73299_Hederagenin.pdbqt.pdb
REMARK  5 active torsions:
REMARK  status: ('A' for Active; 'I' for Inactive)
REMARK    1  A    between atoms: C_9  and  C_35
REMARK    2  A    between atoms: C_14  and  C_32
REMARK    3  A    between atoms: C_17  and  O_29
REMARK    4  A    between atoms: C_32  and  O_33
REMARK    5  A    between atoms: C_35  and  O_36
REMARK                            x       y       z     vdW  Elec       q    Type
REMARK                         _______ _______ _______ _____ _____    ______ ____
ROOT
ATOM      1  C   UNL     1      -7.700  42.298  15.797  0.00  0.00    +0.000 C 
ATOM      2  C   UNL     1      -6.502  43.337  15.808  0.00  0.00    +0.000 C 
ATOM      3  C   UNL     1      -5.238  43.176  14.956  0.00  0.00    +0.000 C 
ATOM      4  C   UNL     1      -8.314  42.036  17.313  0.00  0.00    +0.000 C 
ATOM      5  C   UNL     1      -4.741  41.725  14.694  0.00  0.00    +0.000 C 
ATOM      6  C   UNL     1      -7.140  41.065  15.232  0.00  0.00    +0.000 C 
ATOM      7  C   UNL     1      -5.778  40.751  14.711  0.00  0.00    +0.000 C 
ATOM      8  C   UNL     1      -8.610  43.425  18.103  0.00  0.00    +0.000 C 
ATOM      9  C   UNL     1      -3.253  41.333  14.691  0.00  0.00    +0.000 C 
ATOM     10  C   UNL     1      -9.807  43.685  18.932  0.00  0.00    +0.000 C 
ATOM     11  C   UNL     1      -6.702  44.385  16.760  0.00  0.00    +0.000 C 
ATOM     12  C   UNL     1      -4.117  43.850  15.603  0.00  0.00    +0.000 C 
ATOM     13  C   UNL     1      -9.622  41.356  17.308  0.00  0.00    +0.000 C 
ATOM     14  C   UNL     1     -11.276  42.992  18.638  0.00  0.00    +0.000 C 
ATOM     15  C   UNL     1      -8.802  42.886  14.825  0.00  0.00    +0.000 C 
ATOM     16  C   UNL     1     -10.942  41.760  17.923  0.00  0.00    +0.000 C 
ATOM     17  C   UNL     1      -2.207  42.425  15.040  0.00  0.00    +0.000 C 
ATOM     18  C   UNL     1      -7.758  44.370  17.829  0.00  0.00    +0.000 C 
ATOM     19  C   UNL     1      -5.518  43.823  13.575  0.00  0.00    +0.000 C 
ATOM     20  C   UNL     1      -2.650  43.590  15.691  0.00  0.00    +0.000 C 
ATOM     21  C   UNL     1      -7.301  41.238  18.243  0.00  0.00    +0.000 C 
ATOM     22  C   UNL     1      -9.604  44.113  20.316  0.00  0.00    +0.000 C 
ATOM     23  C   UNL     1     -11.869  42.815  19.990  0.00  0.00    +0.000 C 
ATOM     24  C   UNL     1     -10.166  44.065  21.718  0.00  0.00    +0.000 C 
ATOM     25  C   UNL     1      -2.890  40.752  13.285  0.00  0.00    +0.000 C 
ATOM     26  C   UNL     1     -11.412  43.299  21.391  0.00  0.00    +0.000 C 
ATOM     27  C   UNL     1      -9.240  43.277  22.663  0.00  0.00    +0.000 C 
ATOM     28  C   UNL     1     -10.482  45.476  22.248  0.00  0.00    +0.000 C 
ENDROOT
BRANCH  17  29
ATOM     29  O   UNL     1      -0.945  42.416  14.469  0.00  0.00    +0.000 OA
ATOM     30  H   UNL     1      -0.565  41.513  14.477  0.00  0.00    +0.000 HD
ENDBRANCH  17  29
BRANCH  14  32
ATOM     31  O   UNL     1     -11.820  44.382  16.679  0.00  0.00    +0.000 OA
ATOM     32  C   UNL     1     -12.096  43.982  17.803  0.00  0.00    +0.000 C 
BRANCH  32  33
ATOM     33  O   UNL     1     -13.179  44.483  18.437  0.00  0.00    +0.000 OA
ATOM     34  H   UNL     1     -12.886  44.638  19.360  0.00  0.00    +0.000 HD
ENDBRANCH  32  33
ENDBRANCH  14  32
BRANCH   9  35
ATOM     35  C   UNL     1      -3.065  40.269  15.728  0.00  0.00    +0.000 C 
BRANCH  35  36
ATOM     36  O   UNL     1      -2.890  39.310  16.642  0.00  0.00    +0.000 OA
ATOM     37  H   UNL     1      -3.469  39.452  17.414  0.00  0.00    +0.000 HD
ENDBRANCH  35  36
ENDBRANCH   9  35
TORSDOF 5
ENDMDL
MODEL 4
REMARK VINA RESULT:      -6.9      2.131      3.341
REMARK  Name = 73299_Hederagenin.pdbqt.pdb
REMARK  5 active torsions:
REMARK  status: ('A' for Active; 'I' for Inactive)
REMARK    1  A    between atoms: C_9  and  C_35
REMARK    2  A    between atoms: C_14  and  C_32
REMARK    3  A    between atoms: C_17  and  O_29
REMARK    4  A    between atoms: C_32  and  O_33
REMARK    5  A    between atoms: C_35  and  O_36
REMARK                            x       y       z     vdW  Elec       q    Type
REMARK                         _______ _______ _______ _____ _____    ______ ____
ROOT
ATOM      1  C   UNL     1      -5.034  43.394  16.122  0.00  0.00    +0.000 C 
ATOM      2  C   UNL     1      -4.925  43.835  14.603  0.00  0.00    +0.000 C 
ATOM      3  C   UNL     1      -6.102  43.787  13.624  0.00  0.00    +0.000 C 
ATOM      4  C   UNL     1      -3.700  42.552  16.627  0.00  0.00    +0.000 C 
ATOM      5  C   UNL     1      -7.140  42.644  13.819  0.00  0.00    +0.000 C 
ATOM      6  C   UNL     1      -6.243  42.567  16.201  0.00  0.00    +0.000 C 
ATOM      7  C   UNL     1      -7.247  42.189  15.163  0.00  0.00    +0.000 C 
ATOM      8  C   UNL     1      -2.315  43.298  16.222  0.00  0.00    +0.000 C 
ATOM      9  C   UNL     1      -7.786  41.885  12.647  0.00  0.00    +0.000 C 
ATOM     10  C   UNL     1      -1.131  43.415  17.102  0.00  0.00    +0.000 C 
ATOM     11  C   UNL     1      -3.589  44.197  14.239  0.00  0.00    +0.000 C 
ATOM     12  C   UNL     1      -5.606  43.620  12.261  0.00  0.00    +0.000 C 
ATOM     13  C   UNL     1      -3.606  42.421  18.093  0.00  0.00    +0.000 C 
ATOM     14  C   UNL     1      -1.234  43.480  18.747  0.00  0.00    +0.000 C 
ATOM     15  C   UNL     1      -5.230  44.718  16.967  0.00  0.00    +0.000 C 
ATOM     16  C   UNL     1      -2.497  42.804  19.044  0.00  0.00    +0.000 C 
ATOM     17  C   UNL     1      -7.323  42.231  11.206  0.00  0.00    +0.000 C 
ATOM     18  C   UNL     1      -2.376  43.926  15.084  0.00  0.00    +0.000 C 
ATOM     19  C   UNL     1      -6.868  45.130  13.746  0.00  0.00    +0.000 C 
ATOM     20  C   UNL     1      -6.110  42.922  11.043  0.00  0.00    +0.000 C 
ATOM     21  C   UNL     1      -3.608  41.113  15.956  0.00  0.00    +0.000 C 
ATOM     22  C   UNL     1       0.154  42.934  16.592  0.00  0.00    +0.000 C 
ATOM     23  C   UNL     1      -0.004  42.787  19.214  0.00  0.00    +0.000 C 
ATOM     24  C   UNL     1       1.475  42.306  16.971  0.00  0.00    +0.000 C 
ATOM     25  C   UNL     1      -9.336  42.086  12.713  0.00  0.00    +0.000 C 
ATOM     26  C   UNL     1       1.241  42.264  18.451  0.00  0.00    +0.000 C 
ATOM     27  C   UNL     1       1.611  40.893  16.373  0.00  0.00    +0.000 C 
ATOM     28  C   UNL     1       2.659  43.216  16.602  0.00  0.00    +0.000 C 
ENDROOT
BRANCH  17  29
ATOM     29  O   UNL     1      -8.197  42.150  10.135  0.00  0.00    +0.000 OA
ATOM     30  H   UNL     1      -8.028  42.871   9.493  0.00  0.00    +0.000 HD
ENDBRANCH  17  29
BRANCH  14  32
ATOM     31  O   UNL     1      -2.195  45.636  19.453  0.00  0.00    +0.000 OA
ATOM     32  C   UNL     1      -1.220  44.959  19.153  0.00  0.00    +0.000 C 
BRANCH  32  33
ATOM     33  O   UNL     1      -0.002  45.542  19.093  0.00  0.00    +0.000 OA
ATOM     34  H   UNL     1      -0.148  46.392  18.627  0.00  0.00    +0.000 HD
ENDBRANCH  32  33
ENDBRANCH  14  32
BRANCH   9  35
ATOM     35  C   UNL     1      -7.469  40.432  12.820  0.00  0.00    +0.000 C 
BRANCH  35  36
ATOM     36  O   UNL     1      -7.201  39.133  12.976  0.00  0.00    +0.000 OA
ATOM     37  H   UNL     1      -7.573  38.607  12.243  0.00  0.00    +0.000 HD
ENDBRANCH  35  36
ENDBRANCH   9  35
TORSDOF 5
ENDMDL
MODEL 5
REMARK VINA RESULT:      -6.9      3.873     10.384
REMARK  Name = 73299_Hederagenin.pdbqt.pdb
REMARK  5 active torsions:
REMARK  status: ('A' for Active; 'I' for Inactive)
REMARK    1  A    between atoms: C_9  and  C_35
REMARK    2  A    between atoms: C_14  and  C_32
REMARK    3  A    between atoms: C_17  and  O_29
REMARK    4  A    between atoms: C_32  and  O_33
REMARK    5  A    between atoms: C_35  and  O_36
REMARK                            x       y       z     vdW  Elec       q    Type
REMARK                         _______ _______ _______ _____ _____    ______ ____
ROOT
ATOM      1  C   UNL     1      -9.229  42.351  12.465  0.00  0.00    +0.000 C 
ATOM      2  C   UNL     1      -7.933  42.223  11.560  0.00  0.00    +0.000 C 
ATOM      3  C   UNL     1      -6.615  42.942  11.867  0.00  0.00    +0.000 C 
ATOM      4  C   UNL     1     -10.614  42.458  11.563  0.00  0.00    +0.000 C 
ATOM      5  C   UNL     1      -6.713  44.342  12.540  0.00  0.00    +0.000 C 
ATOM      6  C   UNL     1      -9.025  43.563  13.268  0.00  0.00    +0.000 C 
ATOM      7  C   UNL     1      -7.880  44.517  13.335  0.00  0.00    +0.000 C 
ATOM      8  C   UNL     1     -10.686  41.313  10.412  0.00  0.00    +0.000 C 
ATOM      9  C   UNL     1      -5.793  45.519  12.170  0.00  0.00    +0.000 C 
ATOM     10  C   UNL     1     -11.902  40.550  10.056  0.00  0.00    +0.000 C 
ATOM     11  C   UNL     1      -8.166  41.433  10.390  0.00  0.00    +0.000 C 
ATOM     12  C   UNL     1      -5.875  43.167  10.629  0.00  0.00    +0.000 C 
ATOM     13  C   UNL     1     -11.845  42.238  12.345  0.00  0.00    +0.000 C 
ATOM     14  C   UNL     1     -13.095  40.199  11.140  0.00  0.00    +0.000 C 
ATOM     15  C   UNL     1      -9.254  41.078  13.406  0.00  0.00    +0.000 C 
ATOM     16  C   UNL     1     -12.973  41.253  12.147  0.00  0.00    +0.000 C 
ATOM     17  C   UNL     1      -4.771  45.317  11.021  0.00  0.00    +0.000 C 
ATOM     18  C   UNL     1      -9.524  41.010   9.908  0.00  0.00    +0.000 C 
ATOM     19  C   UNL     1      -5.794  42.031  12.815  0.00  0.00    +0.000 C 
ATOM     20  C   UNL     1      -4.966  44.242  10.135  0.00  0.00    +0.000 C 
ATOM     21  C   UNL     1     -10.718  43.839  10.782  0.00  0.00    +0.000 C 
ATOM     22  C   UNL     1     -12.334  40.561   8.658  0.00  0.00    +0.000 C 
ATOM     23  C   UNL     1     -14.340  40.222  10.326  0.00  0.00    +0.000 C 
ATOM     24  C   UNL     1     -13.531  40.508   7.736  0.00  0.00    +0.000 C 
ATOM     25  C   UNL     1      -5.000  45.955  13.446  0.00  0.00    +0.000 C 
ATOM     26  C   UNL     1     -14.574  40.339   8.798  0.00  0.00    +0.000 C 
ATOM     27  C   UNL     1     -13.702  41.833   6.970  0.00  0.00    +0.000 C 
ATOM     28  C   UNL     1     -13.464  39.292   6.795  0.00  0.00    +0.000 C 
ENDROOT
BRANCH  17  29
ATOM     29  O   UNL     1      -3.545  45.961  11.031  0.00  0.00    +0.000 OA
ATOM     30  H   UNL     1      -3.572  46.754  11.606  0.00  0.00    +0.000 HD
ENDBRANCH  17  29
BRANCH  14  32
ATOM     31  O   UNL     1     -13.305  38.306  12.702  0.00  0.00    +0.000 OA
ATOM     32  C   UNL     1     -12.823  38.792  11.688  0.00  0.00    +0.000 C 
BRANCH  32  33
ATOM     33  O   UNL     1     -11.907  38.089  10.986  0.00  0.00    +0.000 OA
ATOM     34  H   UNL     1     -11.346  37.653  11.663  0.00  0.00    +0.000 HD
ENDBRANCH  32  33
ENDBRANCH  14  32
BRANCH   9  35
ATOM     35  C   UNL     1      -6.665  46.650  11.721  0.00  0.00    +0.000 C 
BRANCH  35  36
ATOM     36  O   UNL     1      -7.438  47.657  11.306  0.00  0.00    +0.000 OA
ATOM     37  H   UNL     1      -6.963  48.227  10.674  0.00  0.00    +0.000 HD
ENDBRANCH  35  36
ENDBRANCH   9  35
TORSDOF 5
ENDMDL
MODEL 6
REMARK VINA RESULT:      -6.8     25.178     28.408
REMARK  Name = 73299_Hederagenin.pdbqt.pdb
REMARK  5 active torsions:
REMARK  status: ('A' for Active; 'I' for Inactive)
REMARK    1  A    between atoms: C_9  and  C_35
REMARK    2  A    between atoms: C_14  and  C_32
REMARK    3  A    between atoms: C_17  and  O_29
REMARK    4  A    between atoms: C_32  and  O_33
REMARK    5  A    between atoms: C_35  and  O_36
REMARK                            x       y       z     vdW  Elec       q    Type
REMARK                         _______ _______ _______ _____ _____    ______ ____
ROOT
ATOM      1  C   UNL     1       2.158  24.511  -2.468  0.00  0.00    +0.000 C 
ATOM      2  C   UNL     1       1.504  23.263  -1.742  0.00  0.00    +0.000 C 
ATOM      3  C   UNL     1       2.226  22.433  -0.675  0.00  0.00    +0.000 C 
ATOM      4  C   UNL     1       1.793  24.558  -4.083  0.00  0.00    +0.000 C 
ATOM      5  C   UNL     1       3.766  22.268  -0.828  0.00  0.00    +0.000 C 
ATOM      6  C   UNL     1       3.604  24.371  -2.256  0.00  0.00    +0.000 C 
ATOM      7  C   UNL     1       4.394  23.349  -1.508  0.00  0.00    +0.000 C 
ATOM      8  C   UNL     1       0.205  24.353  -4.358  0.00  0.00    +0.000 C 
ATOM      9  C   UNL     1       4.505  20.953  -0.529  0.00  0.00    +0.000 C 
ATOM     10  C   UNL     1      -0.585  25.116  -5.349  0.00  0.00    +0.000 C 
ATOM     11  C   UNL     1       0.205  22.956  -2.257  0.00  0.00    +0.000 C 
ATOM     12  C   UNL     1       1.698  21.072  -0.666  0.00  0.00    +0.000 C 
ATOM     13  C   UNL     1       2.088  25.856  -4.716  0.00  0.00    +0.000 C 
ATOM     14  C   UNL     1      -0.232  26.670  -5.779  0.00  0.00    +0.000 C 
ATOM     15  C   UNL     1       1.626  25.802  -1.722  0.00  0.00    +0.000 C 
ATOM     16  C   UNL     1       1.199  26.792  -5.501  0.00  0.00    +0.000 C 
ATOM     17  C   UNL     1       3.662  19.714  -0.126  0.00  0.00    +0.000 C 
ATOM     18  C   UNL     1      -0.367  23.540  -3.518  0.00  0.00    +0.000 C 
ATOM     19  C   UNL     1       1.969  23.108   0.697  0.00  0.00    +0.000 C 
ATOM     20  C   UNL     1       2.284  19.725  -0.405  0.00  0.00    +0.000 C 
ATOM     21  C   UNL     1       2.508  23.393  -4.895  0.00  0.00    +0.000 C 
ATOM     22  C   UNL     1      -1.339  24.364  -6.353  0.00  0.00    +0.000 C 
ATOM     23  C   UNL     1      -0.622  26.746  -7.212  0.00  0.00    +0.000 C 
ATOM     24  C   UNL     1      -1.855  24.376  -7.774  0.00  0.00    +0.000 C 
ATOM     25  C   UNL     1       5.549  21.212   0.606  0.00  0.00    +0.000 C 
ATOM     26  C   UNL     1      -1.368  25.746  -8.134  0.00  0.00    +0.000 C 
ATOM     27  C   UNL     1      -1.175  23.285  -8.621  0.00  0.00    +0.000 C 
ATOM     28  C   UNL     1      -3.390  24.281  -7.817  0.00  0.00    +0.000 C 
ENDROOT
BRANCH  17  29
ATOM     29  O   UNL     1       4.160  18.762   0.748  0.00  0.00    +0.000 OA
ATOM     30  H   UNL     1       3.779  17.880   0.557  0.00  0.00    +0.000 HD
ENDBRANCH  17  29
BRANCH  14  32
ATOM     31  O   UNL     1      -2.327  27.641  -4.921  0.00  0.00    +0.000 OA
ATOM     32  C   UNL     1      -1.104  27.596  -4.922  0.00  0.00    +0.000 C 
BRANCH  32  33
ATOM     33  O   UNL     1      -0.409  28.473  -4.164  0.00  0.00    +0.000 OA
ATOM     34  H   UNL     1       0.254  28.866  -4.771  0.00  0.00    +0.000 HD
ENDBRANCH  32  33
ENDBRANCH  14  32
BRANCH   9  35
ATOM     35  C   UNL     1       5.224  20.545  -1.778  0.00  0.00    +0.000 C 
BRANCH  35  36
ATOM     36  O   UNL     1       5.873  20.194  -2.891  0.00  0.00    +0.000 OA
ATOM     37  H   UNL     1       6.821  20.052  -2.715  0.00  0.00    +0.000 HD
ENDBRANCH  35  36
ENDBRANCH   9  35
TORSDOF 5
ENDMDL
MODEL 7
REMARK VINA RESULT:      -6.7     26.149     28.398
REMARK  Name = 73299_Hederagenin.pdbqt.pdb
REMARK  5 active torsions:
REMARK  status: ('A' for Active; 'I' for Inactive)
REMARK    1  A    between atoms: C_9  and  C_35
REMARK    2  A    between atoms: C_14  and  C_32
REMARK    3  A    between atoms: C_17  and  O_29
REMARK    4  A    between atoms: C_32  and  O_33
REMARK    5  A    between atoms: C_35  and  O_36
REMARK                            x       y       z     vdW  Elec       q    Type
REMARK                         _______ _______ _______ _____ _____    ______ ____
ROOT
ATOM      1  C   UNL     1       6.473  17.078  10.036  0.00  0.00    +0.000 C 
ATOM      2  C   UNL     1       5.472  18.036  10.808  0.00  0.00    +0.000 C 
ATOM      3  C   UNL     1       3.982  18.150  10.469  0.00  0.00    +0.000 C 
ATOM      4  C   UNL     1       7.945  17.791   9.776  0.00  0.00    +0.000 C 
ATOM      5  C   UNL     1       3.581  17.981   8.975  0.00  0.00    +0.000 C 
ATOM      6  C   UNL     1       5.806  16.761   8.768  0.00  0.00    +0.000 C 
ATOM      7  C   UNL     1       4.471  17.157   8.231  0.00  0.00    +0.000 C 
ATOM      8  C   UNL     1       8.544  18.473  11.123  0.00  0.00    +0.000 C 
ATOM      9  C   UNL     1       2.496  18.832   8.294  0.00  0.00    +0.000 C 
ATOM     10  C   UNL     1       9.959  18.403  11.548  0.00  0.00    +0.000 C 
ATOM     11  C   UNL     1       6.138  18.836  11.790  0.00  0.00    +0.000 C 
ATOM     12  C   UNL     1       3.489  19.471  10.847  0.00  0.00    +0.000 C 
ATOM     13  C   UNL     1       8.997  16.838   9.375  0.00  0.00    +0.000 C 
ATOM     14  C   UNL     1      10.945  17.128  11.191  0.00  0.00    +0.000 C 
ATOM     15  C   UNL     1       6.616  15.769  10.913  0.00  0.00    +0.000 C 
ATOM     16  C   UNL     1      10.352  16.557   9.982  0.00  0.00    +0.000 C 
ATOM     17  C   UNL     1       1.824  19.961   9.120  0.00  0.00    +0.000 C 
ATOM     18  C   UNL     1       7.629  18.981  11.898  0.00  0.00    +0.000 C 
ATOM     19  C   UNL     1       3.234  17.057  11.274  0.00  0.00    +0.000 C 
ATOM     20  C   UNL     1       2.465  20.403  10.291  0.00  0.00    +0.000 C 
ATOM     21  C   UNL     1       7.863  18.972   8.714  0.00  0.00    +0.000 C 
ATOM     22  C   UNL     1      10.661  19.660  11.808  0.00  0.00    +0.000 C 
ATOM     23  C   UNL     1      12.288  17.746  11.023  0.00  0.00    +0.000 C 
ATOM     24  C   UNL     1      12.000  20.360  11.756  0.00  0.00    +0.000 C 
ATOM     25  C   UNL     1       1.367  17.883   7.773  0.00  0.00    +0.000 C 
ATOM     26  C   UNL     1      12.803  19.185  11.286  0.00  0.00    +0.000 C 
ATOM     27  C   UNL     1      11.991  21.499  10.720  0.00  0.00    +0.000 C 
ATOM     28  C   UNL     1      12.441  20.837  13.150  0.00  0.00    +0.000 C 
ENDROOT
BRANCH  17  29
ATOM     29  O   UNL     1       0.502  20.316   8.906  0.00  0.00    +0.000 OA
ATOM     30  H   UNL     1      -0.103  19.704   9.374  0.00  0.00    +0.000 HD
ENDBRANCH  17  29
BRANCH  14  32
ATOM     31  O   UNL     1      11.838  15.993  13.186  0.00  0.00    +0.000 OA
ATOM     32  C   UNL     1      10.924  16.176  12.393  0.00  0.00    +0.000 C 
BRANCH  32  33
ATOM     33  O   UNL     1       9.793  15.445  12.505  0.00  0.00    +0.000 OA
ATOM     34  H   UNL     1       9.224  15.947  13.127  0.00  0.00    +0.000 HD
ENDBRANCH  32  33
ENDBRANCH  14  32
BRANCH   9  35
ATOM     35  C   UNL     1       3.131  19.527   7.130  0.00  0.00    +0.000 C 
BRANCH  35  36
ATOM     36  O   UNL     1       3.709  20.152   6.100  0.00  0.00    +0.000 OA
ATOM     37  H   UNL     1       3.743  21.115   6.247  0.00  0.00    +0.000 HD
ENDBRANCH  35  36
ENDBRANCH   9  35
TORSDOF 5
ENDMDL
MODEL 8
REMARK VINA RESULT:      -6.7      5.359     12.103
REMARK  Name = 73299_Hederagenin.pdbqt.pdb
REMARK  5 active torsions:
REMARK  status: ('A' for Active; 'I' for Inactive)
REMARK    1  A    between atoms: C_9  and  C_35
REMARK    2  A    between atoms: C_14  and  C_32
REMARK    3  A    between atoms: C_17  and  O_29
REMARK    4  A    between atoms: C_32  and  O_33
REMARK    5  A    between atoms: C_35  and  O_36
REMARK                            x       y       z     vdW  Elec       q    Type
REMARK                         _______ _______ _______ _____ _____    ______ ____
ROOT
ATOM      1  C   UNL     1     -10.921  40.620  10.535  0.00  0.00    +0.000 C 
ATOM      2  C   UNL     1     -11.222  41.871  11.462  0.00  0.00    +0.000 C 
ATOM      3  C   UNL     1     -10.205  42.453  12.449  0.00  0.00    +0.000 C 
ATOM      4  C   UNL     1     -12.219  39.597  10.425  0.00  0.00    +0.000 C 
ATOM      5  C   UNL     1      -9.226  41.453  13.130  0.00  0.00    +0.000 C 
ATOM      6  C   UNL     1      -9.769  39.949  11.148  0.00  0.00    +0.000 C 
ATOM      7  C   UNL     1      -8.954  40.295  12.349  0.00  0.00    +0.000 C 
ATOM      8  C   UNL     1     -13.598  40.389  10.091  0.00  0.00    +0.000 C 
ATOM      9  C   UNL     1      -8.807  41.559  14.606  0.00  0.00    +0.000 C 
ATOM     10  C   UNL     1     -14.631  39.921   9.141  0.00  0.00    +0.000 C 
ATOM     11  C   UNL     1     -12.570  42.331  11.330  0.00  0.00    +0.000 C 
ATOM     12  C   UNL     1     -10.904  43.109  13.550  0.00  0.00    +0.000 C 
ATOM     13  C   UNL     1     -12.107  38.620   9.326  0.00  0.00    +0.000 C 
ATOM     14  C   UNL     1     -14.285  39.003   7.814  0.00  0.00    +0.000 C 
ATOM     15  C   UNL     1     -10.520  41.192   9.115  0.00  0.00    +0.000 C 
ATOM     16  C   UNL     1     -13.039  38.327   8.173  0.00  0.00    +0.000 C 
ATOM     17  C   UNL     1      -9.451  42.674  15.472  0.00  0.00    +0.000 C 
ATOM     18  C   UNL     1     -13.662  41.571  10.632  0.00  0.00    +0.000 C 
ATOM     19  C   UNL     1      -9.345  43.488  11.679  0.00  0.00    +0.000 C 
ATOM     20  C   UNL     1     -10.628  43.285  15.006  0.00  0.00    +0.000 C 
ATOM     21  C   UNL     1     -12.501  38.833  11.791  0.00  0.00    +0.000 C 
ATOM     22  C   UNL     1     -16.004  39.792   9.628  0.00  0.00    +0.000 C 
ATOM     23  C   UNL     1     -15.477  38.126   7.661  0.00  0.00    +0.000 C 
ATOM     24  C   UNL     1     -17.294  39.015   9.494  0.00  0.00    +0.000 C 
ATOM     25  C   UNL     1      -7.254  41.735  14.676  0.00  0.00    +0.000 C 
ATOM     26  C   UNL     1     -16.850  38.114   8.382  0.00  0.00    +0.000 C 
ATOM     27  C   UNL     1     -17.606  38.228  10.779  0.00  0.00    +0.000 C 
ATOM     28  C   UNL     1     -18.458  39.926   9.066  0.00  0.00    +0.000 C 
ENDROOT
BRANCH  17  29
ATOM     29  O   UNL     1      -8.750  43.274  16.505  0.00  0.00    +0.000 OA
ATOM     30  H   UNL     1      -9.134  43.034  17.373  0.00  0.00    +0.000 HD
ENDBRANCH  17  29
BRANCH  14  32
ATOM     31  O   UNL     1     -13.104  40.446   6.205  0.00  0.00    +0.000 OA
ATOM     32  C   UNL     1     -14.145  39.953   6.618  0.00  0.00    +0.000 C 
BRANCH  32  33
ATOM     33  O   UNL     1     -15.318  40.300   6.042  0.00  0.00    +0.000 OA
ATOM     34  H   UNL     1     -15.975  40.287   6.770  0.00  0.00    +0.000 HD
ENDBRANCH  32  33
ENDBRANCH  14  32
BRANCH   9  35
ATOM     35  C   UNL     1      -9.188  40.276  15.277  0.00  0.00    +0.000 C 
BRANCH  35  36
ATOM     36  O   UNL     1      -9.541  39.131  15.868  0.00  0.00    +0.000 OA
ATOM     37  H   UNL     1     -10.093  38.587  15.276  0.00  0.00    +0.000 HD
ENDBRANCH  35  36
ENDBRANCH   9  35
TORSDOF 5
ENDMDL
MODEL 9
REMARK VINA RESULT:      -6.6      8.241     12.783
REMARK  Name = 73299_Hederagenin.pdbqt.pdb
REMARK  5 active torsions:
REMARK  status: ('A' for Active; 'I' for Inactive)
REMARK    1  A    between atoms: C_9  and  C_35
REMARK    2  A    between atoms: C_14  and  C_32
REMARK    3  A    between atoms: C_17  and  O_29
REMARK    4  A    between atoms: C_32  and  O_33
REMARK    5  A    between atoms: C_35  and  O_36
REMARK                            x       y       z     vdW  Elec       q    Type
REMARK                         _______ _______ _______ _____ _____    ______ ____
ROOT
ATOM      1  C   UNL     1     -15.970  39.676   7.926  0.00  0.00    +0.000 C 
ATOM      2  C   UNL     1     -15.541  38.339   7.188  0.00  0.00    +0.000 C 
ATOM      3  C   UNL     1     -16.539  37.275   6.720  0.00  0.00    +0.000 C 
ATOM      4  C   UNL     1     -14.940  40.067   9.161  0.00  0.00    +0.000 C 
ATOM      5  C   UNL     1     -17.815  37.071   7.587  0.00  0.00    +0.000 C 
ATOM      6  C   UNL     1     -17.327  39.425   8.426  0.00  0.00    +0.000 C 
ATOM      7  C   UNL     1     -18.219  38.235   8.298  0.00  0.00    +0.000 C 
ATOM      8  C   UNL     1     -13.382  40.000   8.706  0.00  0.00    +0.000 C 
ATOM      9  C   UNL     1     -18.423  35.688   7.875  0.00  0.00    +0.000 C 
ATOM     10  C   UNL     1     -12.347  40.987   9.087  0.00  0.00    +0.000 C 
ATOM     11  C   UNL     1     -14.119  38.207   7.091  0.00  0.00    +0.000 C 
ATOM     12  C   UNL     1     -15.889  35.969   6.686  0.00  0.00    +0.000 C 
ATOM     13  C   UNL     1     -15.099  41.452   9.644  0.00  0.00    +0.000 C 
ATOM     14  C   UNL     1     -12.682  42.576   9.378  0.00  0.00    +0.000 C 
ATOM     15  C   UNL     1     -16.003  40.812   6.824  0.00  0.00    +0.000 C 
ATOM     16  C   UNL     1     -14.090  42.569   9.773  0.00  0.00    +0.000 C 
ATOM     17  C   UNL     1     -17.685  34.435   7.332  0.00  0.00    +0.000 C 
ATOM     18  C   UNL     1     -13.135  39.062   7.837  0.00  0.00    +0.000 C 
ATOM     19  C   UNL     1     -17.009  37.668   5.296  0.00  0.00    +0.000 C 
ATOM     20  C   UNL     1     -16.341  34.570   6.941  0.00  0.00    +0.000 C 
ATOM     21  C   UNL     1     -15.057  39.059  10.385  0.00  0.00    +0.000 C 
ATOM     22  C   UNL     1     -11.133  40.492   9.737  0.00  0.00    +0.000 C 
ATOM     23  C   UNL     1     -11.714  42.961  10.439  0.00  0.00    +0.000 C 
ATOM     24  C   UNL     1     -10.051  40.818  10.740  0.00  0.00    +0.000 C 
ATOM     25  C   UNL     1     -19.886  35.658   7.321  0.00  0.00    +0.000 C 
ATOM     26  C   UNL     1     -10.509  42.208  11.061  0.00  0.00    +0.000 C 
ATOM     27  C   UNL     1     -10.131  39.890  11.967  0.00  0.00    +0.000 C 
ATOM     28  C   UNL     1      -8.657  40.808  10.088  0.00  0.00    +0.000 C 
ENDROOT
BRANCH  17  29
ATOM     29  O   UNL     1     -18.383  33.302   6.948  0.00  0.00    +0.000 OA
ATOM     30  H   UNL     1     -19.251  33.542   6.560  0.00  0.00    +0.000 HD
ENDBRANCH  17  29
BRANCH  14  32
ATOM     31  O   UNL     1     -12.339  44.567   7.968  0.00  0.00    +0.000 OA
ATOM     32  C   UNL     1     -12.413  43.350   8.082  0.00  0.00    +0.000 C 
BRANCH  32  33
ATOM     33  O   UNL     1     -12.323  42.575   6.978  0.00  0.00    +0.000 OA
ATOM     34  H   UNL     1     -13.245  42.482   6.656  0.00  0.00    +0.000 HD
ENDBRANCH  32  33
ENDBRANCH  14  32
BRANCH   9  35
ATOM     35  C   UNL     1     -18.455  35.507   9.361  0.00  0.00    +0.000 C 
BRANCH  35  36
ATOM     36  O   UNL     1     -18.480  35.361  10.688  0.00  0.00    +0.000 OA
ATOM     37  H   UNL     1     -19.378  35.144  11.000  0.00  0.00    +0.000 HD
ENDBRANCH  35  36
ENDBRANCH   9  35
TORSDOF 5
ENDMDL
