MODEL 1
REMARK VINA RESULT:      -8.2      0.000      0.000
REMARK  Name = 73659_MaslinicAcid.pdbqt.pdb
REMARK  4 active torsions:
REMARK  status: ('A' for Active; 'I' for Inactive)
REMARK    1  A    between atoms: C_14  and  C_35
REMARK    2  A    between atoms: C_17  and  O_30
REMARK    3  A    between atoms: C_19  and  O_32
REMARK    4  A    between atoms: C_35  and  O_36
REMARK                            x       y       z     vdW  Elec       q    Type
REMARK                         _______ _______ _______ _____ _____    ______ ____
ROOT
ATOM      1  C   UNL     1      10.322  38.377  17.389  0.00  0.00    +0.000 C 
ATOM      2  C   UNL     1      10.386  37.440  16.108  0.00  0.00    +0.000 C 
ATOM      3  C   UNL     1       9.431  36.266  15.873  0.00  0.00    +0.000 C 
ATOM      4  C   UNL     1      11.828  38.770  17.954  0.00  0.00    +0.000 C 
ATOM      5  C   UNL     1       8.920  35.515  17.108  0.00  0.00    +0.000 C 
ATOM      6  C   UNL     1       9.560  37.615  18.384  0.00  0.00    +0.000 C 
ATOM      7  C   UNL     1       8.889  36.284  18.303  0.00  0.00    +0.000 C 
ATOM      8  C   UNL     1      12.809  39.290  16.768  0.00  0.00    +0.000 C 
ATOM      9  C   UNL     1       8.636  34.023  17.028  0.00  0.00    +0.000 C 
ATOM     10  C   UNL     1      13.729  40.444  16.877  0.00  0.00    +0.000 C 
ATOM     11  C   UNL     1      11.482  37.772  15.250  0.00  0.00    +0.000 C 
ATOM     12  C   UNL     1      10.094  35.238  15.087  0.00  0.00    +0.000 C 
ATOM     13  C   UNL     1      11.820  39.889  18.914  0.00  0.00    +0.000 C 
ATOM     14  C   UNL     1      13.432  41.745  17.849  0.00  0.00    +0.000 C 
ATOM     15  C   UNL     1       9.510  39.667  16.963  0.00  0.00    +0.000 C 
ATOM     16  C   UNL     1      12.557  41.209  18.891  0.00  0.00    +0.000 C 
ATOM     17  C   UNL     1       9.248  33.211  15.858  0.00  0.00    +0.000 C 
ATOM     18  C   UNL     1       8.199  36.812  15.112  0.00  0.00    +0.000 C 
ATOM     19  C   UNL     1      10.131  33.855  14.944  0.00  0.00    +0.000 C 
ATOM     20  C   UNL     1      12.606  38.693  15.628  0.00  0.00    +0.000 C 
ATOM     21  C   UNL     1      12.572  37.520  18.591  0.00  0.00    +0.000 C 
ATOM     22  C   UNL     1      15.140  40.231  16.562  0.00  0.00    +0.000 C 
ATOM     23  C   UNL     1      14.783  42.178  18.294  0.00  0.00    +0.000 C 
ATOM     24  C   UNL     1      16.555  40.660  16.880  0.00  0.00    +0.000 C 
ATOM     25  C   UNL     1       9.215  33.337  18.315  0.00  0.00    +0.000 C 
ATOM     26  C   UNL     1       7.098  33.794  16.999  0.00  0.00    +0.000 C 
ATOM     27  C   UNL     1      16.205  41.730  17.869  0.00  0.00    +0.000 C 
ATOM     28  C   UNL     1      17.263  41.234  15.639  0.00  0.00    +0.000 C 
ATOM     29  C   UNL     1      17.350  39.515  17.533  0.00  0.00    +0.000 C 
ENDROOT
BRANCH  17  30
ATOM     30  O   UNL     1       8.968  31.868  15.621  0.00  0.00    +0.000 OA
ATOM     31  H   UNL     1       9.335  31.577  14.760  0.00  0.00    +0.000 HD
ENDBRANCH  17  30
BRANCH  19  32
ATOM     32  O   UNL     1      10.537  33.226  13.806  0.00  0.00    +0.000 OA
ATOM     33  H   UNL     1      11.247  32.582  13.996  0.00  0.00    +0.000 HD
ENDBRANCH  19  32
BRANCH  14  35
ATOM     34  O   UNL     1      12.806  42.908  15.768  0.00  0.00    +0.000 OA
ATOM     35  C   UNL     1      12.763  42.824  16.988  0.00  0.00    +0.000 C 
BRANCH  35  36
ATOM     36  O   UNL     1      12.135  43.789  17.697  0.00  0.00    +0.000 OA
ATOM     37  H   UNL     1      12.794  44.086  18.362  0.00  0.00    +0.000 HD
ENDBRANCH  35  36
ENDBRANCH  14  35
TORSDOF 4
ENDMDL
MODEL 2
REMARK VINA RESULT:      -7.7     19.665     22.597
REMARK  Name = 73659_MaslinicAcid.pdbqt.pdb
REMARK  4 active torsions:
REMARK  status: ('A' for Active; 'I' for Inactive)
REMARK    1  A    between atoms: C_14  and  C_35
REMARK    2  A    between atoms: C_17  and  O_30
REMARK    3  A    between atoms: C_19  and  O_32
REMARK    4  A    between atoms: C_35  and  O_36
REMARK                            x       y       z     vdW  Elec       q    Type
REMARK                         _______ _______ _______ _____ _____    ______ ____
ROOT
ATOM      1  C   UNL     1     -10.767  42.479  11.943  0.00  0.00    +0.000 C 
ATOM      2  C   UNL     1     -11.346  41.039  12.279  0.00  0.00    +0.000 C 
ATOM      3  C   UNL     1     -12.844  40.732  12.369  0.00  0.00    +0.000 C 
ATOM      4  C   UNL     1      -9.430  42.844  12.848  0.00  0.00    +0.000 C 
ATOM      5  C   UNL     1     -13.763  41.852  12.872  0.00  0.00    +0.000 C 
ATOM      6  C   UNL     1     -11.868  43.409  12.217  0.00  0.00    +0.000 C 
ATOM      7  C   UNL     1     -13.277  43.168  12.649  0.00  0.00    +0.000 C 
ATOM      8  C   UNL     1      -8.337  41.642  12.837  0.00  0.00    +0.000 C 
ATOM      9  C   UNL     1     -15.008  41.511  13.677  0.00  0.00    +0.000 C 
ATOM     10  C   UNL     1      -6.876  41.828  12.701  0.00  0.00    +0.000 C 
ATOM     11  C   UNL     1     -10.312  40.092  12.562  0.00  0.00    +0.000 C 
ATOM     12  C   UNL     1     -13.072  39.645  13.308  0.00  0.00    +0.000 C 
ATOM     13  C   UNL     1      -8.675  44.003  12.340  0.00  0.00    +0.000 C 
ATOM     14  C   UNL     1      -6.201  43.088  11.875  0.00  0.00    +0.000 C 
ATOM     15  C   UNL     1     -10.434  42.482  10.396  0.00  0.00    +0.000 C 
ATOM     16  C   UNL     1      -7.225  44.131  11.931  0.00  0.00    +0.000 C 
ATOM     17  C   UNL     1     -15.111  40.109  14.328  0.00  0.00    +0.000 C 
ATOM     18  C   UNL     1     -13.324  40.329  10.955  0.00  0.00    +0.000 C 
ATOM     19  C   UNL     1     -14.009  39.211  14.239  0.00  0.00    +0.000 C 
ATOM     20  C   UNL     1      -8.873  40.454  12.797  0.00  0.00    +0.000 C 
ATOM     21  C   UNL     1      -9.788  43.065  14.380  0.00  0.00    +0.000 C 
ATOM     22  C   UNL     1      -6.009  41.236  13.719  0.00  0.00    +0.000 C 
ATOM     23  C   UNL     1      -4.944  43.373  12.617  0.00  0.00    +0.000 C 
ATOM     24  C   UNL     1      -4.706  41.386  14.471  0.00  0.00    +0.000 C 
ATOM     25  C   UNL     1     -15.105  42.505  14.887  0.00  0.00    +0.000 C 
ATOM     26  C   UNL     1     -16.267  41.702  12.782  0.00  0.00    +0.000 C 
ATOM     27  C   UNL     1      -4.231  42.623  13.771  0.00  0.00    +0.000 C 
ATOM     28  C   UNL     1      -3.770  40.190  14.222  0.00  0.00    +0.000 C 
ATOM     29  C   UNL     1      -4.955  41.636  15.970  0.00  0.00    +0.000 C 
ENDROOT
BRANCH  17  30
ATOM     30  O   UNL     1     -16.246  39.648  14.992  0.00  0.00    +0.000 OA
ATOM     31  H   UNL     1     -16.845  40.388  15.222  0.00  0.00    +0.000 HD
ENDBRANCH  17  30
BRANCH  19  32
ATOM     32  O   UNL     1     -14.132  37.914  14.636  0.00  0.00    +0.000 OA
ATOM     33  H   UNL     1     -14.320  37.330  13.875  0.00  0.00    +0.000 HD
ENDBRANCH  19  32
BRANCH  14  35
ATOM     34  O   UNL     1      -5.800  41.439  10.089  0.00  0.00    +0.000 OA
ATOM     35  C   UNL     1      -5.903  42.603  10.451  0.00  0.00    +0.000 C 
BRANCH  35  36
ATOM     36  O   UNL     1      -5.675  43.596   9.563  0.00  0.00    +0.000 OA
ATOM     37  H   UNL     1      -4.925  43.280   9.013  0.00  0.00    +0.000 HD
ENDBRANCH  35  36
ENDBRANCH  14  35
TORSDOF 4
ENDMDL
MODEL 3
REMARK VINA RESULT:      -7.7     17.623     21.716
REMARK  Name = 73659_MaslinicAcid.pdbqt.pdb
REMARK  4 active torsions:
REMARK  status: ('A' for Active; 'I' for Inactive)
REMARK    1  A    between atoms: C_14  and  C_35
REMARK    2  A    between atoms: C_17  and  O_30
REMARK    3  A    between atoms: C_19  and  O_32
REMARK    4  A    between atoms: C_35  and  O_36
REMARK                            x       y       z     vdW  Elec       q    Type
REMARK                         _______ _______ _______ _____ _____    ______ ____
ROOT
ATOM      1  C   UNL     1      -6.070  42.705  12.477  0.00  0.00    +0.000 C 
ATOM      2  C   UNL     1      -6.194  44.268  12.733  0.00  0.00    +0.000 C 
ATOM      3  C   UNL     1      -5.017  45.150  13.159  0.00  0.00    +0.000 C 
ATOM      4  C   UNL     1      -7.379  41.871  13.051  0.00  0.00    +0.000 C 
ATOM      5  C   UNL     1      -3.940  44.508  14.042  0.00  0.00    +0.000 C 
ATOM      6  C   UNL     1      -4.836  42.302  13.161  0.00  0.00    +0.000 C 
ATOM      7  C   UNL     1      -3.814  43.100  13.901  0.00  0.00    +0.000 C 
ATOM      8  C   UNL     1      -8.784  42.536  12.579  0.00  0.00    +0.000 C 
ATOM      9  C   UNL     1      -3.209  45.345  15.081  0.00  0.00    +0.000 C 
ATOM     10  C   UNL     1      -9.961  41.777  12.101  0.00  0.00    +0.000 C 
ATOM     11  C   UNL     1      -7.540  44.733  12.595  0.00  0.00    +0.000 C 
ATOM     12  C   UNL     1      -5.498  46.270  13.951  0.00  0.00    +0.000 C 
ATOM     13  C   UNL     1      -7.462  40.489  12.544  0.00  0.00    +0.000 C 
ATOM     14  C   UNL     1      -9.842  40.324  11.326  0.00  0.00    +0.000 C 
ATOM     15  C   UNL     1      -5.904  42.516  10.915  0.00  0.00    +0.000 C 
ATOM     16  C   UNL     1      -8.570  39.779  11.799  0.00  0.00    +0.000 C 
ATOM     17  C   UNL     1      -3.832  46.695  15.520  0.00  0.00    +0.000 C 
ATOM     18  C   UNL     1      -4.326  45.661  11.872  0.00  0.00    +0.000 C 
ATOM     19  C   UNL     1      -5.109  47.075  15.017  0.00  0.00    +0.000 C 
ATOM     20  C   UNL     1      -8.742  43.836  12.503  0.00  0.00    +0.000 C 
ATOM     21  C   UNL     1      -7.434  41.865  14.639  0.00  0.00    +0.000 C 
ATOM     22  C   UNL     1     -11.244  42.011  12.761  0.00  0.00    +0.000 C 
ATOM     23  C   UNL     1     -11.062  39.588  11.753  0.00  0.00    +0.000 C 
ATOM     24  C   UNL     1     -12.558  41.380  13.166  0.00  0.00    +0.000 C 
ATOM     25  C   UNL     1      -3.112  44.517  16.409  0.00  0.00    +0.000 C 
ATOM     26  C   UNL     1      -1.766  45.641  14.580  0.00  0.00    +0.000 C 
ATOM     27  C   UNL     1     -12.309  40.033  12.560  0.00  0.00    +0.000 C 
ATOM     28  C   UNL     1     -13.752  42.095  12.508  0.00  0.00    +0.000 C 
ATOM     29  C   UNL     1     -12.689  41.303  14.698  0.00  0.00    +0.000 C 
ENDROOT
BRANCH  17  30
ATOM     30  O   UNL     1      -3.201  47.593  16.377  0.00  0.00    +0.000 OA
ATOM     31  H   UNL     1      -3.814  48.305  16.656  0.00  0.00    +0.000 HD
ENDBRANCH  17  30
BRANCH  19  32
ATOM     32  O   UNL     1      -5.600  48.326  15.234  0.00  0.00    +0.000 OA
ATOM     33  H   UNL     1      -5.733  48.491  16.187  0.00  0.00    +0.000 HD
ENDBRANCH  19  32
BRANCH  14  35
ATOM     34  O   UNL     1     -10.840  40.534   9.083  0.00  0.00    +0.000 OA
ATOM     35  C   UNL     1      -9.864  40.599   9.818  0.00  0.00    +0.000 C 
BRANCH  35  36
ATOM     36  O   UNL     1      -8.651  40.872   9.286  0.00  0.00    +0.000 OA
ATOM     37  H   UNL     1      -8.729  40.633   8.337  0.00  0.00    +0.000 HD
ENDBRANCH  35  36
ENDBRANCH  14  35
TORSDOF 4
ENDMDL
MODEL 4
REMARK VINA RESULT:      -7.3     19.548     22.029
REMARK  Name = 73659_MaslinicAcid.pdbqt.pdb
REMARK  4 active torsions:
REMARK  status: ('A' for Active; 'I' for Inactive)
REMARK    1  A    between atoms: C_14  and  C_35
REMARK    2  A    between atoms: C_17  and  O_30
REMARK    3  A    between atoms: C_19  and  O_32
REMARK    4  A    between atoms: C_35  and  O_36
REMARK                            x       y       z     vdW  Elec       q    Type
REMARK                         _______ _______ _______ _____ _____    ______ ____
ROOT
ATOM      1  C   UNL     1     -10.423  42.241  15.012  0.00  0.00    +0.000 C 
ATOM      2  C   UNL     1      -9.334  43.012  14.150  0.00  0.00    +0.000 C 
ATOM      3  C   UNL     1      -9.098  42.751  12.660  0.00  0.00    +0.000 C 
ATOM      4  C   UNL     1      -9.874  41.869  16.528  0.00  0.00    +0.000 C 
ATOM      5  C   UNL     1      -9.326  41.323  12.150  0.00  0.00    +0.000 C 
ATOM      6  C   UNL     1     -10.734  41.031  14.243  0.00  0.00    +0.000 C 
ATOM      7  C   UNL     1     -10.252  40.559  12.911  0.00  0.00    +0.000 C 
ATOM      8  C   UNL     1      -9.193  43.148  17.263  0.00  0.00    +0.000 C 
ATOM      9  C   UNL     1      -8.480  40.777  11.011  0.00  0.00    +0.000 C 
ATOM     10  C   UNL     1      -9.399  43.517  18.681  0.00  0.00    +0.000 C 
ATOM     11  C   UNL     1      -8.556  43.914  14.943  0.00  0.00    +0.000 C 
ATOM     12  C   UNL     1      -7.710  43.025  12.323  0.00  0.00    +0.000 C 
ATOM     13  C   UNL     1     -10.944  41.464  17.457  0.00  0.00    +0.000 C 
ATOM     14  C   UNL     1     -10.789  43.182  19.507  0.00  0.00    +0.000 C 
ATOM     15  C   UNL     1     -11.697  43.179  15.073  0.00  0.00    +0.000 C 
ATOM     16  C   UNL     1     -11.342  42.025  18.804  0.00  0.00    +0.000 C 
ATOM     17  C   UNL     1      -7.149  41.491  10.665  0.00  0.00    +0.000 C 
ATOM     18  C   UNL     1     -10.038  43.689  11.866  0.00  0.00    +0.000 C 
ATOM     19  C   UNL     1      -6.705  42.577  11.473  0.00  0.00    +0.000 C 
ATOM     20  C   UNL     1      -8.556  43.938  16.445  0.00  0.00    +0.000 C 
ATOM     21  C   UNL     1      -8.740  40.756  16.496  0.00  0.00    +0.000 C 
ATOM     22  C   UNL     1      -8.218  43.692  19.525  0.00  0.00    +0.000 C 
ATOM     23  C   UNL     1     -10.329  42.937  20.900  0.00  0.00    +0.000 C 
ATOM     24  C   UNL     1      -7.673  43.560  20.930  0.00  0.00    +0.000 C 
ATOM     25  C   UNL     1      -8.047  39.312  11.370  0.00  0.00    +0.000 C 
ATOM     26  C   UNL     1      -9.335  40.732   9.712  0.00  0.00    +0.000 C 
ATOM     27  C   UNL     1      -8.947  43.114  21.580  0.00  0.00    +0.000 C 
ATOM     28  C   UNL     1      -7.193  44.916  21.477  0.00  0.00    +0.000 C 
ATOM     29  C   UNL     1      -6.583  42.476  21.004  0.00  0.00    +0.000 C 
ENDROOT
BRANCH  17  30
ATOM     30  O   UNL     1      -6.349  41.150   9.576  0.00  0.00    +0.000 OA
ATOM     31  H   UNL     1      -6.508  41.751   8.819  0.00  0.00    +0.000 HD
ENDBRANCH  17  30
BRANCH  19  32
ATOM     32  O   UNL     1      -5.643  43.341  11.093  0.00  0.00    +0.000 OA
ATOM     33  H   UNL     1      -5.570  43.380  10.119  0.00  0.00    +0.000 HD
ENDBRANCH  19  32
BRANCH  14  35
ATOM     34  O   UNL     1     -11.477  45.501  19.978  0.00  0.00    +0.000 OA
ATOM     35  C   UNL     1     -11.684  44.425  19.432  0.00  0.00    +0.000 C 
BRANCH  35  36
ATOM     36  O   UNL     1     -12.831  44.241  18.741  0.00  0.00    +0.000 OA
ATOM     37  H   UNL     1     -12.632  43.522  18.103  0.00  0.00    +0.000 HD
ENDBRANCH  35  36
ENDBRANCH  14  35
TORSDOF 4
ENDMDL
MODEL 5
REMARK VINA RESULT:      -7.3      3.771      6.537
REMARK  Name = 73659_MaslinicAcid.pdbqt.pdb
REMARK  4 active torsions:
REMARK  status: ('A' for Active; 'I' for Inactive)
REMARK    1  A    between atoms: C_14  and  C_35
REMARK    2  A    between atoms: C_17  and  O_30
REMARK    3  A    between atoms: C_19  and  O_32
REMARK    4  A    between atoms: C_35  and  O_36
REMARK                            x       y       z     vdW  Elec       q    Type
REMARK                         _______ _______ _______ _____ _____    ______ ____
ROOT
ATOM      1  C   UNL     1      10.027  32.220  16.191  0.00  0.00    +0.000 C 
ATOM      2  C   UNL     1      11.497  31.646  16.370  0.00  0.00    +0.000 C 
ATOM      3  C   UNL     1      11.814  30.149  16.452  0.00  0.00    +0.000 C 
ATOM      4  C   UNL     1       9.768  33.574  17.107  0.00  0.00    +0.000 C 
ATOM      5  C   UNL     1      10.761  29.241  17.096  0.00  0.00    +0.000 C 
ATOM      6  C   UNL     1       9.136  31.125  16.590  0.00  0.00    +0.000 C 
ATOM      7  C   UNL     1       9.427  29.724  17.018  0.00  0.00    +0.000 C 
ATOM      8  C   UNL     1      10.959  34.665  16.937  0.00  0.00    +0.000 C 
ATOM      9  C   UNL     1      11.194  28.011  17.879  0.00  0.00    +0.000 C 
ATOM     10  C   UNL     1      10.756  36.124  16.797  0.00  0.00    +0.000 C 
ATOM     11  C   UNL     1      12.469  32.685  16.523  0.00  0.00    +0.000 C 
ATOM     12  C   UNL     1      13.002  29.939  17.263  0.00  0.00    +0.000 C 
ATOM     13  C   UNL     1       8.556  34.320  16.721  0.00  0.00    +0.000 C 
ATOM     14  C   UNL     1       9.408  36.784  16.109  0.00  0.00    +0.000 C 
ATOM     15  C   UNL     1       9.847  32.524  14.648  0.00  0.00    +0.000 C 
ATOM     16  C   UNL     1       8.380  35.762  16.303  0.00  0.00    +0.000 C 
ATOM     17  C   UNL     1      12.662  27.919  18.367  0.00  0.00    +0.000 C 
ATOM     18  C   UNL     1      12.053  29.643  15.009  0.00  0.00    +0.000 C 
ATOM     19  C   UNL     1      13.542  29.018  18.155  0.00  0.00    +0.000 C 
ATOM     20  C   UNL     1      12.134  34.128  16.771  0.00  0.00    +0.000 C 
ATOM     21  C   UNL     1       9.724  33.244  18.661  0.00  0.00    +0.000 C 
ATOM     22  C   UNL     1      11.461  37.009  17.724  0.00  0.00    +0.000 C 
ATOM     23  C   UNL     1       9.209  38.055  16.855  0.00  0.00    +0.000 C 
ATOM     24  C   UNL     1      11.396  38.326  18.464  0.00  0.00    +0.000 C 
ATOM     25  C   UNL     1      10.346  27.937  19.197  0.00  0.00    +0.000 C 
ATOM     26  C   UNL     1      10.903  26.736  17.036  0.00  0.00    +0.000 C 
ATOM     27  C   UNL     1      10.086  38.788  17.903  0.00  0.00    +0.000 C 
ATOM     28  C   UNL     1      12.554  39.256  18.062  0.00  0.00    +0.000 C 
ATOM     29  C   UNL     1      11.320  38.105  19.986  0.00  0.00    +0.000 C 
ENDROOT
BRANCH  17  30
ATOM     30  O   UNL     1      13.198  26.796  18.994  0.00  0.00    +0.000 OA
ATOM     31  H   UNL     1      14.164  26.735  18.844  0.00  0.00    +0.000 HD
ENDBRANCH  17  30
BRANCH  19  32
ATOM     32  O   UNL     1      14.876  28.902  18.402  0.00  0.00    +0.000 OA
ATOM     33  H   UNL     1      15.376  28.762  17.574  0.00  0.00    +0.000 HD
ENDBRANCH  19  32
BRANCH  14  35
ATOM     34  O   UNL     1      10.829  36.994  14.107  0.00  0.00    +0.000 OA
ATOM     35  C   UNL     1       9.726  37.056  14.634  0.00  0.00    +0.000 C 
BRANCH  35  36
ATOM     36  O   UNL     1       8.664  37.462  13.903  0.00  0.00    +0.000 OA
ATOM     37  H   UNL     1       8.992  38.226  13.380  0.00  0.00    +0.000 HD
ENDBRANCH  35  36
ENDBRANCH  14  35
TORSDOF 4
ENDMDL
MODEL 6
REMARK VINA RESULT:      -7.3     14.273     16.676
REMARK  Name = 73659_MaslinicAcid.pdbqt.pdb
REMARK  4 active torsions:
REMARK  status: ('A' for Active; 'I' for Inactive)
REMARK    1  A    between atoms: C_14  and  C_35
REMARK    2  A    between atoms: C_17  and  O_30
REMARK    3  A    between atoms: C_19  and  O_32
REMARK    4  A    between atoms: C_35  and  O_36
REMARK                            x       y       z     vdW  Elec       q    Type
REMARK                         _______ _______ _______ _____ _____    ______ ____
ROOT
ATOM      1  C   UNL     1      -5.190  42.836  16.046  0.00  0.00    +0.000 C 
ATOM      2  C   UNL     1      -5.132  43.359  14.547  0.00  0.00    +0.000 C 
ATOM      3  C   UNL     1      -6.311  43.262  13.574  0.00  0.00    +0.000 C 
ATOM      4  C   UNL     1      -3.784  42.094  16.506  0.00  0.00    +0.000 C 
ATOM      5  C   UNL     1      -7.254  42.063  13.727  0.00  0.00    +0.000 C 
ATOM      6  C   UNL     1      -6.324  41.906  16.084  0.00  0.00    +0.000 C 
ATOM      7  C   UNL     1      -7.311  41.513  15.036  0.00  0.00    +0.000 C 
ATOM      8  C   UNL     1      -2.474  42.982  16.136  0.00  0.00    +0.000 C 
ATOM      9  C   UNL     1      -7.924  41.461  12.502  0.00  0.00    +0.000 C 
ATOM     10  C   UNL     1      -1.309  43.182  17.026  0.00  0.00    +0.000 C 
ATOM     11  C   UNL     1      -3.836  43.853  14.197  0.00  0.00    +0.000 C 
ATOM     12  C   UNL     1      -5.818  43.148  12.211  0.00  0.00    +0.000 C 
ATOM     13  C   UNL     1      -3.672  41.901  17.963  0.00  0.00    +0.000 C 
ATOM     14  C   UNL     1      -1.420  43.166  18.673  0.00  0.00    +0.000 C 
ATOM     15  C   UNL     1      -5.500  44.097  16.952  0.00  0.00    +0.000 C 
ATOM     16  C   UNL     1      -2.605  42.350  18.936  0.00  0.00    +0.000 C 
ATOM     17  C   UNL     1      -7.340  41.780  11.102  0.00  0.00    +0.000 C 
ATOM     18  C   UNL     1      -7.155  44.548  13.733  0.00  0.00    +0.000 C 
ATOM     19  C   UNL     1      -6.144  42.547  11.000  0.00  0.00    +0.000 C 
ATOM     20  C   UNL     1      -2.600  43.653  15.026  0.00  0.00    +0.000 C 
ATOM     21  C   UNL     1      -3.569  40.707  15.762  0.00  0.00    +0.000 C 
ATOM     22  C   UNL     1       0.018  42.863  16.504  0.00  0.00    +0.000 C 
ATOM     23  C   UNL     1      -0.123  42.589  19.116  0.00  0.00    +0.000 C 
ATOM     24  C   UNL     1       1.400  42.365  16.863  0.00  0.00    +0.000 C 
ATOM     25  C   UNL     1      -7.839  39.898  12.606  0.00  0.00    +0.000 C 
ATOM     26  C   UNL     1      -9.425  41.871  12.484  0.00  0.00    +0.000 C 
ATOM     27  C   UNL     1       1.171  42.236  18.338  0.00  0.00    +0.000 C 
ATOM     28  C   UNL     1       2.479  43.414  16.539  0.00  0.00    +0.000 C 
ATOM     29  C   UNL     1       1.688  41.002  16.207  0.00  0.00    +0.000 C 
ENDROOT
BRANCH  17  30
ATOM     30  O   UNL     1      -7.933  41.377   9.908  0.00  0.00    +0.000 OA
ATOM     31  H   UNL     1      -7.889  40.404   9.803  0.00  0.00    +0.000 HD
ENDBRANCH  17  30
BRANCH  19  32
ATOM     32  O   UNL     1      -5.708  43.000   9.792  0.00  0.00    +0.000 OA
ATOM     33  H   UNL     1      -5.152  42.332   9.346  0.00  0.00    +0.000 HD
ENDBRANCH  19  32
BRANCH  14  35
ATOM     34  O   UNL     1      -2.610  45.252  19.226  0.00  0.00    +0.000 OA
ATOM     35  C   UNL     1      -1.566  44.619  19.142  0.00  0.00    +0.000 C 
BRANCH  35  36
ATOM     36  O   UNL     1      -0.393  45.235  19.413  0.00  0.00    +0.000 OA
ATOM     37  H   UNL     1      -0.339  45.259  20.394  0.00  0.00    +0.000 HD
ENDBRANCH  35  36
ENDBRANCH  14  35
TORSDOF 4
ENDMDL
MODEL 7
REMARK VINA RESULT:      -7.2      4.075      9.698
REMARK  Name = 73659_MaslinicAcid.pdbqt.pdb
REMARK  4 active torsions:
REMARK  status: ('A' for Active; 'I' for Inactive)
REMARK    1  A    between atoms: C_14  and  C_35
REMARK    2  A    between atoms: C_17  and  O_30
REMARK    3  A    between atoms: C_19  and  O_32
REMARK    4  A    between atoms: C_35  and  O_36
REMARK                            x       y       z     vdW  Elec       q    Type
REMARK                         _______ _______ _______ _____ _____    ______ ____
ROOT
ATOM      1  C   UNL     1      10.244  33.006  17.347  0.00  0.00    +0.000 C 
ATOM      2  C   UNL     1      11.605  33.824  17.325  0.00  0.00    +0.000 C 
ATOM      3  C   UNL     1      11.675  35.350  17.436  0.00  0.00    +0.000 C 
ATOM      4  C   UNL     1      10.248  31.753  16.266  0.00  0.00    +0.000 C 
ATOM      5  C   UNL     1      10.513  36.153  16.840  0.00  0.00    +0.000 C 
ATOM      6  C   UNL     1       9.202  33.988  17.026  0.00  0.00    +0.000 C 
ATOM      7  C   UNL     1       9.275  35.459  16.781  0.00  0.00    +0.000 C 
ATOM      8  C   UNL     1      11.594  30.852  16.379  0.00  0.00    +0.000 C 
ATOM      9  C   UNL     1      10.769  37.524  16.232  0.00  0.00    +0.000 C 
ATOM     10  C   UNL     1      11.629  29.373  16.336  0.00  0.00    +0.000 C 
ATOM     11  C   UNL     1      12.740  32.979  17.110  0.00  0.00    +0.000 C 
ATOM     12  C   UNL     1      12.843  35.846  16.728  0.00  0.00    +0.000 C 
ATOM     13  C   UNL     1       9.161  30.782  16.490  0.00  0.00    +0.000 C 
ATOM     14  C   UNL     1      10.382  28.427  16.861  0.00  0.00    +0.000 C 
ATOM     15  C   UNL     1      10.053  32.488  18.831  0.00  0.00    +0.000 C 
ATOM     16  C   UNL     1       9.208  29.290  16.726  0.00  0.00    +0.000 C 
ATOM     17  C   UNL     1      12.220  37.908  15.847  0.00  0.00    +0.000 C 
ATOM     18  C   UNL     1      11.769  35.705  18.939  0.00  0.00    +0.000 C 
ATOM     19  C   UNL     1      13.260  36.944  15.983  0.00  0.00    +0.000 C 
ATOM     20  C   UNL     1      12.658  31.544  16.676  0.00  0.00    +0.000 C 
ATOM     21  C   UNL     1      10.213  32.262  14.761  0.00  0.00    +0.000 C 
ATOM     22  C   UNL     1      12.506  28.733  15.358  0.00  0.00    +0.000 C 
ATOM     23  C   UNL     1      10.424  27.243  15.962  0.00  0.00    +0.000 C 
ATOM     24  C   UNL     1      12.689  27.525  14.467  0.00  0.00    +0.000 C 
ATOM     25  C   UNL     1       9.974  37.626  14.883  0.00  0.00    +0.000 C 
ATOM     26  C   UNL     1      10.239  38.622  17.199  0.00  0.00    +0.000 C 
ATOM     27  C   UNL     1      11.452  26.795  14.891  0.00  0.00    +0.000 C 
ATOM     28  C   UNL     1      13.968  26.748  14.827  0.00  0.00    +0.000 C 
ATOM     29  C   UNL     1      12.639  27.919  12.979  0.00  0.00    +0.000 C 
ENDROOT
BRANCH  17  30
ATOM     30  O   UNL     1      12.589  39.170  15.388  0.00  0.00    +0.000 OA
ATOM     31  H   UNL     1      12.828  39.761  16.132  0.00  0.00    +0.000 HD
ENDBRANCH  17  30
BRANCH  19  32
ATOM     32  O   UNL     1      14.566  37.300  15.831  0.00  0.00    +0.000 OA
ATOM     33  H   UNL     1      15.045  36.651  15.281  0.00  0.00    +0.000 HD
ENDBRANCH  19  32
BRANCH  14  35
ATOM     34  O   UNL     1      10.530  28.732  19.302  0.00  0.00    +0.000 OA
ATOM     35  C   UNL     1      10.680  28.029  18.312  0.00  0.00    +0.000 C 
BRANCH  35  36
ATOM     36  O   UNL     1      11.222  26.797  18.449  0.00  0.00    +0.000 OA
ATOM     37  H   UNL     1      12.173  26.957  18.636  0.00  0.00    +0.000 HD
ENDBRANCH  35  36
ENDBRANCH  14  35
TORSDOF 4
ENDMDL
MODEL 8
REMARK VINA RESULT:      -7.2     15.695     19.526
REMARK  Name = 73659_MaslinicAcid.pdbqt.pdb
REMARK  4 active torsions:
REMARK  status: ('A' for Active; 'I' for Inactive)
REMARK    1  A    between atoms: C_14  and  C_35
REMARK    2  A    between atoms: C_17  and  O_30
REMARK    3  A    between atoms: C_19  and  O_32
REMARK    4  A    between atoms: C_35  and  O_36
REMARK                            x       y       z     vdW  Elec       q    Type
REMARK                         _______ _______ _______ _____ _____    ______ ____
ROOT
ATOM      1  C   UNL     1      -5.650  42.622  16.515  0.00  0.00    +0.000 C 
ATOM      2  C   UNL     1      -4.360  41.817  16.053  0.00  0.00    +0.000 C 
ATOM      3  C   UNL     1      -2.942  42.154  16.523  0.00  0.00    +0.000 C 
ATOM      4  C   UNL     1      -6.725  42.845  15.277  0.00  0.00    +0.000 C 
ATOM      5  C   UNL     1      -2.626  43.626  16.810  0.00  0.00    +0.000 C 
ATOM      6  C   UNL     1      -5.141  43.903  17.019  0.00  0.00    +0.000 C 
ATOM      7  C   UNL     1      -3.748  44.417  17.177  0.00  0.00    +0.000 C 
ATOM      8  C   UNL     1      -7.026  41.466  14.472  0.00  0.00    +0.000 C 
ATOM      9  C   UNL     1      -1.229  44.169  16.549  0.00  0.00    +0.000 C 
ATOM     10  C   UNL     1      -8.364  41.025  14.022  0.00  0.00    +0.000 C 
ATOM     11  C   UNL     1      -4.672  40.801  15.095  0.00  0.00    +0.000 C 
ATOM     12  C   UNL     1      -1.980  41.782  15.499  0.00  0.00    +0.000 C 
ATOM     13  C   UNL     1      -8.059  43.280  15.730  0.00  0.00    +0.000 C 
ATOM     14  C   UNL     1      -9.758  41.425  14.810  0.00  0.00    +0.000 C 
ATOM     15  C   UNL     1      -6.296  41.797  17.700  0.00  0.00    +0.000 C 
ATOM     16  C   UNL     1      -9.423  42.670  15.502  0.00  0.00    +0.000 C 
ATOM     17  C   UNL     1      -0.279  43.366  15.626  0.00  0.00    +0.000 C 
ATOM     18  C   UNL     1      -2.678  41.355  17.822  0.00  0.00    +0.000 C 
ATOM     19  C   UNL     1      -0.760  42.195  14.973  0.00  0.00    +0.000 C 
ATOM     20  C   UNL     1      -5.991  40.679  14.388  0.00  0.00    +0.000 C 
ATOM     21  C   UNL     1      -6.174  43.855  14.181  0.00  0.00    +0.000 C 
ATOM     22  C   UNL     1      -8.540  40.692  12.609  0.00  0.00    +0.000 C 
ATOM     23  C   UNL     1     -10.768  41.538  13.723  0.00  0.00    +0.000 C 
ATOM     24  C   UNL     1      -9.516  40.684  11.454  0.00  0.00    +0.000 C 
ATOM     25  C   UNL     1      -1.362  45.564  15.843  0.00  0.00    +0.000 C 
ATOM     26  C   UNL     1      -0.496  44.374  17.906  0.00  0.00    +0.000 C 
ATOM     27  C   UNL     1     -10.703  41.197  12.213  0.00  0.00    +0.000 C 
ATOM     28  C   UNL     1      -9.747  39.258  10.921  0.00  0.00    +0.000 C 
ATOM     29  C   UNL     1      -9.078  41.662  10.348  0.00  0.00    +0.000 C 
ENDROOT
BRANCH  17  30
ATOM     30  O   UNL     1       1.053  43.706  15.405  0.00  0.00    +0.000 OA
ATOM     31  H   UNL     1       1.382  43.321  14.566  0.00  0.00    +0.000 HD
ENDBRANCH  17  30
BRANCH  19  32
ATOM     32  O   UNL     1       0.092  41.367  14.307  0.00  0.00    +0.000 OA
ATOM     33  H   UNL     1      -0.072  41.394  13.344  0.00  0.00    +0.000 HD
ENDBRANCH  19  32
BRANCH  14  35
ATOM     34  O   UNL     1      -9.301  39.554  16.346  0.00  0.00    +0.000 OA
ATOM     35  C   UNL     1     -10.100  40.273  15.762  0.00  0.00    +0.000 C 
BRANCH  35  36
ATOM     36  O   UNL     1     -11.424  40.027  15.883  0.00  0.00    +0.000 OA
ATOM     37  H   UNL     1     -11.633  40.208  16.825  0.00  0.00    +0.000 HD
ENDBRANCH  35  36
ENDBRANCH  14  35
TORSDOF 4
ENDMDL
MODEL 9
REMARK VINA RESULT:      -7.2     19.044     21.768
REMARK  Name = 73659_MaslinicAcid.pdbqt.pdb
REMARK  4 active torsions:
REMARK  status: ('A' for Active; 'I' for Inactive)
REMARK    1  A    between atoms: C_14  and  C_35
REMARK    2  A    between atoms: C_17  and  O_30
REMARK    3  A    between atoms: C_19  and  O_32
REMARK    4  A    between atoms: C_35  and  O_36
REMARK                            x       y       z     vdW  Elec       q    Type
REMARK                         _______ _______ _______ _____ _____    ______ ____
ROOT
ATOM      1  C   UNL     1      21.897  38.522  -1.693  0.00  0.00    +0.000 C 
ATOM      2  C   UNL     1      20.608  37.884  -1.019  0.00  0.00    +0.000 C 
ATOM      3  C   UNL     1      20.630  36.569  -0.234  0.00  0.00    +0.000 C 
ATOM      4  C   UNL     1      21.569  39.177  -3.177  0.00  0.00    +0.000 C 
ATOM      5  C   UNL     1      21.633  35.499  -0.681  0.00  0.00    +0.000 C 
ATOM      6  C   UNL     1      22.861  37.421  -1.795  0.00  0.00    +0.000 C 
ATOM      7  C   UNL     1      22.787  36.001  -1.341  0.00  0.00    +0.000 C 
ATOM      8  C   UNL     1      20.260  40.139  -3.145  0.00  0.00    +0.000 C 
ATOM      9  C   UNL     1      21.286  34.024  -0.540  0.00  0.00    +0.000 C 
ATOM     10  C   UNL     1      20.158  41.450  -3.824  0.00  0.00    +0.000 C 
ATOM     11  C   UNL     1      19.424  38.637  -1.297  0.00  0.00    +0.000 C 
ATOM     12  C   UNL     1      19.340  35.907  -0.342  0.00  0.00    +0.000 C 
ATOM     13  C   UNL     1      22.637  40.061  -3.678  0.00  0.00    +0.000 C 
ATOM     14  C   UNL     1      21.459  42.430  -4.093  0.00  0.00    +0.000 C 
ATOM     15  C   UNL     1      22.438  39.617  -0.685  0.00  0.00    +0.000 C 
ATOM     16  C   UNL     1      22.593  41.506  -4.118  0.00  0.00    +0.000 C 
ATOM     17  C   UNL     1      19.800  33.625  -0.348  0.00  0.00    +0.000 C 
ATOM     18  C   UNL     1      20.935  36.911   1.243  0.00  0.00    +0.000 C 
ATOM     19  C   UNL     1      18.792  34.630  -0.400  0.00  0.00    +0.000 C 
ATOM     20  C   UNL     1      19.336  39.730  -2.323  0.00  0.00    +0.000 C 
ATOM     21  C   UNL     1      21.240  38.063  -4.262  0.00  0.00    +0.000 C 
ATOM     22  C   UNL     1      19.036  41.666  -4.736  0.00  0.00    +0.000 C 
ATOM     23  C   UNL     1      21.142  43.104  -5.380  0.00  0.00    +0.000 C 
ATOM     24  C   UNL     1      18.585  42.377  -5.992  0.00  0.00    +0.000 C 
ATOM     25  C   UNL     1      21.714  33.285  -1.856  0.00  0.00    +0.000 C 
ATOM     26  C   UNL     1      22.087  33.419   0.647  0.00  0.00    +0.000 C 
ATOM     27  C   UNL     1      19.859  43.121  -6.250  0.00  0.00    +0.000 C 
ATOM     28  C   UNL     1      17.410  43.330  -5.709  0.00  0.00    +0.000 C 
ATOM     29  C   UNL     1      18.270  41.373  -7.117  0.00  0.00    +0.000 C 
ENDROOT
BRANCH  17  30
ATOM     30  O   UNL     1      19.377  32.322  -0.100  0.00  0.00    +0.000 OA
ATOM     31  H   UNL     1      18.476  32.169  -0.454  0.00  0.00    +0.000 HD
ENDBRANCH  17  30
BRANCH  19  32
ATOM     32  O   UNL     1      17.506  34.346  -0.054  0.00  0.00    +0.000 OA
ATOM     33  H   UNL     1      17.443  34.097   0.889  0.00  0.00    +0.000 HD
ENDBRANCH  19  32
BRANCH  14  35
ATOM     34  O   UNL     1      21.148  44.606  -2.978  0.00  0.00    +0.000 OA
ATOM     35  C   UNL     1      21.523  43.441  -2.942  0.00  0.00    +0.000 C 
BRANCH  35  36
ATOM     36  O   UNL     1      22.120  42.972  -1.823  0.00  0.00    +0.000 OA
ATOM     37  H   UNL     1      23.084  43.031  -2.004  0.00  0.00    +0.000 HD
ENDBRANCH  35  36
ENDBRANCH  14  35
TORSDOF 4
ENDMDL
