MODEL 1
REMARK VINA RESULT:      -5.0      0.000      0.000
REMARK  Name = 76617_Cardol.pdbqt.pdb
REMARK  10 active torsions:
REMARK  status: ('A' for Active; 'I' for Inactive)
REMARK    1  A    between atoms: C_1  and  C_2
REMARK    2  A    between atoms: C_3  and  C_4
REMARK    3  A    between atoms: C_5  and  C_6
REMARK    4  A    between atoms: C_7  and  C_8
REMARK    5  A    between atoms: C_8  and  C_9
REMARK    6  A    between atoms: C_10  and  C_11
REMARK    7  A    between atoms: C_14  and  C_15
REMARK    8  A    between atoms: C_15  and  C_16
REMARK    9  A    between atoms: C_19  and  O_24
REMARK   10  A    between atoms: C_20  and  O_22
REMARK                            x       y       z     vdW  Elec       q    Type
REMARK                         _______ _______ _______ _____ _____    ______ ____
ROOT
ATOM      1  C   UNL     1     -14.008  39.448  14.104  0.00  0.00    +0.000 C 
ATOM      2  C   UNL     1     -15.017  39.194  13.507  0.00  0.00    +0.000 C 
ENDROOT
BRANCH   1   3
ATOM      3  C   UNL     1     -12.720  39.772  14.866  0.00  0.00    +0.000 C 
ATOM      4  C   UNL     1     -11.431  40.098  15.627  0.00  0.00    +0.000 C 
BRANCH   4   5
ATOM      5  C   UNL     1     -10.144  40.424  16.390  0.00  0.00    +0.000 C 
ATOM      6  C   UNL     1      -8.856  40.750  17.151  0.00  0.00    +0.000 C 
BRANCH   6   7
ATOM      7  C   UNL     1      -7.567  41.076  17.913  0.00  0.00    +0.000 C 
ATOM      8  C   UNL     1      -6.279  41.402  18.674  0.00  0.00    +0.000 C 
BRANCH   8   9
ATOM      9  C   UNL     1      -4.991  41.727  19.435  0.00  0.00    +0.000 C 
BRANCH   9  10
ATOM     10  C   UNL     1      -3.701  42.051  20.196  0.00  0.00    +0.000 C 
ATOM     11  C   UNL     1      -2.411  42.375  20.955  0.00  0.00    +0.000 C 
BRANCH  11  12
ATOM     12  C   UNL     1      -1.121  42.699  21.716  0.00  0.00    +0.000 C 
ATOM     13  C   UNL     1       0.169  43.023  22.475  0.00  0.00    +0.000 C 
ATOM     14  C   UNL     1       1.459  43.346  23.235  0.00  0.00    +0.000 C 
ENDBRANCH  11  12
ENDBRANCH   9  10
ENDBRANCH   8   9
ENDBRANCH   6   7
ENDBRANCH   4   5
ENDBRANCH   1   3
BRANCH   2  15
ATOM     15  C   UNL     1     -16.306  38.869  12.744  0.00  0.00    +0.000 C 
BRANCH  15  16
ATOM     16  C   UNL     1     -17.504  38.565  12.036  0.00  0.00    +0.000 A 
ATOM     17  C   UNL     1     -18.396  39.585  11.711  0.00  0.00    +0.000 A 
ATOM     18  C   UNL     1     -17.777  37.249  11.669  0.00  0.00    +0.000 A 
ATOM     19  C   UNL     1     -18.951  36.962  10.976  0.00  0.00    +0.000 A 
ATOM     20  C   UNL     1     -19.564  39.278  11.018  0.00  0.00    +0.000 A 
ATOM     21  C   UNL     1     -19.852  37.969  10.645  0.00  0.00    +0.000 A 
BRANCH  20  22
ATOM     22  O   UNL     1     -20.454  40.259  10.688  0.00  0.00    +0.000 OA
ATOM     23  H   UNL     1     -21.167  40.263  11.351  0.00  0.00    +0.000 HD
ENDBRANCH  20  22
BRANCH  19  24
ATOM     24  O   UNL     1     -19.243  35.681  10.605  0.00  0.00    +0.000 OA
ATOM     25  H   UNL     1     -18.758  35.481   9.786  0.00  0.00    +0.000 HD
ENDBRANCH  19  24
ENDBRANCH  15  16
ENDBRANCH   2  15
TORSDOF 10
ENDMDL
MODEL 2
REMARK VINA RESULT:      -4.6      9.323     19.994
REMARK  Name = 76617_Cardol.pdbqt.pdb
REMARK  10 active torsions:
REMARK  status: ('A' for Active; 'I' for Inactive)
REMARK    1  A    between atoms: C_1  and  C_2
REMARK    2  A    between atoms: C_3  and  C_4
REMARK    3  A    between atoms: C_5  and  C_6
REMARK    4  A    between atoms: C_7  and  C_8
REMARK    5  A    between atoms: C_8  and  C_9
REMARK    6  A    between atoms: C_10  and  C_11
REMARK    7  A    between atoms: C_14  and  C_15
REMARK    8  A    between atoms: C_15  and  C_16
REMARK    9  A    between atoms: C_19  and  O_24
REMARK   10  A    between atoms: C_20  and  O_22
REMARK                            x       y       z     vdW  Elec       q    Type
REMARK                         _______ _______ _______ _____ _____    ______ ____
ROOT
ATOM      1  C   UNL     1       0.220  42.925  22.358  0.00  0.00    +0.000 C 
ATOM      2  C   UNL     1       1.244  43.169  22.935  0.00  0.00    +0.000 C 
ENDROOT
BRANCH   1   3
ATOM      3  C   UNL     1      -1.086  42.614  21.622  0.00  0.00    +0.000 C 
ATOM      4  C   UNL     1      -2.393  42.304  20.884  0.00  0.00    +0.000 C 
BRANCH   4   5
ATOM      5  C   UNL     1      -3.698  41.992  20.147  0.00  0.00    +0.000 C 
ATOM      6  C   UNL     1      -5.003  41.679  19.410  0.00  0.00    +0.000 C 
BRANCH   6   7
ATOM      7  C   UNL     1      -6.309  41.366  18.672  0.00  0.00    +0.000 C 
ATOM      8  C   UNL     1      -7.614  41.053  17.935  0.00  0.00    +0.000 C 
BRANCH   8   9
ATOM      9  C   UNL     1      -8.920  40.741  17.198  0.00  0.00    +0.000 C 
BRANCH   9  10
ATOM     10  C   UNL     1     -10.225  40.427  16.460  0.00  0.00    +0.000 C 
ATOM     11  C   UNL     1     -11.529  40.113  15.722  0.00  0.00    +0.000 C 
BRANCH  11  12
ATOM     12  C   UNL     1     -12.835  39.799  14.984  0.00  0.00    +0.000 C 
ATOM     13  C   UNL     1     -14.140  39.486  14.246  0.00  0.00    +0.000 C 
ATOM     14  C   UNL     1     -15.445  39.173  13.508  0.00  0.00    +0.000 C 
ENDBRANCH  11  12
ENDBRANCH   9  10
ENDBRANCH   8   9
ENDBRANCH   6   7
ENDBRANCH   4   5
ENDBRANCH   1   3
BRANCH   2  15
ATOM     15  C   UNL     1       2.551  43.479  23.671  0.00  0.00    +0.000 C 
BRANCH  15  16
ATOM     16  C   UNL     1       3.767  43.766  24.356  0.00  0.00    +0.000 A 
ATOM     17  C   UNL     1       4.466  44.937  24.068  0.00  0.00    +0.000 A 
ATOM     18  C   UNL     1       4.251  42.875  25.311  0.00  0.00    +0.000 A 
ATOM     19  C   UNL     1       5.440  43.164  25.976  0.00  0.00    +0.000 A 
ATOM     20  C   UNL     1       5.653  45.208  24.744  0.00  0.00    +0.000 A 
ATOM     21  C   UNL     1       6.150  44.329  25.700  0.00  0.00    +0.000 A 
BRANCH  20  22
ATOM     22  O   UNL     1       6.356  46.348  24.480  0.00  0.00    +0.000 OA
ATOM     23  H   UNL     1       6.739  46.274  23.589  0.00  0.00    +0.000 HD
ENDBRANCH  20  22
BRANCH  19  24
ATOM     24  O   UNL     1       5.938  42.307  26.916  0.00  0.00    +0.000 OA
ATOM     25  H   UNL     1       6.887  42.491  27.026  0.00  0.00    +0.000 HD
ENDBRANCH  19  24
ENDBRANCH  15  16
ENDBRANCH   2  15
TORSDOF 10
ENDMDL
MODEL 3
REMARK VINA RESULT:      -4.3     32.544     34.670
REMARK  Name = 76617_Cardol.pdbqt.pdb
REMARK  10 active torsions:
REMARK  status: ('A' for Active; 'I' for Inactive)
REMARK    1  A    between atoms: C_1  and  C_2
REMARK    2  A    between atoms: C_3  and  C_4
REMARK    3  A    between atoms: C_5  and  C_6
REMARK    4  A    between atoms: C_7  and  C_8
REMARK    5  A    between atoms: C_8  and  C_9
REMARK    6  A    between atoms: C_10  and  C_11
REMARK    7  A    between atoms: C_14  and  C_15
REMARK    8  A    between atoms: C_15  and  C_16
REMARK    9  A    between atoms: C_19  and  O_24
REMARK   10  A    between atoms: C_20  and  O_22
REMARK                            x       y       z     vdW  Elec       q    Type
REMARK                         _______ _______ _______ _____ _____    ______ ____
ROOT
ATOM      1  C   UNL     1       3.273  58.804  -6.280  0.00  0.00    +0.000 C 
ATOM      2  C   UNL     1       4.268  58.235  -6.636  0.00  0.00    +0.000 C 
ENDROOT
BRANCH   1   3
ATOM      3  C   UNL     1       2.003  59.529  -5.826  0.00  0.00    +0.000 C 
ATOM      4  C   UNL     1       0.732  60.253  -5.371  0.00  0.00    +0.000 C 
BRANCH   4   5
ATOM      5  C   UNL     1      -0.538  60.976  -4.914  0.00  0.00    +0.000 C 
ATOM      6  C   UNL     1      -1.808  61.701  -4.458  0.00  0.00    +0.000 C 
BRANCH   6   7
ATOM      7  C   UNL     1      -3.079  62.426  -4.002  0.00  0.00    +0.000 C 
ATOM      8  C   UNL     1      -4.349  63.150  -3.546  0.00  0.00    +0.000 C 
BRANCH   8   9
ATOM      9  C   UNL     1      -5.618  63.873  -3.090  0.00  0.00    +0.000 C 
BRANCH   9  10
ATOM     10  C   UNL     1      -6.890  64.596  -2.634  0.00  0.00    +0.000 C 
ATOM     11  C   UNL     1      -8.160  65.320  -2.177  0.00  0.00    +0.000 C 
BRANCH  11  12
ATOM     12  C   UNL     1      -9.431  66.043  -1.720  0.00  0.00    +0.000 C 
ATOM     13  C   UNL     1     -10.700  66.767  -1.263  0.00  0.00    +0.000 C 
ATOM     14  C   UNL     1     -11.971  67.490  -0.806  0.00  0.00    +0.000 C 
ENDBRANCH  11  12
ENDBRANCH   9  10
ENDBRANCH   8   9
ENDBRANCH   6   7
ENDBRANCH   4   5
ENDBRANCH   1   3
BRANCH   2  15
ATOM     15  C   UNL     1       5.539  57.510  -7.091  0.00  0.00    +0.000 C 
BRANCH  15  16
ATOM     16  C   UNL     1       6.721  56.836  -7.513  0.00  0.00    +0.000 A 
ATOM     17  C   UNL     1       7.796  56.706  -6.637  0.00  0.00    +0.000 A 
ATOM     18  C   UNL     1       6.796  56.310  -8.801  0.00  0.00    +0.000 A 
ATOM     19  C   UNL     1       7.955  55.652  -9.205  0.00  0.00    +0.000 A 
ATOM     20  C   UNL     1       8.946  56.044  -7.059  0.00  0.00    +0.000 A 
ATOM     21  C   UNL     1       9.038  55.514  -8.341  0.00  0.00    +0.000 A 
BRANCH  20  22
ATOM     22  O   UNL     1      10.013  55.903  -6.219  0.00  0.00    +0.000 OA
ATOM     23  H   UNL     1      10.297  56.788  -5.931  0.00  0.00    +0.000 HD
ENDBRANCH  20  22
BRANCH  19  24
ATOM     24  O   UNL     1       8.055  55.128 -10.462  0.00  0.00    +0.000 OA
ATOM     25  H   UNL     1       7.157  54.948 -10.791  0.00  0.00    +0.000 HD
ENDBRANCH  19  24
ENDBRANCH  15  16
ENDBRANCH   2  15
TORSDOF 10
ENDMDL
MODEL 4
REMARK VINA RESULT:      -4.3      7.707     17.452
REMARK  Name = 76617_Cardol.pdbqt.pdb
REMARK  10 active torsions:
REMARK  status: ('A' for Active; 'I' for Inactive)
REMARK    1  A    between atoms: C_1  and  C_2
REMARK    2  A    between atoms: C_3  and  C_4
REMARK    3  A    between atoms: C_5  and  C_6
REMARK    4  A    between atoms: C_7  and  C_8
REMARK    5  A    between atoms: C_8  and  C_9
REMARK    6  A    between atoms: C_10  and  C_11
REMARK    7  A    between atoms: C_14  and  C_15
REMARK    8  A    between atoms: C_15  and  C_16
REMARK    9  A    between atoms: C_19  and  O_24
REMARK   10  A    between atoms: C_20  and  O_22
REMARK                            x       y       z     vdW  Elec       q    Type
REMARK                         _______ _______ _______ _____ _____    ______ ____
ROOT
ATOM      1  C   UNL     1      -7.164  40.473  13.073  0.00  0.00    +0.000 C 
ATOM      2  C   UNL     1      -6.235  40.743  13.782  0.00  0.00    +0.000 C 
ENDROOT
BRANCH   1   3
ATOM      3  C   UNL     1      -8.349  40.128  12.167  0.00  0.00    +0.000 C 
ATOM      4  C   UNL     1      -9.535  39.782  11.260  0.00  0.00    +0.000 C 
BRANCH   4   5
ATOM      5  C   UNL     1     -10.719  39.435  10.354  0.00  0.00    +0.000 C 
ATOM      6  C   UNL     1     -11.904  39.087   9.448  0.00  0.00    +0.000 C 
BRANCH   6   7
ATOM      7  C   UNL     1     -13.089  38.738   8.542  0.00  0.00    +0.000 C 
ATOM      8  C   UNL     1     -14.274  38.389   7.637  0.00  0.00    +0.000 C 
BRANCH   8   9
ATOM      9  C   UNL     1     -15.458  38.040   6.731  0.00  0.00    +0.000 C 
BRANCH   9  10
ATOM     10  C   UNL     1     -16.643  37.692   5.824  0.00  0.00    +0.000 C 
ATOM     11  C   UNL     1     -17.828  37.344   4.919  0.00  0.00    +0.000 C 
BRANCH  11  12
ATOM     12  C   UNL     1     -19.013  36.995   4.013  0.00  0.00    +0.000 C 
ATOM     13  C   UNL     1     -20.198  36.645   3.108  0.00  0.00    +0.000 C 
ATOM     14  C   UNL     1     -21.383  36.296   2.201  0.00  0.00    +0.000 C 
ENDBRANCH  11  12
ENDBRANCH   9  10
ENDBRANCH   8   9
ENDBRANCH   6   7
ENDBRANCH   4   5
ENDBRANCH   1   3
BRANCH   2  15
ATOM     15  C   UNL     1      -5.049  41.089  14.690  0.00  0.00    +0.000 C 
BRANCH  15  16
ATOM     16  C   UNL     1      -3.948  41.411  15.533  0.00  0.00    +0.000 A 
ATOM     17  C   UNL     1      -4.017  41.142  16.899  0.00  0.00    +0.000 A 
ATOM     18  C   UNL     1      -2.805  41.993  14.988  0.00  0.00    +0.000 A 
ATOM     19  C   UNL     1      -1.732  42.304  15.821  0.00  0.00    +0.000 A 
ATOM     20  C   UNL     1      -2.934  41.461  17.714  0.00  0.00    +0.000 A 
ATOM     21  C   UNL     1      -1.787  42.043  17.187  0.00  0.00    +0.000 A 
BRANCH  20  22
ATOM     22  O   UNL     1      -2.978  41.207  19.055  0.00  0.00    +0.000 OA
ATOM     23  H   UNL     1      -3.818  40.760  19.256  0.00  0.00    +0.000 HD
ENDBRANCH  20  22
BRANCH  19  24
ATOM     24  O   UNL     1      -0.601  42.876  15.314  0.00  0.00    +0.000 OA
ATOM     25  H   UNL     1      -0.861  43.647  14.779  0.00  0.00    +0.000 HD
ENDBRANCH  19  24
ENDBRANCH  15  16
ENDBRANCH   2  15
TORSDOF 10
ENDMDL
MODEL 5
REMARK VINA RESULT:      -4.2     37.371     38.105
REMARK  Name = 76617_Cardol.pdbqt.pdb
REMARK  10 active torsions:
REMARK  status: ('A' for Active; 'I' for Inactive)
REMARK    1  A    between atoms: C_1  and  C_2
REMARK    2  A    between atoms: C_3  and  C_4
REMARK    3  A    between atoms: C_5  and  C_6
REMARK    4  A    between atoms: C_7  and  C_8
REMARK    5  A    between atoms: C_8  and  C_9
REMARK    6  A    between atoms: C_10  and  C_11
REMARK    7  A    between atoms: C_14  and  C_15
REMARK    8  A    between atoms: C_15  and  C_16
REMARK    9  A    between atoms: C_19  and  O_24
REMARK   10  A    between atoms: C_20  and  O_22
REMARK                            x       y       z     vdW  Elec       q    Type
REMARK                         _______ _______ _______ _____ _____    ______ ____
ROOT
ATOM      1  C   UNL     1      16.027  35.182  -9.943  0.00  0.00    +0.000 C 
ATOM      2  C   UNL     1      15.470  34.303 -10.540  0.00  0.00    +0.000 C 
ENDROOT
BRANCH   1   3
ATOM      3  C   UNL     1      16.739  36.303  -9.182  0.00  0.00    +0.000 C 
ATOM      4  C   UNL     1      17.451  37.426  -8.420  0.00  0.00    +0.000 C 
BRANCH   4   5
ATOM      5  C   UNL     1      18.162  38.548  -7.658  0.00  0.00    +0.000 C 
ATOM      6  C   UNL     1      18.873  39.669  -6.894  0.00  0.00    +0.000 C 
BRANCH   6   7
ATOM      7  C   UNL     1      19.584  40.791  -6.130  0.00  0.00    +0.000 C 
ATOM      8  C   UNL     1      20.294  41.912  -5.367  0.00  0.00    +0.000 C 
BRANCH   8   9
ATOM      9  C   UNL     1      21.004  43.034  -4.604  0.00  0.00    +0.000 C 
BRANCH   9  10
ATOM     10  C   UNL     1      21.715  44.155  -3.840  0.00  0.00    +0.000 C 
ATOM     11  C   UNL     1      22.426  45.276  -3.076  0.00  0.00    +0.000 C 
BRANCH  11  12
ATOM     12  C   UNL     1      23.136  46.398  -2.312  0.00  0.00    +0.000 C 
ATOM     13  C   UNL     1      23.846  47.519  -1.548  0.00  0.00    +0.000 C 
ATOM     14  C   UNL     1      24.557  48.641  -0.784  0.00  0.00    +0.000 C 
ENDBRANCH  11  12
ENDBRANCH   9  10
ENDBRANCH   8   9
ENDBRANCH   6   7
ENDBRANCH   4   5
ENDBRANCH   1   3
BRANCH   2  15
ATOM     15  C   UNL     1      14.756  33.181 -11.302  0.00  0.00    +0.000 C 
BRANCH  15  16
ATOM     16  C   UNL     1      14.093  32.138 -12.010  0.00  0.00    +0.000 A 
ATOM     17  C   UNL     1      14.680  31.590 -13.149  0.00  0.00    +0.000 A 
ATOM     18  C   UNL     1      12.859  31.670 -11.560  0.00  0.00    +0.000 A 
ATOM     19  C   UNL     1      12.219  30.651 -12.259  0.00  0.00    +0.000 A 
ATOM     20  C   UNL     1      14.023  30.570 -13.833  0.00  0.00    +0.000 A 
ATOM     21  C   UNL     1      12.791  30.093 -13.398  0.00  0.00    +0.000 A 
BRANCH  20  22
ATOM     22  O   UNL     1      14.577  30.017 -14.952  0.00  0.00    +0.000 OA
ATOM     23  H   UNL     1      14.628  30.702 -15.641  0.00  0.00    +0.000 HD
ENDBRANCH  20  22
BRANCH  19  24
ATOM     24  O   UNL     1      11.009  30.175 -11.840  0.00  0.00    +0.000 OA
ATOM     25  H   UNL     1      10.437  30.064 -12.620  0.00  0.00    +0.000 HD
ENDBRANCH  19  24
ENDBRANCH  15  16
ENDBRANCH   2  15
TORSDOF 10
ENDMDL
MODEL 6
REMARK VINA RESULT:      -4.1     31.774     33.450
REMARK  Name = 76617_Cardol.pdbqt.pdb
REMARK  10 active torsions:
REMARK  status: ('A' for Active; 'I' for Inactive)
REMARK    1  A    between atoms: C_1  and  C_2
REMARK    2  A    between atoms: C_3  and  C_4
REMARK    3  A    between atoms: C_5  and  C_6
REMARK    4  A    between atoms: C_7  and  C_8
REMARK    5  A    between atoms: C_8  and  C_9
REMARK    6  A    between atoms: C_10  and  C_11
REMARK    7  A    between atoms: C_14  and  C_15
REMARK    8  A    between atoms: C_15  and  C_16
REMARK    9  A    between atoms: C_19  and  O_24
REMARK   10  A    between atoms: C_20  and  O_22
REMARK                            x       y       z     vdW  Elec       q    Type
REMARK                         _______ _______ _______ _____ _____    ______ ____
ROOT
ATOM      1  C   UNL     1      17.762  49.596   3.990  0.00  0.00    +0.000 C 
ATOM      2  C   UNL     1      17.644  50.417   3.123  0.00  0.00    +0.000 C 
ENDROOT
BRANCH   1   3
ATOM      3  C   UNL     1      17.914  48.547   5.095  0.00  0.00    +0.000 C 
ATOM      4  C   UNL     1      18.065  47.499   6.203  0.00  0.00    +0.000 C 
BRANCH   4   5
ATOM      5  C   UNL     1      18.215  46.450   7.308  0.00  0.00    +0.000 C 
ATOM      6  C   UNL     1      18.366  45.403   8.415  0.00  0.00    +0.000 C 
BRANCH   6   7
ATOM      7  C   UNL     1      18.517  44.354   9.522  0.00  0.00    +0.000 C 
ATOM      8  C   UNL     1      18.667  43.307  10.629  0.00  0.00    +0.000 C 
BRANCH   8   9
ATOM      9  C   UNL     1      18.817  42.260  11.736  0.00  0.00    +0.000 C 
BRANCH   9  10
ATOM     10  C   UNL     1      18.969  41.212  12.844  0.00  0.00    +0.000 C 
ATOM     11  C   UNL     1      19.121  40.164  13.950  0.00  0.00    +0.000 C 
BRANCH  11  12
ATOM     12  C   UNL     1      19.272  39.115  15.057  0.00  0.00    +0.000 C 
ATOM     13  C   UNL     1      19.423  38.067  16.162  0.00  0.00    +0.000 C 
ATOM     14  C   UNL     1      19.574  37.019  17.269  0.00  0.00    +0.000 C 
ENDBRANCH  11  12
ENDBRANCH   9  10
ENDBRANCH   8   9
ENDBRANCH   6   7
ENDBRANCH   4   5
ENDBRANCH   1   3
BRANCH   2  15
ATOM     15  C   UNL     1      17.490  51.466   2.017  0.00  0.00    +0.000 C 
BRANCH  15  16
ATOM     16  C   UNL     1      17.347  52.442   0.989  0.00  0.00    +0.000 A 
ATOM     17  C   UNL     1      16.087  52.958   0.692  0.00  0.00    +0.000 A 
ATOM     18  C   UNL     1      18.469  52.877   0.286  0.00  0.00    +0.000 A 
ATOM     19  C   UNL     1      18.319  53.832  -0.717  0.00  0.00    +0.000 A 
ATOM     20  C   UNL     1      15.959  53.912  -0.315  0.00  0.00    +0.000 A 
ATOM     21  C   UNL     1      17.068  54.356  -1.026  0.00  0.00    +0.000 A 
BRANCH  20  22
ATOM     22  O   UNL     1      14.736  54.432  -0.624  0.00  0.00    +0.000 OA
ATOM     23  H   UNL     1      14.802  54.884  -1.483  0.00  0.00    +0.000 HD
ENDBRANCH  20  22
BRANCH  19  24
ATOM     24  O   UNL     1      19.402  54.275  -1.422  0.00  0.00    +0.000 OA
ATOM     25  H   UNL     1      19.985  54.761  -0.813  0.00  0.00    +0.000 HD
ENDBRANCH  19  24
ENDBRANCH  15  16
ENDBRANCH   2  15
TORSDOF 10
ENDMDL
MODEL 7
REMARK VINA RESULT:      -4.1      3.503      3.506
REMARK  Name = 76617_Cardol.pdbqt.pdb
REMARK  10 active torsions:
REMARK  status: ('A' for Active; 'I' for Inactive)
REMARK    1  A    between atoms: C_1  and  C_2
REMARK    2  A    between atoms: C_3  and  C_4
REMARK    3  A    between atoms: C_5  and  C_6
REMARK    4  A    between atoms: C_7  and  C_8
REMARK    5  A    between atoms: C_8  and  C_9
REMARK    6  A    between atoms: C_10  and  C_11
REMARK    7  A    between atoms: C_14  and  C_15
REMARK    8  A    between atoms: C_15  and  C_16
REMARK    9  A    between atoms: C_19  and  O_24
REMARK   10  A    between atoms: C_20  and  O_22
REMARK                            x       y       z     vdW  Elec       q    Type
REMARK                         _______ _______ _______ _____ _____    ______ ____
ROOT
ATOM      1  C   UNL     1     -14.060  39.184  12.356  0.00  0.00    +0.000 C 
ATOM      2  C   UNL     1     -15.186  38.880  12.077  0.00  0.00    +0.000 C 
ENDROOT
BRANCH   1   3
ATOM      3  C   UNL     1     -12.622  39.572  12.713  0.00  0.00    +0.000 C 
ATOM      4  C   UNL     1     -11.183  39.961  13.068  0.00  0.00    +0.000 C 
BRANCH   4   5
ATOM      5  C   UNL     1      -9.745  40.351  13.423  0.00  0.00    +0.000 C 
ATOM      6  C   UNL     1      -8.307  40.740  13.777  0.00  0.00    +0.000 C 
BRANCH   6   7
ATOM      7  C   UNL     1      -6.868  41.130  14.131  0.00  0.00    +0.000 C 
ATOM      8  C   UNL     1      -5.430  41.519  14.484  0.00  0.00    +0.000 C 
BRANCH   8   9
ATOM      9  C   UNL     1      -3.992  41.908  14.838  0.00  0.00    +0.000 C 
BRANCH   9  10
ATOM     10  C   UNL     1      -2.553  42.298  15.190  0.00  0.00    +0.000 C 
ATOM     11  C   UNL     1      -1.114  42.689  15.541  0.00  0.00    +0.000 C 
BRANCH  11  12
ATOM     12  C   UNL     1       0.325  43.079  15.893  0.00  0.00    +0.000 C 
ATOM     13  C   UNL     1       1.763  43.469  16.244  0.00  0.00    +0.000 C 
ATOM     14  C   UNL     1       3.203  43.859  16.595  0.00  0.00    +0.000 C 
ENDBRANCH  11  12
ENDBRANCH   9  10
ENDBRANCH   8   9
ENDBRANCH   6   7
ENDBRANCH   4   5
ENDBRANCH   1   3
BRANCH   2  15
ATOM     15  C   UNL     1     -16.625  38.491  11.721  0.00  0.00    +0.000 C 
BRANCH  15  16
ATOM     16  C   UNL     1     -17.962  38.128  11.390  0.00  0.00    +0.000 A 
ATOM     17  C   UNL     1     -18.932  39.117  11.239  0.00  0.00    +0.000 A 
ATOM     18  C   UNL     1     -18.294  36.786  11.218  0.00  0.00    +0.000 A 
ATOM     19  C   UNL     1     -19.604  36.441  10.895  0.00  0.00    +0.000 A 
ATOM     20  C   UNL     1     -20.236  38.752  10.915  0.00  0.00    +0.000 A 
ATOM     21  C   UNL     1     -20.584  37.417  10.741  0.00  0.00    +0.000 A 
BRANCH  20  22
ATOM     22  O   UNL     1     -21.204  39.702  10.761  0.00  0.00    +0.000 OA
ATOM     23  H   UNL     1     -20.791  40.579  10.845  0.00  0.00    +0.000 HD
ENDBRANCH  20  22
BRANCH  19  24
ATOM     24  O   UNL     1     -19.956  35.133  10.722  0.00  0.00    +0.000 OA
ATOM     25  H   UNL     1     -19.162  34.635  10.459  0.00  0.00    +0.000 HD
ENDBRANCH  19  24
ENDBRANCH  15  16
ENDBRANCH   2  15
TORSDOF 10
ENDMDL
MODEL 8
REMARK VINA RESULT:      -4.1      5.148      7.739
REMARK  Name = 76617_Cardol.pdbqt.pdb
REMARK  10 active torsions:
REMARK  status: ('A' for Active; 'I' for Inactive)
REMARK    1  A    between atoms: C_1  and  C_2
REMARK    2  A    between atoms: C_3  and  C_4
REMARK    3  A    between atoms: C_5  and  C_6
REMARK    4  A    between atoms: C_7  and  C_8
REMARK    5  A    between atoms: C_8  and  C_9
REMARK    6  A    between atoms: C_10  and  C_11
REMARK    7  A    between atoms: C_14  and  C_15
REMARK    8  A    between atoms: C_15  and  C_16
REMARK    9  A    between atoms: C_19  and  O_24
REMARK   10  A    between atoms: C_20  and  O_22
REMARK                            x       y       z     vdW  Elec       q    Type
REMARK                         _______ _______ _______ _____ _____    ______ ____
ROOT
ATOM      1  C   UNL     1      -6.953  41.402  13.931  0.00  0.00    +0.000 C 
ATOM      2  C   UNL     1      -7.948  40.947  13.439  0.00  0.00    +0.000 C 
ENDROOT
BRANCH   1   3
ATOM      3  C   UNL     1      -5.682  41.981  14.559  0.00  0.00    +0.000 C 
ATOM      4  C   UNL     1      -4.412  42.561  15.189  0.00  0.00    +0.000 C 
BRANCH   4   5
ATOM      5  C   UNL     1      -3.142  43.140  15.819  0.00  0.00    +0.000 C 
ATOM      6  C   UNL     1      -1.872  43.719  16.450  0.00  0.00    +0.000 C 
BRANCH   6   7
ATOM      7  C   UNL     1      -0.602  44.299  17.081  0.00  0.00    +0.000 C 
ATOM      8  C   UNL     1       0.668  44.878  17.711  0.00  0.00    +0.000 C 
BRANCH   8   9
ATOM      9  C   UNL     1       1.937  45.458  18.341  0.00  0.00    +0.000 C 
BRANCH   9  10
ATOM     10  C   UNL     1       3.207  46.038  18.973  0.00  0.00    +0.000 C 
ATOM     11  C   UNL     1       4.475  46.617  19.606  0.00  0.00    +0.000 C 
BRANCH  11  12
ATOM     12  C   UNL     1       5.744  47.197  20.239  0.00  0.00    +0.000 C 
ATOM     13  C   UNL     1       7.013  47.777  20.870  0.00  0.00    +0.000 C 
ATOM     14  C   UNL     1       8.282  48.358  21.503  0.00  0.00    +0.000 C 
ENDBRANCH  11  12
ENDBRANCH   9  10
ENDBRANCH   8   9
ENDBRANCH   6   7
ENDBRANCH   4   5
ENDBRANCH   1   3
BRANCH   2  15
ATOM     15  C   UNL     1      -9.220  40.368  12.810  0.00  0.00    +0.000 C 
BRANCH  15  16
ATOM     16  C   UNL     1     -10.402  39.829  12.227  0.00  0.00    +0.000 A 
ATOM     17  C   UNL     1     -10.358  39.284  10.945  0.00  0.00    +0.000 A 
ATOM     18  C   UNL     1     -11.599  39.849  12.941  0.00  0.00    +0.000 A 
ATOM     19  C   UNL     1     -12.750  39.319  12.362  0.00  0.00    +0.000 A 
ATOM     20  C   UNL     1     -11.520  38.760  10.384  0.00  0.00    +0.000 A 
ATOM     21  C   UNL     1     -12.722  38.772  11.083  0.00  0.00    +0.000 A 
BRANCH  20  22
ATOM     22  O   UNL     1     -11.502  38.220   9.130  0.00  0.00    +0.000 OA
ATOM     23  H   UNL     1     -12.370  38.372   8.718  0.00  0.00    +0.000 HD
ENDBRANCH  20  22
BRANCH  19  24
ATOM     24  O   UNL     1     -13.935  39.327  13.040  0.00  0.00    +0.000 OA
ATOM     25  H   UNL     1     -13.854  39.942  13.790  0.00  0.00    +0.000 HD
ENDBRANCH  19  24
ENDBRANCH  15  16
ENDBRANCH   2  15
TORSDOF 10
ENDMDL
MODEL 9
REMARK VINA RESULT:      -3.8     21.577     26.766
REMARK  Name = 76617_Cardol.pdbqt.pdb
REMARK  10 active torsions:
REMARK  status: ('A' for Active; 'I' for Inactive)
REMARK    1  A    between atoms: C_1  and  C_2
REMARK    2  A    between atoms: C_3  and  C_4
REMARK    3  A    between atoms: C_5  and  C_6
REMARK    4  A    between atoms: C_7  and  C_8
REMARK    5  A    between atoms: C_8  and  C_9
REMARK    6  A    between atoms: C_10  and  C_11
REMARK    7  A    between atoms: C_14  and  C_15
REMARK    8  A    between atoms: C_15  and  C_16
REMARK    9  A    between atoms: C_19  and  O_24
REMARK   10  A    between atoms: C_20  and  O_22
REMARK                            x       y       z     vdW  Elec       q    Type
REMARK                         _______ _______ _______ _____ _____    ______ ____
ROOT
ATOM      1  C   UNL     1     -13.628  20.514  25.387  0.00  0.00    +0.000 C 
ATOM      2  C   UNL     1     -12.771  20.366  26.213  0.00  0.00    +0.000 C 
ENDROOT
BRANCH   1   3
ATOM      3  C   UNL     1     -14.722  20.704  24.332  0.00  0.00    +0.000 C 
ATOM      4  C   UNL     1     -15.818  20.894  23.278  0.00  0.00    +0.000 C 
BRANCH   4   5
ATOM      5  C   UNL     1     -16.911  21.085  22.223  0.00  0.00    +0.000 C 
ATOM      6  C   UNL     1     -18.004  21.277  21.168  0.00  0.00    +0.000 C 
BRANCH   6   7
ATOM      7  C   UNL     1     -19.098  21.469  20.113  0.00  0.00    +0.000 C 
ATOM      8  C   UNL     1     -20.192  21.660  19.058  0.00  0.00    +0.000 C 
BRANCH   8   9
ATOM      9  C   UNL     1     -21.285  21.850  18.003  0.00  0.00    +0.000 C 
BRANCH   9  10
ATOM     10  C   UNL     1     -22.379  22.043  16.948  0.00  0.00    +0.000 C 
ATOM     11  C   UNL     1     -23.474  22.235  15.894  0.00  0.00    +0.000 C 
BRANCH  11  12
ATOM     12  C   UNL     1     -24.568  22.427  14.840  0.00  0.00    +0.000 C 
ATOM     13  C   UNL     1     -25.663  22.619  13.786  0.00  0.00    +0.000 C 
ATOM     14  C   UNL     1     -26.758  22.810  12.732  0.00  0.00    +0.000 C 
ENDBRANCH  11  12
ENDBRANCH   9  10
ENDBRANCH   8   9
ENDBRANCH   6   7
ENDBRANCH   4   5
ENDBRANCH   1   3
BRANCH   2  15
ATOM     15  C   UNL     1     -11.675  20.177  27.268  0.00  0.00    +0.000 C 
BRANCH  15  16
ATOM     16  C   UNL     1     -10.657  20.001  28.248  0.00  0.00    +0.000 A 
ATOM     17  C   UNL     1      -9.783  21.047  28.537  0.00  0.00    +0.000 A 
ATOM     18  C   UNL     1     -10.540  18.782  28.914  0.00  0.00    +0.000 A 
ATOM     19  C   UNL     1      -9.541  18.619  29.871  0.00  0.00    +0.000 A 
ATOM     20  C   UNL     1      -8.791  20.864  29.497  0.00  0.00    +0.000 A 
ATOM     21  C   UNL     1      -8.660  19.654  30.170  0.00  0.00    +0.000 A 
BRANCH  20  22
ATOM     22  O   UNL     1      -7.923  21.873  29.798  0.00  0.00    +0.000 OA
ATOM     23  H   UNL     1      -7.016  21.525  29.748  0.00  0.00    +0.000 HD
ENDBRANCH  20  22
BRANCH  19  24
ATOM     24  O   UNL     1      -9.404  17.436  30.537  0.00  0.00    +0.000 OA
ATOM     25  H   UNL     1      -9.987  16.779  30.118  0.00  0.00    +0.000 HD
ENDBRANCH  19  24
ENDBRANCH  15  16
ENDBRANCH   2  15
TORSDOF 10
ENDMDL
