MODEL 1
REMARK VINA RESULT:      -7.1      0.000      0.000
REMARK  Name = 85668777_Hyaluronidase.pdbqt.pdb
REMARK  5 active torsions:
REMARK  status: ('A' for Active; 'I' for Inactive)
REMARK    1  A    between atoms: N_1  and  C_13
REMARK    2  A    between atoms: C_14  and  C_15
REMARK    3  A    between atoms: C_15  and  C_16
REMARK    4  A    between atoms: C_17  and  C_19
REMARK    5  A    between atoms: C_19  and  O_20
REMARK                            x       y       z     vdW  Elec       q    Type
REMARK                         _______ _______ _______ _____ _____    ______ ____
ROOT
ATOM      1  N   UNL     1       4.473  30.526  15.505  0.00  0.00    +0.000 N 
ATOM      2  C   UNL     1       2.885  32.335  15.752  0.00  0.00    +0.000 C 
ATOM      3  C   UNL     1       2.205  30.992  15.490  0.00  0.00    +0.000 A 
ATOM      4  C   UNL     1       4.402  31.900  15.742  0.00  0.00    +0.000 C 
ATOM      5  C   UNL     1       3.185  29.986  15.356  0.00  0.00    +0.000 A 
ATOM      6  C   UNL     1       2.541  33.319  14.589  0.00  0.00    +0.000 C 
ATOM      7  C   UNL     1       2.432  32.873  17.147  0.00  0.00    +0.000 C 
ATOM      8  C   UNL     1       0.854  30.693  15.380  0.00  0.00    +0.000 A 
ATOM      9  C   UNL     1       2.826  28.672  15.112  0.00  0.00    +0.000 A 
ATOM     10  C   UNL     1       5.516  32.640  15.918  0.00  0.00    +0.000 C 
ATOM     11  C   UNL     1       0.494  29.368  15.134  0.00  0.00    +0.000 A 
ATOM     12  C   UNL     1       1.469  28.370  15.002  0.00  0.00    +0.000 A 
ENDROOT
BRANCH   1  13
ATOM     13  C   UNL     1       5.682  29.742  15.421  0.00  0.00    +0.000 C 
ATOM     14  C   UNL     1       6.962  28.905  15.330  0.00  0.00    +0.000 C 
BRANCH  14  15
ATOM     15  C   UNL     1       8.241  28.067  15.239  0.00  0.00    +0.000 C 
BRANCH  15  16
ATOM     16  C   UNL     1       9.519  27.230  15.148  0.00  0.00    +0.000 C 
ATOM     17  C   UNL     1      10.799  26.393  15.057  0.00  0.00    +0.000 C 
BRANCH  17  19
ATOM     18  O   UNL     1      13.099  26.088  14.779  0.00  0.00    +0.000 OA
ATOM     19  C   UNL     1      11.994  25.609  14.974  0.00  0.00    +0.000 C 
BRANCH  19  20
ATOM     20  O   UNL     1      11.796  24.289  15.129  0.00  0.00    +0.000 OA
ATOM     21  H   UNL     1      12.025  23.916  14.254  0.00  0.00    +0.000 HD
ENDBRANCH  19  20
ENDBRANCH  17  19
ENDBRANCH  15  16
ENDBRANCH  14  15
ENDBRANCH   1  13
TORSDOF 5
ENDMDL
MODEL 2
REMARK VINA RESULT:      -6.3      4.984      7.048
REMARK  Name = 85668777_Hyaluronidase.pdbqt.pdb
REMARK  5 active torsions:
REMARK  status: ('A' for Active; 'I' for Inactive)
REMARK    1  A    between atoms: N_1  and  C_13
REMARK    2  A    between atoms: C_14  and  C_15
REMARK    3  A    between atoms: C_15  and  C_16
REMARK    4  A    between atoms: C_17  and  C_19
REMARK    5  A    between atoms: C_19  and  O_20
REMARK                            x       y       z     vdW  Elec       q    Type
REMARK                         _______ _______ _______ _____ _____    ______ ____
ROOT
ATOM      1  N   UNL     1       4.591  31.375  15.622  0.00  0.00    +0.000 N 
ATOM      2  C   UNL     1       3.716  29.144  15.279  0.00  0.00    +0.000 C 
ATOM      3  C   UNL     1       2.635  30.220  15.170  0.00  0.00    +0.000 A 
ATOM      4  C   UNL     1       4.982  30.035  15.582  0.00  0.00    +0.000 C 
ATOM      5  C   UNL     1       3.211  31.490  15.380  0.00  0.00    +0.000 A 
ATOM      6  C   UNL     1       3.366  28.185  16.460  0.00  0.00    +0.000 C 
ATOM      7  C   UNL     1       3.830  28.395  13.912  0.00  0.00    +0.000 C 
ATOM      8  C   UNL     1       1.278  30.085  14.912  0.00  0.00    +0.000 A 
ATOM      9  C   UNL     1       2.440  32.637  15.334  0.00  0.00    +0.000 A 
ATOM     10  C   UNL     1       6.265  29.673  15.786  0.00  0.00    +0.000 C 
ATOM     11  C   UNL     1       0.502  31.242  14.866  0.00  0.00    +0.000 A 
ATOM     12  C   UNL     1       1.076  32.504  15.074  0.00  0.00    +0.000 A 
ENDROOT
BRANCH   1  13
ATOM     13  C   UNL     1       5.455  32.503  15.871  0.00  0.00    +0.000 C 
ATOM     14  C   UNL     1       6.372  33.700  16.141  0.00  0.00    +0.000 C 
BRANCH  14  15
ATOM     15  C   UNL     1       7.290  34.896  16.412  0.00  0.00    +0.000 C 
BRANCH  15  16
ATOM     16  C   UNL     1       8.208  36.091  16.681  0.00  0.00    +0.000 C 
ATOM     17  C   UNL     1       9.126  37.288  16.950  0.00  0.00    +0.000 C 
BRANCH  17  19
ATOM     18  O   UNL     1      11.189  38.381  17.031  0.00  0.00    +0.000 OA
ATOM     19  C   UNL     1       9.982  38.407  17.202  0.00  0.00    +0.000 C 
BRANCH  19  20
ATOM     20  O   UNL     1       9.339  39.500  17.647  0.00  0.00    +0.000 OA
ATOM     21  H   UNL     1       9.818  40.240  17.222  0.00  0.00    +0.000 HD
ENDBRANCH  19  20
ENDBRANCH  17  19
ENDBRANCH  15  16
ENDBRANCH  14  15
ENDBRANCH   1  13
TORSDOF 5
ENDMDL
MODEL 3
REMARK VINA RESULT:      -5.8      6.479      9.478
REMARK  Name = 85668777_Hyaluronidase.pdbqt.pdb
REMARK  5 active torsions:
REMARK  status: ('A' for Active; 'I' for Inactive)
REMARK    1  A    between atoms: N_1  and  C_13
REMARK    2  A    between atoms: C_14  and  C_15
REMARK    3  A    between atoms: C_15  and  C_16
REMARK    4  A    between atoms: C_17  and  C_19
REMARK    5  A    between atoms: C_19  and  O_20
REMARK                            x       y       z     vdW  Elec       q    Type
REMARK                         _______ _______ _______ _____ _____    ______ ____
ROOT
ATOM      1  N   UNL     1       8.587  36.241  16.748  0.00  0.00    +0.000 N 
ATOM      2  C   UNL     1       9.982  38.201  16.488  0.00  0.00    +0.000 C 
ATOM      3  C   UNL     1      10.208  37.496  17.825  0.00  0.00    +0.000 A 
ATOM      4  C   UNL     1       8.877  37.271  15.852  0.00  0.00    +0.000 C 
ATOM      5  C   UNL     1       9.366  36.367  17.910  0.00  0.00    +0.000 A 
ATOM      6  C   UNL     1       9.460  39.649  16.754  0.00  0.00    +0.000 C 
ATOM      7  C   UNL     1      11.314  38.185  15.670  0.00  0.00    +0.000 C 
ATOM      8  C   UNL     1      11.071  37.823  18.861  0.00  0.00    +0.000 A 
ATOM      9  C   UNL     1       9.379  35.554  19.029  0.00  0.00    +0.000 A 
ATOM     10  C   UNL     1       8.252  37.361  14.660  0.00  0.00    +0.000 C 
ATOM     11  C   UNL     1      11.082  37.003  19.988  0.00  0.00    +0.000 A 
ATOM     12  C   UNL     1      10.246  35.881  20.071  0.00  0.00    +0.000 A 
ENDROOT
BRANCH   1  13
ATOM     13  C   UNL     1       7.630  35.181  16.539  0.00  0.00    +0.000 C 
ATOM     14  C   UNL     1       6.617  34.053  16.322  0.00  0.00    +0.000 C 
BRANCH  14  15
ATOM     15  C   UNL     1       5.605  32.924  16.105  0.00  0.00    +0.000 C 
BRANCH  15  16
ATOM     16  C   UNL     1       4.593  31.795  15.889  0.00  0.00    +0.000 C 
ATOM     17  C   UNL     1       3.581  30.666  15.673  0.00  0.00    +0.000 C 
BRANCH  17  19
ATOM     18  O   UNL     1       1.518  29.786  15.020  0.00  0.00    +0.000 OA
ATOM     19  C   UNL     1       2.636  29.609  15.472  0.00  0.00    +0.000 C 
BRANCH  19  20
ATOM     20  O   UNL     1       3.089  28.394  15.827  0.00  0.00    +0.000 OA
ATOM     21  H   UNL     1       3.075  28.419  16.805  0.00  0.00    +0.000 HD
ENDBRANCH  19  20
ENDBRANCH  17  19
ENDBRANCH  15  16
ENDBRANCH  14  15
ENDBRANCH   1  13
TORSDOF 5
ENDMDL
MODEL 4
REMARK VINA RESULT:      -5.7      4.234      5.686
REMARK  Name = 85668777_Hyaluronidase.pdbqt.pdb
REMARK  5 active torsions:
REMARK  status: ('A' for Active; 'I' for Inactive)
REMARK    1  A    between atoms: N_1  and  C_13
REMARK    2  A    between atoms: C_14  and  C_15
REMARK    3  A    between atoms: C_15  and  C_16
REMARK    4  A    between atoms: C_17  and  C_19
REMARK    5  A    between atoms: C_19  and  O_20
REMARK                            x       y       z     vdW  Elec       q    Type
REMARK                         _______ _______ _______ _____ _____    ______ ____
ROOT
ATOM      1  N   UNL     1       5.245  30.921  15.497  0.00  0.00    +0.000 N 
ATOM      2  C   UNL     1       3.598  29.160  15.287  0.00  0.00    +0.000 C 
ATOM      3  C   UNL     1       2.965  30.550  15.326  0.00  0.00    +0.000 A 
ATOM      4  C   UNL     1       5.126  29.532  15.407  0.00  0.00    +0.000 C 
ATOM      5  C   UNL     1       3.977  31.525  15.450  0.00  0.00    +0.000 A 
ATOM      6  C   UNL     1       3.090  28.331  16.508  0.00  0.00    +0.000 C 
ATOM      7  C   UNL     1       3.258  28.483  13.920  0.00  0.00    +0.000 C 
ATOM      8  C   UNL     1       1.628  30.914  15.262  0.00  0.00    +0.000 A 
ATOM      9  C   UNL     1       3.664  32.871  15.509  0.00  0.00    +0.000 A 
ATOM     10  C   UNL     1       6.213  28.733  15.430  0.00  0.00    +0.000 C 
ATOM     11  C   UNL     1       1.313  32.271  15.321  0.00  0.00    +0.000 A 
ATOM     12  C   UNL     1       2.320  33.238  15.442  0.00  0.00    +0.000 A 
ENDROOT
BRANCH   1  13
ATOM     13  C   UNL     1       6.478  31.660  15.619  0.00  0.00    +0.000 C 
ATOM     14  C   UNL     1       7.789  32.442  15.746  0.00  0.00    +0.000 C 
BRANCH  14  15
ATOM     15  C   UNL     1       9.101  33.222  15.873  0.00  0.00    +0.000 C 
BRANCH  15  16
ATOM     16  C   UNL     1      10.412  34.003  16.000  0.00  0.00    +0.000 C 
ATOM     17  C   UNL     1      11.723  34.784  16.127  0.00  0.00    +0.000 C 
BRANCH  17  19
ATOM     18  O   UNL     1      13.050  36.704  16.008  0.00  0.00    +0.000 OA
ATOM     19  C   UNL     1      12.950  35.512  16.246  0.00  0.00    +0.000 C 
BRANCH  19  20
ATOM     20  O   UNL     1      13.994  34.765  16.645  0.00  0.00    +0.000 OA
ATOM     21  H   UNL     1      13.668  33.847  16.559  0.00  0.00    +0.000 HD
ENDBRANCH  19  20
ENDBRANCH  17  19
ENDBRANCH  15  16
ENDBRANCH  14  15
ENDBRANCH   1  13
TORSDOF 5
ENDMDL
MODEL 5
REMARK VINA RESULT:      -5.5      5.138      9.382
REMARK  Name = 85668777_Hyaluronidase.pdbqt.pdb
REMARK  5 active torsions:
REMARK  status: ('A' for Active; 'I' for Inactive)
REMARK    1  A    between atoms: N_1  and  C_13
REMARK    2  A    between atoms: C_14  and  C_15
REMARK    3  A    between atoms: C_15  and  C_16
REMARK    4  A    between atoms: C_17  and  C_19
REMARK    5  A    between atoms: C_19  and  O_20
REMARK                            x       y       z     vdW  Elec       q    Type
REMARK                         _______ _______ _______ _____ _____    ______ ____
ROOT
ATOM      1  N   UNL     1       9.030  29.006  15.711  0.00  0.00    +0.000 N 
ATOM      2  C   UNL     1      11.199  28.023  15.281  0.00  0.00    +0.000 C 
ATOM      3  C   UNL     1      11.290  29.293  16.126  0.00  0.00    +0.000 A 
ATOM      4  C   UNL     1       9.639  27.929  15.065  0.00  0.00    +0.000 C 
ATOM      5  C   UNL     1       9.995  29.812  16.337  0.00  0.00    +0.000 A 
ATOM      6  C   UNL     1      11.974  28.241  13.943  0.00  0.00    +0.000 C 
ATOM      7  C   UNL     1      11.757  26.819  16.107  0.00  0.00    +0.000 C 
ATOM      8  C   UNL     1      12.407  29.925  16.652  0.00  0.00    +0.000 A 
ATOM      9  C   UNL     1       9.804  30.966  17.076  0.00  0.00    +0.000 A 
ATOM     10  C   UNL     1       8.913  27.013  14.391  0.00  0.00    +0.000 C 
ATOM     11  C   UNL     1      12.213  31.088  17.397  0.00  0.00    +0.000 A 
ATOM     12  C   UNL     1      10.926  31.602  17.607  0.00  0.00    +0.000 A 
ENDROOT
BRANCH   1  13
ATOM     13  C   UNL     1       7.614  29.280  15.751  0.00  0.00    +0.000 C 
ATOM     14  C   UNL     1       6.111  29.576  15.793  0.00  0.00    +0.000 C 
BRANCH  14  15
ATOM     15  C   UNL     1       4.609  29.873  15.836  0.00  0.00    +0.000 C 
BRANCH  15  16
ATOM     16  C   UNL     1       3.108  30.169  15.880  0.00  0.00    +0.000 C 
ATOM     17  C   UNL     1       1.606  30.466  15.923  0.00  0.00    +0.000 C 
BRANCH  17  19
ATOM     18  O   UNL     1      -0.473  30.937  14.966  0.00  0.00    +0.000 OA
ATOM     19  C   UNL     1       0.202  30.745  15.963  0.00  0.00    +0.000 C 
BRANCH  19  20
ATOM     20  O   UNL     1      -0.315  30.779  17.204  0.00  0.00    +0.000 OA
ATOM     21  H   UNL     1       0.474  30.797  17.783  0.00  0.00    +0.000 HD
ENDBRANCH  19  20
ENDBRANCH  17  19
ENDBRANCH  15  16
ENDBRANCH  14  15
ENDBRANCH   1  13
TORSDOF 5
ENDMDL
MODEL 6
REMARK VINA RESULT:      -5.5     16.827     18.930
REMARK  Name = 85668777_Hyaluronidase.pdbqt.pdb
REMARK  5 active torsions:
REMARK  status: ('A' for Active; 'I' for Inactive)
REMARK    1  A    between atoms: N_1  and  C_13
REMARK    2  A    between atoms: C_14  and  C_15
REMARK    3  A    between atoms: C_15  and  C_16
REMARK    4  A    between atoms: C_17  and  C_19
REMARK    5  A    between atoms: C_19  and  O_20
REMARK                            x       y       z     vdW  Elec       q    Type
REMARK                         _______ _______ _______ _____ _____    ______ ____
ROOT
ATOM      1  N   UNL     1      -0.578  25.862  29.784  0.00  0.00    +0.000 N 
ATOM      2  C   UNL     1      -0.238  23.893  28.418  0.00  0.00    +0.000 C 
ATOM      3  C   UNL     1       1.053  24.377  29.079  0.00  0.00    +0.000 A 
ATOM      4  C   UNL     1      -1.262  24.963  28.963  0.00  0.00    +0.000 C 
ATOM      5  C   UNL     1       0.783  25.523  29.856  0.00  0.00    +0.000 A 
ATOM      6  C   UNL     1      -0.075  23.962  26.867  0.00  0.00    +0.000 C 
ATOM      7  C   UNL     1      -0.561  22.451  28.924  0.00  0.00    +0.000 C 
ATOM      8  C   UNL     1       2.336  23.855  28.997  0.00  0.00    +0.000 A 
ATOM      9  C   UNL     1       1.791  26.157  30.560  0.00  0.00    +0.000 A 
ATOM     10  C   UNL     1      -2.586  25.085  28.740  0.00  0.00    +0.000 C 
ATOM     11  C   UNL     1       3.351  24.495  29.708  0.00  0.00    +0.000 A 
ATOM     12  C   UNL     1       3.081  25.633  30.480  0.00  0.00    +0.000 A 
ENDROOT
BRANCH   1  13
ATOM     13  C   UNL     1      -1.158  26.988  30.476  0.00  0.00    +0.000 C 
ATOM     14  C   UNL     1      -1.773  28.186  31.206  0.00  0.00    +0.000 C 
BRANCH  14  15
ATOM     15  C   UNL     1      -2.387  29.385  31.935  0.00  0.00    +0.000 C 
BRANCH  15  16
ATOM     16  C   UNL     1      -3.000  30.584  32.664  0.00  0.00    +0.000 C 
ATOM     17  C   UNL     1      -3.612  31.784  33.393  0.00  0.00    +0.000 C 
BRANCH  17  19
ATOM     18  O   UNL     1      -4.518  32.882  35.246  0.00  0.00    +0.000 OA
ATOM     19  C   UNL     1      -4.184  32.906  34.074  0.00  0.00    +0.000 C 
BRANCH  19  20
ATOM     20  O   UNL     1      -4.324  34.000  33.304  0.00  0.00    +0.000 OA
ATOM     21  H   UNL     1      -3.430  34.136  32.930  0.00  0.00    +0.000 HD
ENDBRANCH  19  20
ENDBRANCH  17  19
ENDBRANCH  15  16
ENDBRANCH  14  15
ENDBRANCH   1  13
TORSDOF 5
ENDMDL
MODEL 7
REMARK VINA RESULT:      -5.5     13.411     16.205
REMARK  Name = 85668777_Hyaluronidase.pdbqt.pdb
REMARK  5 active torsions:
REMARK  status: ('A' for Active; 'I' for Inactive)
REMARK    1  A    between atoms: N_1  and  C_13
REMARK    2  A    between atoms: C_14  and  C_15
REMARK    3  A    between atoms: C_15  and  C_16
REMARK    4  A    between atoms: C_17  and  C_19
REMARK    5  A    between atoms: C_19  and  O_20
REMARK                            x       y       z     vdW  Elec       q    Type
REMARK                         _______ _______ _______ _____ _____    ______ ____
ROOT
ATOM      1  N   UNL     1       1.552  18.685   7.704  0.00  0.00    +0.000 N 
ATOM      2  C   UNL     1       3.128  16.878   8.038  0.00  0.00    +0.000 C 
ATOM      3  C   UNL     1       3.214  17.940   9.135  0.00  0.00    +0.000 A 
ATOM      4  C   UNL     1       1.981  17.483   7.138  0.00  0.00    +0.000 C 
ATOM      5  C   UNL     1       2.273  18.959   8.878  0.00  0.00    +0.000 A 
ATOM      6  C   UNL     1       4.496  16.803   7.289  0.00  0.00    +0.000 C 
ATOM      7  C   UNL     1       2.721  15.513   8.681  0.00  0.00    +0.000 C 
ATOM      8  C   UNL     1       4.044  17.997  10.245  0.00  0.00    +0.000 A 
ATOM      9  C   UNL     1       2.151  20.044   9.729  0.00  0.00    +0.000 A 
ATOM     10  C   UNL     1       1.434  17.008   6.001  0.00  0.00    +0.000 C 
ATOM     11  C   UNL     1       3.920  19.091  11.101  0.00  0.00    +0.000 A 
ATOM     12  C   UNL     1       2.984  20.102  10.846  0.00  0.00    +0.000 A 
ENDROOT
BRANCH   1  13
ATOM     13  C   UNL     1       0.517  19.545   7.184  0.00  0.00    +0.000 C 
ATOM     14  C   UNL     1      -0.585  20.453   6.631  0.00  0.00    +0.000 C 
BRANCH  14  15
ATOM     15  C   UNL     1      -1.688  21.361   6.078  0.00  0.00    +0.000 C 
BRANCH  15  16
ATOM     16  C   UNL     1      -2.790  22.270   5.525  0.00  0.00    +0.000 C 
ATOM     17  C   UNL     1      -3.892  23.179   4.972  0.00  0.00    +0.000 C 
BRANCH  17  19
ATOM     18  O   UNL     1      -5.684  23.692   3.564  0.00  0.00    +0.000 OA
ATOM     19  C   UNL     1      -4.921  24.028   4.453  0.00  0.00    +0.000 C 
BRANCH  19  20
ATOM     20  O   UNL     1      -4.976  25.240   5.034  0.00  0.00    +0.000 OA
ATOM     21  H   UNL     1      -4.714  25.064   5.960  0.00  0.00    +0.000 HD
ENDBRANCH  19  20
ENDBRANCH  17  19
ENDBRANCH  15  16
ENDBRANCH  14  15
ENDBRANCH   1  13
TORSDOF 5
ENDMDL
MODEL 8
REMARK VINA RESULT:      -4.9     23.941     25.043
REMARK  Name = 85668777_Hyaluronidase.pdbqt.pdb
REMARK  5 active torsions:
REMARK  status: ('A' for Active; 'I' for Inactive)
REMARK    1  A    between atoms: N_1  and  C_13
REMARK    2  A    between atoms: C_14  and  C_15
REMARK    3  A    between atoms: C_15  and  C_16
REMARK    4  A    between atoms: C_17  and  C_19
REMARK    5  A    between atoms: C_19  and  O_20
REMARK                            x       y       z     vdW  Elec       q    Type
REMARK                         _______ _______ _______ _____ _____    ______ ____
ROOT
ATOM      1  N   UNL     1     -16.794  34.001   7.012  0.00  0.00    +0.000 N 
ATOM      2  C   UNL     1     -18.053  32.021   7.602  0.00  0.00    +0.000 C 
ATOM      3  C   UNL     1     -17.010  31.749   6.519  0.00  0.00    +0.000 A 
ATOM      4  C   UNL     1     -17.816  33.560   7.855  0.00  0.00    +0.000 C 
ATOM      5  C   UNL     1     -16.316  32.941   6.224  0.00  0.00    +0.000 A 
ATOM      6  C   UNL     1     -19.476  31.724   7.030  0.00  0.00    +0.000 C 
ATOM      7  C   UNL     1     -17.721  31.154   8.860  0.00  0.00    +0.000 C 
ATOM      8  C   UNL     1     -16.709  30.566   5.860  0.00  0.00    +0.000 A 
ATOM      9  C   UNL     1     -15.314  32.963   5.270  0.00  0.00    +0.000 A 
ATOM     10  C   UNL     1     -18.433  34.402   8.710  0.00  0.00    +0.000 C 
ATOM     11  C   UNL     1     -15.699  30.589   4.899  0.00  0.00    +0.000 A 
ATOM     12  C   UNL     1     -15.009  31.774   4.608  0.00  0.00    +0.000 A 
ENDROOT
BRANCH   1  13
ATOM     13  C   UNL     1     -16.278  35.347   6.939  0.00  0.00    +0.000 C 
ATOM     14  C   UNL     1     -15.725  36.773   6.861  0.00  0.00    +0.000 C 
BRANCH  14  15
ATOM     15  C   UNL     1     -15.172  38.200   6.785  0.00  0.00    +0.000 C 
BRANCH  15  16
ATOM     16  C   UNL     1     -14.618  39.625   6.707  0.00  0.00    +0.000 C 
ATOM     17  C   UNL     1     -14.064  41.051   6.631  0.00  0.00    +0.000 C 
BRANCH  17  19
ATOM     18  O   UNL     1     -14.187  43.332   6.142  0.00  0.00    +0.000 OA
ATOM     19  C   UNL     1     -13.546  42.384   6.561  0.00  0.00    +0.000 C 
BRANCH  19  20
ATOM     20  O   UNL     1     -12.280  42.503   6.999  0.00  0.00    +0.000 OA
ATOM     21  H   UNL     1     -12.284  43.349   7.492  0.00  0.00    +0.000 HD
ENDBRANCH  19  20
ENDBRANCH  17  19
ENDBRANCH  15  16
ENDBRANCH  14  15
ENDBRANCH   1  13
TORSDOF 5
ENDMDL
MODEL 9
REMARK VINA RESULT:      -4.9     28.132     30.640
REMARK  Name = 85668777_Hyaluronidase.pdbqt.pdb
REMARK  5 active torsions:
REMARK  status: ('A' for Active; 'I' for Inactive)
REMARK    1  A    between atoms: N_1  and  C_13
REMARK    2  A    between atoms: C_14  and  C_15
REMARK    3  A    between atoms: C_15  and  C_16
REMARK    4  A    between atoms: C_17  and  C_19
REMARK    5  A    between atoms: C_19  and  O_20
REMARK                            x       y       z     vdW  Elec       q    Type
REMARK                         _______ _______ _______ _____ _____    ______ ____
ROOT
ATOM      1  N   UNL     1      18.799  50.890   1.853  0.00  0.00    +0.000 N 
ATOM      2  C   UNL     1      20.270  49.172   2.712  0.00  0.00    +0.000 C 
ATOM      3  C   UNL     1      20.681  49.651   1.320  0.00  0.00    +0.000 A 
ATOM      4  C   UNL     1      18.999  50.072   2.966  0.00  0.00    +0.000 C 
ATOM      5  C   UNL     1      19.785  50.648   0.881  0.00  0.00    +0.000 A 
ATOM      6  C   UNL     1      19.919  47.652   2.647  0.00  0.00    +0.000 C 
ATOM      7  C   UNL     1      21.425  49.477   3.720  0.00  0.00    +0.000 C 
ATOM      8  C   UNL     1      21.742  49.243   0.524  0.00  0.00    +0.000 A 
ATOM      9  C   UNL     1      19.939  51.247  -0.356  0.00  0.00    +0.000 A 
ATOM     10  C   UNL     1      18.176  50.125   4.032  0.00  0.00    +0.000 C 
ATOM     11  C   UNL     1      21.896  49.848  -0.723  0.00  0.00    +0.000 A 
ATOM     12  C   UNL     1      21.005  50.840  -1.157  0.00  0.00    +0.000 A 
ENDROOT
BRANCH   1  13
ATOM     13  C   UNL     1      17.742  51.859   1.692  0.00  0.00    +0.000 C 
ATOM     14  C   UNL     1      16.622  52.889   1.517  0.00  0.00    +0.000 C 
BRANCH  14  15
ATOM     15  C   UNL     1      15.502  53.920   1.341  0.00  0.00    +0.000 C 
BRANCH  15  16
ATOM     16  C   UNL     1      14.384  54.950   1.164  0.00  0.00    +0.000 C 
ATOM     17  C   UNL     1      13.264  55.981   0.989  0.00  0.00    +0.000 C 
BRANCH  17  19
ATOM     18  O   UNL     1      12.227  57.805  -0.039  0.00  0.00    +0.000 OA
ATOM     19  C   UNL     1      12.219  56.946   0.826  0.00  0.00    +0.000 C 
BRANCH  19  20
ATOM     20  O   UNL     1      11.218  56.825   1.716  0.00  0.00    +0.000 OA
ATOM     21  H   UNL     1      10.659  56.115   1.340  0.00  0.00    +0.000 HD
ENDBRANCH  19  20
ENDBRANCH  17  19
ENDBRANCH  15  16
ENDBRANCH  14  15
ENDBRANCH   1  13
TORSDOF 5
ENDMDL
