MODEL 1
REMARK VINA RESULT:      -6.0      0.000      0.000
REMARK  Name = 86311066_OplopantriolA.pdbqt.pdb
REMARK  12 active torsions:
REMARK  status: ('A' for Active; 'I' for Inactive)
REMARK    1  A    between atoms: C_1  and  C_3
REMARK    2  A    between atoms: C_2  and  C_13
REMARK    3  A    between atoms: C_4  and  C_5
REMARK    4  A    between atoms: C_6  and  C_7
REMARK    5  A    between atoms: C_8  and  C_9
REMARK    6  A    between atoms: C_10  and  O_11
REMARK    7  A    between atoms: C_13  and  O_14
REMARK    8  A    between atoms: C_13  and  C_16
REMARK    9  A    between atoms: C_17  and  C_18
REMARK   10  A    between atoms: C_19  and  C_20
REMARK   11  A    between atoms: C_20  and  C_21
REMARK   12  A    between atoms: C_20  and  O_23
REMARK                            x       y       z     vdW  Elec       q    Type
REMARK                         _______ _______ _______ _____ _____    ______ ____
ROOT
ATOM      1  C   UNL     1       0.652  31.522  15.364  0.00  0.00    +0.000 C 
ATOM      2  C   UNL     1       1.119  30.425  15.219  0.00  0.00    +0.000 C 
ENDROOT
BRANCH   1   3
ATOM      3  C   UNL     1       0.057  32.921  15.549  0.00  0.00    +0.000 C 
ATOM      4  C   UNL     1      -0.539  34.320  15.733  0.00  0.00    +0.000 C 
BRANCH   4   5
ATOM      5  C   UNL     1      -1.133  35.720  15.917  0.00  0.00    +0.000 C 
ATOM      6  C   UNL     1      -1.726  37.120  16.100  0.00  0.00    +0.000 C 
BRANCH   6   7
ATOM      7  C   UNL     1      -2.320  38.520  16.284  0.00  0.00    +0.000 C 
ATOM      8  C   UNL     1      -2.913  39.920  16.468  0.00  0.00    +0.000 C 
BRANCH   8   9
ATOM      9  C   UNL     1      -3.507  41.320  16.652  0.00  0.00    +0.000 C 
ATOM     10  C   UNL     1      -4.101  42.719  16.836  0.00  0.00    +0.000 C 
BRANCH  10  11
ATOM     11  O   UNL     1      -4.616  43.932  16.996  0.00  0.00    +0.000 OA
ATOM     12  H   UNL     1      -5.542  43.948  16.700  0.00  0.00    +0.000 HD
ENDBRANCH  10  11
ENDBRANCH   8   9
ENDBRANCH   6   7
ENDBRANCH   4   5
ENDBRANCH   1   3
BRANCH   2  13
ATOM     13  C   UNL     1       1.670  29.132  15.049  0.00  0.00    +0.000 C 
BRANCH  13  14
ATOM     14  O   UNL     1       0.793  28.077  14.938  0.00  0.00    +0.000 OA
ATOM     15  H   UNL     1      -0.018  28.334  14.469  0.00  0.00    +0.000 HD
ENDBRANCH  13  14
BRANCH  13  16
ATOM     16  C   UNL     1       3.064  28.871  14.989  0.00  0.00    +0.000 C 
ATOM     17  C   UNL     1       4.242  28.651  14.937  0.00  0.00    +0.000 C 
BRANCH  17  18
ATOM     18  C   UNL     1       5.746  28.371  14.868  0.00  0.00    +0.000 C 
ATOM     19  C   UNL     1       6.925  28.151  14.814  0.00  0.00    +0.000 C 
BRANCH  19  20
ATOM     20  C   UNL     1       8.320  27.892  14.750  0.00  0.00    +0.000 C 
BRANCH  20  21
ATOM     21  C   UNL     1       9.247  28.356  15.724  0.00  0.00    +0.000 C 
ATOM     22  C   UNL     1      10.105  28.794  16.648  0.00  0.00    +0.000 C 
ENDBRANCH  20  21
BRANCH  20  23
ATOM     23  O   UNL     1       8.800  27.153  13.687  0.00  0.00    +0.000 OA
ATOM     24  H   UNL     1       9.357  27.688  13.097  0.00  0.00    +0.000 HD
ENDBRANCH  20  23
ENDBRANCH  19  20
ENDBRANCH  17  18
ENDBRANCH  13  16
ENDBRANCH   2  13
TORSDOF 12
ENDMDL
MODEL 2
REMARK VINA RESULT:      -5.3      1.563      2.086
REMARK  Name = 86311066_OplopantriolA.pdbqt.pdb
REMARK  12 active torsions:
REMARK  status: ('A' for Active; 'I' for Inactive)
REMARK    1  A    between atoms: C_1  and  C_3
REMARK    2  A    between atoms: C_2  and  C_13
REMARK    3  A    between atoms: C_4  and  C_5
REMARK    4  A    between atoms: C_6  and  C_7
REMARK    5  A    between atoms: C_8  and  C_9
REMARK    6  A    between atoms: C_10  and  O_11
REMARK    7  A    between atoms: C_13  and  O_14
REMARK    8  A    between atoms: C_13  and  C_16
REMARK    9  A    between atoms: C_17  and  C_18
REMARK   10  A    between atoms: C_19  and  C_20
REMARK   11  A    between atoms: C_20  and  C_21
REMARK   12  A    between atoms: C_20  and  O_23
REMARK                            x       y       z     vdW  Elec       q    Type
REMARK                         _______ _______ _______ _____ _____    ______ ____
ROOT
ATOM      1  C   UNL     1      -0.015  33.076  16.045  0.00  0.00    +0.000 C 
ATOM      2  C   UNL     1       0.464  31.975  16.001  0.00  0.00    +0.000 C 
ENDROOT
BRANCH   1   3
ATOM      3  C   UNL     1      -0.627  34.478  16.101  0.00  0.00    +0.000 C 
ATOM      4  C   UNL     1      -1.239  35.881  16.156  0.00  0.00    +0.000 C 
BRANCH   4   5
ATOM      5  C   UNL     1      -1.852  37.284  16.211  0.00  0.00    +0.000 C 
ATOM      6  C   UNL     1      -2.467  38.686  16.266  0.00  0.00    +0.000 C 
BRANCH   6   7
ATOM      7  C   UNL     1      -3.081  40.088  16.320  0.00  0.00    +0.000 C 
ATOM      8  C   UNL     1      -3.695  41.490  16.374  0.00  0.00    +0.000 C 
BRANCH   8   9
ATOM      9  C   UNL     1      -4.310  42.892  16.429  0.00  0.00    +0.000 C 
ATOM     10  C   UNL     1      -4.924  44.294  16.485  0.00  0.00    +0.000 C 
BRANCH  10  11
ATOM     11  O   UNL     1      -5.457  45.509  16.532  0.00  0.00    +0.000 OA
ATOM     12  H   UNL     1      -4.847  46.161  16.148  0.00  0.00    +0.000 HD
ENDBRANCH  10  11
ENDBRANCH   8   9
ENDBRANCH   6   7
ENDBRANCH   4   5
ENDBRANCH   1   3
BRANCH   2  13
ATOM     13  C   UNL     1       1.030  30.678  15.948  0.00  0.00    +0.000 C 
BRANCH  13  14
ATOM     14  O   UNL     1       0.165  29.609  15.883  0.00  0.00    +0.000 OA
ATOM     15  H   UNL     1      -0.731  29.889  15.632  0.00  0.00    +0.000 HD
ENDBRANCH  13  14
BRANCH  13  16
ATOM     16  C   UNL     1       2.426  30.428  15.959  0.00  0.00    +0.000 C 
ATOM     17  C   UNL     1       3.608  30.217  15.968  0.00  0.00    +0.000 C 
BRANCH  17  18
ATOM     18  C   UNL     1       5.115  29.950  15.979  0.00  0.00    +0.000 C 
ATOM     19  C   UNL     1       6.298  29.741  15.988  0.00  0.00    +0.000 C 
BRANCH  19  20
ATOM     20  C   UNL     1       7.696  29.495  15.999  0.00  0.00    +0.000 C 
BRANCH  20  21
ATOM     21  C   UNL     1       8.315  28.470  15.231  0.00  0.00    +0.000 C 
ATOM     22  C   UNL     1       8.908  27.509  14.520  0.00  0.00    +0.000 C 
ENDBRANCH  20  21
BRANCH  20  23
ATOM     23  O   UNL     1       8.495  30.290  16.797  0.00  0.00    +0.000 OA
ATOM     24  H   UNL     1       8.346  31.237  16.629  0.00  0.00    +0.000 HD
ENDBRANCH  20  23
ENDBRANCH  19  20
ENDBRANCH  17  18
ENDBRANCH  13  16
ENDBRANCH   2  13
TORSDOF 12
ENDMDL
MODEL 3
REMARK VINA RESULT:      -4.7     13.780     19.907
REMARK  Name = 86311066_OplopantriolA.pdbqt.pdb
REMARK  12 active torsions:
REMARK  status: ('A' for Active; 'I' for Inactive)
REMARK    1  A    between atoms: C_1  and  C_3
REMARK    2  A    between atoms: C_2  and  C_13
REMARK    3  A    between atoms: C_4  and  C_5
REMARK    4  A    between atoms: C_6  and  C_7
REMARK    5  A    between atoms: C_8  and  C_9
REMARK    6  A    between atoms: C_10  and  O_11
REMARK    7  A    between atoms: C_13  and  O_14
REMARK    8  A    between atoms: C_13  and  C_16
REMARK    9  A    between atoms: C_17  and  C_18
REMARK   10  A    between atoms: C_19  and  C_20
REMARK   11  A    between atoms: C_20  and  C_21
REMARK   12  A    between atoms: C_20  and  O_23
REMARK                            x       y       z     vdW  Elec       q    Type
REMARK                         _______ _______ _______ _____ _____    ______ ____
ROOT
ATOM      1  C   UNL     1     -15.527  39.391  13.578  0.00  0.00    +0.000 C 
ATOM      2  C   UNL     1     -16.556  39.169  13.000  0.00  0.00    +0.000 C 
ENDROOT
BRANCH   1   3
ATOM      3  C   UNL     1     -14.215  39.676  14.315  0.00  0.00    +0.000 C 
ATOM      4  C   UNL     1     -12.903  39.960  15.053  0.00  0.00    +0.000 C 
BRANCH   4   5
ATOM      5  C   UNL     1     -11.592  40.245  15.791  0.00  0.00    +0.000 C 
ATOM      6  C   UNL     1     -10.281  40.532  16.530  0.00  0.00    +0.000 C 
BRANCH   6   7
ATOM      7  C   UNL     1      -8.970  40.819  17.268  0.00  0.00    +0.000 C 
ATOM      8  C   UNL     1      -7.659  41.106  18.007  0.00  0.00    +0.000 C 
BRANCH   8   9
ATOM      9  C   UNL     1      -6.348  41.391  18.744  0.00  0.00    +0.000 C 
ATOM     10  C   UNL     1      -5.037  41.676  19.483  0.00  0.00    +0.000 C 
BRANCH  10  11
ATOM     11  O   UNL     1      -3.900  41.923  20.122  0.00  0.00    +0.000 OA
ATOM     12  H   UNL     1      -3.918  42.812  20.514  0.00  0.00    +0.000 HD
ENDBRANCH  10  11
ENDBRANCH   8   9
ENDBRANCH   6   7
ENDBRANCH   4   5
ENDBRANCH   1   3
BRANCH   2  13
ATOM     13  C   UNL     1     -17.768  38.905  12.317  0.00  0.00    +0.000 C 
BRANCH  13  14
ATOM     14  O   UNL     1     -18.776  39.836  12.427  0.00  0.00    +0.000 OA
ATOM     15  H   UNL     1     -19.430  39.578  13.098  0.00  0.00    +0.000 HD
ENDBRANCH  13  14
BRANCH  13  16
ATOM     16  C   UNL     1     -17.994  37.743  11.534  0.00  0.00    +0.000 C 
ATOM     17  C   UNL     1     -18.186  36.761  10.872  0.00  0.00    +0.000 C 
BRANCH  17  18
ATOM     18  C   UNL     1     -18.433  35.508  10.027  0.00  0.00    +0.000 C 
ATOM     19  C   UNL     1     -18.627  34.526   9.364  0.00  0.00    +0.000 C 
BRANCH  19  20
ATOM     20  C   UNL     1     -18.855  33.364   8.581  0.00  0.00    +0.000 C 
BRANCH  20  21
ATOM     21  C   UNL     1     -17.962  32.257   8.547  0.00  0.00    +0.000 C 
ATOM     22  C   UNL     1     -17.114  31.226   8.525  0.00  0.00    +0.000 C 
ENDBRANCH  20  21
BRANCH  20  23
ATOM     23  O   UNL     1     -20.000  33.306   7.813  0.00  0.00    +0.000 OA
ATOM     24  H   UNL     1     -20.800  33.228   8.361  0.00  0.00    +0.000 HD
ENDBRANCH  20  23
ENDBRANCH  19  20
ENDBRANCH  17  18
ENDBRANCH  13  16
ENDBRANCH   2  13
TORSDOF 12
ENDMDL
MODEL 4
REMARK VINA RESULT:      -4.5      9.853     12.656
REMARK  Name = 86311066_OplopantriolA.pdbqt.pdb
REMARK  12 active torsions:
REMARK  status: ('A' for Active; 'I' for Inactive)
REMARK    1  A    between atoms: C_1  and  C_3
REMARK    2  A    between atoms: C_2  and  C_13
REMARK    3  A    between atoms: C_4  and  C_5
REMARK    4  A    between atoms: C_6  and  C_7
REMARK    5  A    between atoms: C_8  and  C_9
REMARK    6  A    between atoms: C_10  and  O_11
REMARK    7  A    between atoms: C_13  and  O_14
REMARK    8  A    between atoms: C_13  and  C_16
REMARK    9  A    between atoms: C_17  and  C_18
REMARK   10  A    between atoms: C_19  and  C_20
REMARK   11  A    between atoms: C_20  and  C_21
REMARK   12  A    between atoms: C_20  and  O_23
REMARK                            x       y       z     vdW  Elec       q    Type
REMARK                         _______ _______ _______ _____ _____    ______ ____
ROOT
ATOM      1  C   UNL     1       9.135  35.332  16.429  0.00  0.00    +0.000 C 
ATOM      2  C   UNL     1       8.427  34.363  16.384  0.00  0.00    +0.000 C 
ENDROOT
BRANCH   1   3
ATOM      3  C   UNL     1      10.037  36.568  16.487  0.00  0.00    +0.000 C 
ATOM      4  C   UNL     1      10.940  37.804  16.545  0.00  0.00    +0.000 C 
BRANCH   4   5
ATOM      5  C   UNL     1      11.843  39.040  16.603  0.00  0.00    +0.000 C 
ATOM      6  C   UNL     1      12.747  40.275  16.659  0.00  0.00    +0.000 C 
BRANCH   6   7
ATOM      7  C   UNL     1      13.652  41.510  16.715  0.00  0.00    +0.000 C 
ATOM      8  C   UNL     1      14.556  42.745  16.772  0.00  0.00    +0.000 C 
BRANCH   8   9
ATOM      9  C   UNL     1      15.461  43.979  16.829  0.00  0.00    +0.000 C 
ATOM     10  C   UNL     1      16.367  45.213  16.887  0.00  0.00    +0.000 C 
BRANCH  10  11
ATOM     11  O   UNL     1      17.152  46.282  16.936  0.00  0.00    +0.000 OA
ATOM     12  H   UNL     1      17.378  46.494  17.857  0.00  0.00    +0.000 HD
ENDBRANCH  10  11
ENDBRANCH   8   9
ENDBRANCH   6   7
ENDBRANCH   4   5
ENDBRANCH   1   3
BRANCH   2  13
ATOM     13  C   UNL     1       7.592  33.220  16.330  0.00  0.00    +0.000 C 
BRANCH  13  14
ATOM     14  O   UNL     1       8.172  31.996  16.574  0.00  0.00    +0.000 OA
ATOM     15  H   UNL     1       8.864  32.057  17.253  0.00  0.00    +0.000 HD
ENDBRANCH  13  14
BRANCH  13  16
ATOM     16  C   UNL     1       6.204  33.274  16.041  0.00  0.00    +0.000 C 
ATOM     17  C   UNL     1       5.029  33.318  15.797  0.00  0.00    +0.000 C 
BRANCH  17  18
ATOM     18  C   UNL     1       3.531  33.374  15.488  0.00  0.00    +0.000 C 
ATOM     19  C   UNL     1       2.356  33.418  15.246  0.00  0.00    +0.000 C 
BRANCH  19  20
ATOM     20  C   UNL     1       0.966  33.469  14.960  0.00  0.00    +0.000 C 
BRANCH  20  21
ATOM     21  C   UNL     1       0.009  32.615  15.577  0.00  0.00    +0.000 C 
ATOM     22  C   UNL     1      -0.897  31.827  16.159  0.00  0.00    +0.000 C 
ENDBRANCH  20  21
BRANCH  20  23
ATOM     23  O   UNL     1       0.521  34.392  14.035  0.00  0.00    +0.000 OA
ATOM     24  H   UNL     1       0.578  34.051  13.126  0.00  0.00    +0.000 HD
ENDBRANCH  20  23
ENDBRANCH  19  20
ENDBRANCH  17  18
ENDBRANCH  13  16
ENDBRANCH   2  13
TORSDOF 12
ENDMDL
MODEL 5
REMARK VINA RESULT:      -4.5     14.329     20.153
REMARK  Name = 86311066_OplopantriolA.pdbqt.pdb
REMARK  12 active torsions:
REMARK  status: ('A' for Active; 'I' for Inactive)
REMARK    1  A    between atoms: C_1  and  C_3
REMARK    2  A    between atoms: C_2  and  C_13
REMARK    3  A    between atoms: C_4  and  C_5
REMARK    4  A    between atoms: C_6  and  C_7
REMARK    5  A    between atoms: C_8  and  C_9
REMARK    6  A    between atoms: C_10  and  O_11
REMARK    7  A    between atoms: C_13  and  O_14
REMARK    8  A    between atoms: C_13  and  C_16
REMARK    9  A    between atoms: C_17  and  C_18
REMARK   10  A    between atoms: C_19  and  C_20
REMARK   11  A    between atoms: C_20  and  C_21
REMARK   12  A    between atoms: C_20  and  O_23
REMARK                            x       y       z     vdW  Elec       q    Type
REMARK                         _______ _______ _______ _____ _____    ______ ____
ROOT
ATOM      1  C   UNL     1     -16.144  38.633  12.594  0.00  0.00    +0.000 C 
ATOM      2  C   UNL     1     -17.113  38.337  11.949  0.00  0.00    +0.000 C 
ENDROOT
BRANCH   1   3
ATOM      3  C   UNL     1     -14.908  39.011  13.415  0.00  0.00    +0.000 C 
ATOM      4  C   UNL     1     -13.672  39.389  14.235  0.00  0.00    +0.000 C 
BRANCH   4   5
ATOM      5  C   UNL     1     -12.435  39.767  15.056  0.00  0.00    +0.000 C 
ATOM      6  C   UNL     1     -11.197  40.142  15.877  0.00  0.00    +0.000 C 
BRANCH   6   7
ATOM      7  C   UNL     1      -9.960  40.518  16.698  0.00  0.00    +0.000 C 
ATOM      8  C   UNL     1      -8.723  40.894  17.519  0.00  0.00    +0.000 C 
BRANCH   8   9
ATOM      9  C   UNL     1      -7.487  41.271  18.341  0.00  0.00    +0.000 C 
ATOM     10  C   UNL     1      -6.251  41.649  19.163  0.00  0.00    +0.000 C 
BRANCH  10  11
ATOM     11  O   UNL     1      -5.179  41.976  19.875  0.00  0.00    +0.000 OA
ATOM     12  H   UNL     1      -4.563  42.502  19.337  0.00  0.00    +0.000 HD
ENDBRANCH  10  11
ENDBRANCH   8   9
ENDBRANCH   6   7
ENDBRANCH   4   5
ENDBRANCH   1   3
BRANCH   2  13
ATOM     13  C   UNL     1     -18.255  37.987  11.188  0.00  0.00    +0.000 C 
BRANCH  13  14
ATOM     14  O   UNL     1     -19.470  38.489  11.596  0.00  0.00    +0.000 OA
ATOM     15  H   UNL     1     -20.087  38.582  10.851  0.00  0.00    +0.000 HD
ENDBRANCH  13  14
BRANCH  13  16
ATOM     16  C   UNL     1     -18.211  37.154  10.040  0.00  0.00    +0.000 C 
ATOM     17  C   UNL     1     -18.175  36.450   9.068  0.00  0.00    +0.000 C 
BRANCH  17  18
ATOM     18  C   UNL     1     -18.130  35.552   7.829  0.00  0.00    +0.000 C 
ATOM     19  C   UNL     1     -18.095  34.847   6.857  0.00  0.00    +0.000 C 
BRANCH  19  20
ATOM     20  C   UNL     1     -18.053  34.015   5.708  0.00  0.00    +0.000 C 
BRANCH  20  21
ATOM     21  C   UNL     1     -16.853  33.439   5.204  0.00  0.00    +0.000 C 
ATOM     22  C   UNL     1     -15.737  32.889   4.722  0.00  0.00    +0.000 C 
ENDBRANCH  20  21
BRANCH  20  23
ATOM     23  O   UNL     1     -19.235  33.752   5.046  0.00  0.00    +0.000 OA
ATOM     24  H   UNL     1     -19.643  34.564   4.697  0.00  0.00    +0.000 HD
ENDBRANCH  20  23
ENDBRANCH  19  20
ENDBRANCH  17  18
ENDBRANCH  13  16
ENDBRANCH   2  13
TORSDOF 12
ENDMDL
MODEL 6
REMARK VINA RESULT:      -4.5     21.069     23.635
REMARK  Name = 86311066_OplopantriolA.pdbqt.pdb
REMARK  12 active torsions:
REMARK  status: ('A' for Active; 'I' for Inactive)
REMARK    1  A    between atoms: C_1  and  C_3
REMARK    2  A    between atoms: C_2  and  C_13
REMARK    3  A    between atoms: C_4  and  C_5
REMARK    4  A    between atoms: C_6  and  C_7
REMARK    5  A    between atoms: C_8  and  C_9
REMARK    6  A    between atoms: C_10  and  O_11
REMARK    7  A    between atoms: C_13  and  O_14
REMARK    8  A    between atoms: C_13  and  C_16
REMARK    9  A    between atoms: C_17  and  C_18
REMARK   10  A    between atoms: C_19  and  C_20
REMARK   11  A    between atoms: C_20  and  C_21
REMARK   12  A    between atoms: C_20  and  O_23
REMARK                            x       y       z     vdW  Elec       q    Type
REMARK                         _______ _______ _______ _____ _____    ______ ____
ROOT
ATOM      1  C   UNL     1      11.076  52.584  12.811  0.00  0.00    +0.000 C 
ATOM      2  C   UNL     1      10.413  51.644  12.463  0.00  0.00    +0.000 C 
ENDROOT
BRANCH   1   3
ATOM      3  C   UNL     1      11.920  53.781  13.257  0.00  0.00    +0.000 C 
ATOM      4  C   UNL     1      12.765  54.979  13.701  0.00  0.00    +0.000 C 
BRANCH   4   5
ATOM      5  C   UNL     1      13.610  56.176  14.146  0.00  0.00    +0.000 C 
ATOM      6  C   UNL     1      14.456  57.374  14.588  0.00  0.00    +0.000 C 
BRANCH   6   7
ATOM      7  C   UNL     1      15.302  58.571  15.032  0.00  0.00    +0.000 C 
ATOM      8  C   UNL     1      16.148  59.768  15.475  0.00  0.00    +0.000 C 
BRANCH   8   9
ATOM      9  C   UNL     1      16.995  60.966  15.917  0.00  0.00    +0.000 C 
ATOM     10  C   UNL     1      17.842  62.163  16.358  0.00  0.00    +0.000 C 
BRANCH  10  11
ATOM     11  O   UNL     1      18.575  63.202  16.741  0.00  0.00    +0.000 OA
ATOM     12  H   UNL     1      18.423  63.959  16.151  0.00  0.00    +0.000 HD
ENDBRANCH  10  11
ENDBRANCH   8   9
ENDBRANCH   6   7
ENDBRANCH   4   5
ENDBRANCH   1   3
BRANCH   2  13
ATOM     13  C   UNL     1       9.631  50.537  12.051  0.00  0.00    +0.000 C 
BRANCH  13  14
ATOM     14  O   UNL     1       8.268  50.627  12.214  0.00  0.00    +0.000 OA
ATOM     15  H   UNL     1       7.958  51.545  12.143  0.00  0.00    +0.000 HD
ENDBRANCH  13  14
BRANCH  13  16
ATOM     16  C   UNL     1      10.176  49.355  11.486  0.00  0.00    +0.000 C 
ATOM     17  C   UNL     1      10.637  48.355  11.009  0.00  0.00    +0.000 C 
BRANCH  17  18
ATOM     18  C   UNL     1      11.226  47.079  10.403  0.00  0.00    +0.000 C 
ATOM     19  C   UNL     1      11.688  46.077   9.927  0.00  0.00    +0.000 C 
BRANCH  19  20
ATOM     20  C   UNL     1      12.232  44.893   9.365  0.00  0.00    +0.000 C 
BRANCH  20  21
ATOM     21  C   UNL     1      13.601  44.525   9.493  0.00  0.00    +0.000 C 
ATOM     22  C   UNL     1      14.889  44.194   9.609  0.00  0.00    +0.000 C 
ENDBRANCH  20  21
BRANCH  20  23
ATOM     23  O   UNL     1      11.392  44.057   8.657  0.00  0.00    +0.000 OA
ATOM     24  H   UNL     1      10.475  44.382   8.656  0.00  0.00    +0.000 HD
ENDBRANCH  20  23
ENDBRANCH  19  20
ENDBRANCH  17  18
ENDBRANCH  13  16
ENDBRANCH   2  13
TORSDOF 12
ENDMDL
MODEL 7
REMARK VINA RESULT:      -4.2     10.554     14.272
REMARK  Name = 86311066_OplopantriolA.pdbqt.pdb
REMARK  12 active torsions:
REMARK  status: ('A' for Active; 'I' for Inactive)
REMARK    1  A    between atoms: C_1  and  C_3
REMARK    2  A    between atoms: C_2  and  C_13
REMARK    3  A    between atoms: C_4  and  C_5
REMARK    4  A    between atoms: C_6  and  C_7
REMARK    5  A    between atoms: C_8  and  C_9
REMARK    6  A    between atoms: C_10  and  O_11
REMARK    7  A    between atoms: C_13  and  O_14
REMARK    8  A    between atoms: C_13  and  C_16
REMARK    9  A    between atoms: C_17  and  C_18
REMARK   10  A    between atoms: C_19  and  C_20
REMARK   11  A    between atoms: C_20  and  C_21
REMARK   12  A    between atoms: C_20  and  O_23
REMARK                            x       y       z     vdW  Elec       q    Type
REMARK                         _______ _______ _______ _____ _____    ______ ____
ROOT
ATOM      1  C   UNL     1       9.775  37.732  17.961  0.00  0.00    +0.000 C 
ATOM      2  C   UNL     1      10.383  38.708  18.308  0.00  0.00    +0.000 C 
ENDROOT
BRANCH   1   3
ATOM      3  C   UNL     1       9.000  36.488  17.517  0.00  0.00    +0.000 C 
ATOM      4  C   UNL     1       8.225  35.245  17.071  0.00  0.00    +0.000 C 
BRANCH   4   5
ATOM      5  C   UNL     1       7.450  34.001  16.626  0.00  0.00    +0.000 C 
ATOM      6  C   UNL     1       6.675  32.757  16.180  0.00  0.00    +0.000 C 
BRANCH   6   7
ATOM      7  C   UNL     1       5.900  31.514  15.733  0.00  0.00    +0.000 C 
ATOM      8  C   UNL     1       5.124  30.271  15.287  0.00  0.00    +0.000 C 
BRANCH   8   9
ATOM      9  C   UNL     1       4.348  29.028  14.842  0.00  0.00    +0.000 C 
ATOM     10  C   UNL     1       3.572  27.784  14.398  0.00  0.00    +0.000 C 
BRANCH  10  11
ATOM     11  O   UNL     1       2.900  26.706  14.013  0.00  0.00    +0.000 OA
ATOM     12  H   UNL     1       3.353  26.272  13.270  0.00  0.00    +0.000 HD
ENDBRANCH  10  11
ENDBRANCH   8   9
ENDBRANCH   6   7
ENDBRANCH   4   5
ENDBRANCH   1   3
BRANCH   2  13
ATOM     13  C   UNL     1      11.098  39.860  18.718  0.00  0.00    +0.000 C 
BRANCH  13  14
ATOM     14  O   UNL     1      10.555  40.618  19.730  0.00  0.00    +0.000 OA
ATOM     15  H   UNL     1      11.025  41.463  19.836  0.00  0.00    +0.000 HD
ENDBRANCH  13  14
BRANCH  13  16
ATOM     16  C   UNL     1      12.331  40.266  18.146  0.00  0.00    +0.000 C 
ATOM     17  C   UNL     1      13.375  40.609  17.662  0.00  0.00    +0.000 C 
BRANCH  17  18
ATOM     18  C   UNL     1      14.707  41.044  17.046  0.00  0.00    +0.000 C 
ATOM     19  C   UNL     1      15.752  41.386  16.562  0.00  0.00    +0.000 C 
BRANCH  19  20
ATOM     20  C   UNL     1      16.987  41.789  15.990  0.00  0.00    +0.000 C 
BRANCH  20  21
ATOM     21  C   UNL     1      17.615  41.096  14.918  0.00  0.00    +0.000 C 
ATOM     22  C   UNL     1      18.198  40.456  13.902  0.00  0.00    +0.000 C 
ENDBRANCH  20  21
BRANCH  20  23
ATOM     23  O   UNL     1      17.611  42.909  16.501  0.00  0.00    +0.000 OA
ATOM     24  H   UNL     1      17.557  43.664  15.890  0.00  0.00    +0.000 HD
ENDBRANCH  20  23
ENDBRANCH  19  20
ENDBRANCH  17  18
ENDBRANCH  13  16
ENDBRANCH   2  13
TORSDOF 12
ENDMDL
MODEL 8
REMARK VINA RESULT:      -4.1     14.947     18.402
REMARK  Name = 86311066_OplopantriolA.pdbqt.pdb
REMARK  12 active torsions:
REMARK  status: ('A' for Active; 'I' for Inactive)
REMARK    1  A    between atoms: C_1  and  C_3
REMARK    2  A    between atoms: C_2  and  C_13
REMARK    3  A    between atoms: C_4  and  C_5
REMARK    4  A    between atoms: C_6  and  C_7
REMARK    5  A    between atoms: C_8  and  C_9
REMARK    6  A    between atoms: C_10  and  O_11
REMARK    7  A    between atoms: C_13  and  O_14
REMARK    8  A    between atoms: C_13  and  C_16
REMARK    9  A    between atoms: C_17  and  C_18
REMARK   10  A    between atoms: C_19  and  C_20
REMARK   11  A    between atoms: C_20  and  C_21
REMARK   12  A    between atoms: C_20  and  O_23
REMARK                            x       y       z     vdW  Elec       q    Type
REMARK                         _______ _______ _______ _____ _____    ______ ____
ROOT
ATOM      1  C   UNL     1      10.499  20.202  11.361  0.00  0.00    +0.000 C 
ATOM      2  C   UNL     1       9.578  19.442  11.488  0.00  0.00    +0.000 C 
ENDROOT
BRANCH   1   3
ATOM      3  C   UNL     1      11.673  21.171  11.199  0.00  0.00    +0.000 C 
ATOM      4  C   UNL     1      12.848  22.141  11.038  0.00  0.00    +0.000 C 
BRANCH   4   5
ATOM      5  C   UNL     1      14.022  23.112  10.877  0.00  0.00    +0.000 C 
ATOM      6  C   UNL     1      15.197  24.081  10.716  0.00  0.00    +0.000 C 
BRANCH   6   7
ATOM      7  C   UNL     1      16.372  25.050  10.555  0.00  0.00    +0.000 C 
ATOM      8  C   UNL     1      17.547  26.020  10.394  0.00  0.00    +0.000 C 
BRANCH   8   9
ATOM      9  C   UNL     1      18.722  26.989  10.234  0.00  0.00    +0.000 C 
ATOM     10  C   UNL     1      19.898  27.958  10.075  0.00  0.00    +0.000 C 
BRANCH  10  11
ATOM     11  O   UNL     1      20.916  28.797   9.936  0.00  0.00    +0.000 OA
ATOM     12  H   UNL     1      21.702  28.454  10.394  0.00  0.00    +0.000 HD
ENDBRANCH  10  11
ENDBRANCH   8   9
ENDBRANCH   6   7
ENDBRANCH   4   5
ENDBRANCH   1   3
BRANCH   2  13
ATOM     13  C   UNL     1       8.491  18.546  11.636  0.00  0.00    +0.000 C 
BRANCH  13  14
ATOM     14  O   UNL     1       8.778  17.257  12.024  0.00  0.00    +0.000 OA
ATOM     15  H   UNL     1       9.595  17.215  12.549  0.00  0.00    +0.000 HD
ENDBRANCH  13  14
BRANCH  13  16
ATOM     16  C   UNL     1       7.138  18.905  11.407  0.00  0.00    +0.000 C 
ATOM     17  C   UNL     1       5.993  19.210  11.214  0.00  0.00    +0.000 C 
BRANCH  17  18
ATOM     18  C   UNL     1       4.533  19.600  10.969  0.00  0.00    +0.000 C 
ATOM     19  C   UNL     1       3.388  19.907  10.776  0.00  0.00    +0.000 C 
BRANCH  19  20
ATOM     20  C   UNL     1       2.034  20.270  10.550  0.00  0.00    +0.000 C 
BRANCH  20  21
ATOM     21  C   UNL     1       1.454  20.352   9.253  0.00  0.00    +0.000 C 
ATOM     22  C   UNL     1       0.906  20.444   8.039  0.00  0.00    +0.000 C 
ENDBRANCH  20  21
BRANCH  20  23
ATOM     23  O   UNL     1       1.242  20.559  11.642  0.00  0.00    +0.000 OA
ATOM     24  H   UNL     1       1.466  20.005  12.409  0.00  0.00    +0.000 HD
ENDBRANCH  20  23
ENDBRANCH  19  20
ENDBRANCH  17  18
ENDBRANCH  13  16
ENDBRANCH   2  13
TORSDOF 12
ENDMDL
MODEL 9
REMARK VINA RESULT:      -4.1     15.075     19.948
REMARK  Name = 86311066_OplopantriolA.pdbqt.pdb
REMARK  12 active torsions:
REMARK  status: ('A' for Active; 'I' for Inactive)
REMARK    1  A    between atoms: C_1  and  C_3
REMARK    2  A    between atoms: C_2  and  C_13
REMARK    3  A    between atoms: C_4  and  C_5
REMARK    4  A    between atoms: C_6  and  C_7
REMARK    5  A    between atoms: C_8  and  C_9
REMARK    6  A    between atoms: C_10  and  O_11
REMARK    7  A    between atoms: C_13  and  O_14
REMARK    8  A    between atoms: C_13  and  C_16
REMARK    9  A    between atoms: C_17  and  C_18
REMARK   10  A    between atoms: C_19  and  C_20
REMARK   11  A    between atoms: C_20  and  C_21
REMARK   12  A    between atoms: C_20  and  O_23
REMARK                            x       y       z     vdW  Elec       q    Type
REMARK                         _______ _______ _______ _____ _____    ______ ____
ROOT
ATOM      1  C   UNL     1       4.276  19.673  11.072  0.00  0.00    +0.000 C 
ATOM      2  C   UNL     1       3.142  19.974  10.815  0.00  0.00    +0.000 C 
ENDROOT
BRANCH   1   3
ATOM      3  C   UNL     1       5.721  19.289  11.400  0.00  0.00    +0.000 C 
ATOM      4  C   UNL     1       7.167  18.906  11.728  0.00  0.00    +0.000 C 
BRANCH   4   5
ATOM      5  C   UNL     1       8.613  18.522  12.056  0.00  0.00    +0.000 C 
ATOM      6  C   UNL     1      10.059  18.138  12.385  0.00  0.00    +0.000 C 
BRANCH   6   7
ATOM      7  C   UNL     1      11.505  17.755  12.714  0.00  0.00    +0.000 C 
ATOM      8  C   UNL     1      12.951  17.371  13.042  0.00  0.00    +0.000 C 
BRANCH   8   9
ATOM      9  C   UNL     1      14.397  16.987  13.371  0.00  0.00    +0.000 C 
ATOM     10  C   UNL     1      15.842  16.602  13.700  0.00  0.00    +0.000 C 
BRANCH  10  11
ATOM     11  O   UNL     1      17.095  16.269  13.985  0.00  0.00    +0.000 OA
ATOM     12  H   UNL     1      17.186  16.072  14.933  0.00  0.00    +0.000 HD
ENDBRANCH  10  11
ENDBRANCH   8   9
ENDBRANCH   6   7
ENDBRANCH   4   5
ENDBRANCH   1   3
BRANCH   2  13
ATOM     13  C   UNL     1       1.805  20.331  10.512  0.00  0.00    +0.000 C 
BRANCH  13  14
ATOM     14  O   UNL     1       0.977  20.649  11.565  0.00  0.00    +0.000 OA
ATOM     15  H   UNL     1       0.208  21.165  11.272  0.00  0.00    +0.000 HD
ENDBRANCH  13  14
BRANCH  13  16
ATOM     16  C   UNL     1       1.282  20.376   9.194  0.00  0.00    +0.000 C 
ATOM     17  C   UNL     1       0.839  20.414   8.079  0.00  0.00    +0.000 C 
BRANCH  17  18
ATOM     18  C   UNL     1       0.272  20.462   6.658  0.00  0.00    +0.000 C 
ATOM     19  C   UNL     1      -0.173  20.500   5.543  0.00  0.00    +0.000 C 
BRANCH  19  20
ATOM     20  C   UNL     1      -0.698  20.545   4.224  0.00  0.00    +0.000 C 
BRANCH  20  21
ATOM     21  C   UNL     1      -1.365  21.681   3.687  0.00  0.00    +0.000 C 
ATOM     22  C   UNL     1      -1.987  22.755   3.196  0.00  0.00    +0.000 C 
ENDBRANCH  20  21
BRANCH  20  23
ATOM     23  O   UNL     1      -0.554  19.429   3.424  0.00  0.00    +0.000 OA
ATOM     24  H   UNL     1      -1.379  18.916   3.368  0.00  0.00    +0.000 HD
ENDBRANCH  20  23
ENDBRANCH  19  20
ENDBRANCH  17  18
ENDBRANCH  13  16
ENDBRANCH   2  13
TORSDOF 12
ENDMDL
