MODEL 1
REMARK VINA RESULT:      -7.7      0.000      0.000
REMARK  Name = 91746246_sitosterol.pdbqt.pdb
REMARK  10 active torsions:
REMARK  status: ('A' for Active; 'I' for Inactive)
REMARK    1  A    between atoms: C_5  and  C_20
REMARK    2  A    between atoms: C_19  and  O_30
REMARK    3  A    between atoms: C_20  and  C_22
REMARK    4  A    between atoms: C_23  and  C_24
REMARK    5  A    between atoms: C_24  and  C_28
REMARK    6  A    between atoms: O_30  and  C_32
REMARK    7  A    between atoms: C_32  and  C_33
REMARK    8  A    between atoms: C_34  and  C_35
REMARK    9  A    between atoms: C_38  and  O_41
REMARK   10  A    between atoms: C_40  and  O_43
REMARK                            x       y       z     vdW  Elec       q    Type
REMARK                         _______ _______ _______ _____ _____    ______ ____
ROOT
ATOM      1  C   UNL     1       9.671  31.649  16.946  0.00  0.00    +0.000 C 
ATOM      2  C   UNL     1      11.107  31.454  16.222  0.00  0.00    +0.000 C 
ATOM      3  C   UNL     1      11.862  30.187  16.295  0.00  0.00    +0.000 C 
ATOM      4  C   UNL     1      11.330  28.867  16.795  0.00  0.00    +0.000 C 
ATOM      5  C   UNL     1       8.851  32.382  15.891  0.00  0.00    +0.000 C 
ATOM      6  C   UNL     1       9.221  30.290  17.243  0.00  0.00    +0.000 C 
ATOM      7  C   UNL     1      12.186  27.578  16.900  0.00  0.00    +0.000 C 
ATOM      8  C   UNL     1      11.075  32.203  15.004  0.00  0.00    +0.000 C 
ATOM      9  C   UNL     1       9.976  28.984  17.208  0.00  0.00    +0.000 C 
ATOM     10  C   UNL     1       9.687  32.744  14.794  0.00  0.00    +0.000 C 
ATOM     11  C   UNL     1      13.157  30.074  15.732  0.00  0.00    +0.000 C 
ATOM     12  C   UNL     1       9.909  32.541  18.193  0.00  0.00    +0.000 C 
ATOM     13  C   UNL     1      13.576  27.621  16.011  0.00  0.00    +0.000 C 
ATOM     14  C   UNL     1      11.443  26.412  16.337  0.00  0.00    +0.000 C 
ATOM     15  C   UNL     1      13.944  28.802  15.618  0.00  0.00    +0.000 C 
ATOM     16  C   UNL     1      12.596  27.351  18.385  0.00  0.00    +0.000 C 
ATOM     17  C   UNL     1      13.755  26.522  15.088  0.00  0.00    +0.000 C 
ATOM     18  C   UNL     1      11.777  25.345  15.281  0.00  0.00    +0.000 C 
ATOM     19  C   UNL     1      13.038  25.377  14.594  0.00  0.00    +0.000 C 
ENDROOT
BRANCH   5  20
ATOM     20  C   UNL     1       7.521  32.860  16.096  0.00  0.00    +0.000 C 
ATOM     21  C   UNL     1       7.233  34.178  16.763  0.00  0.00    +0.000 C 
BRANCH  20  22
ATOM     22  C   UNL     1       6.399  32.005  15.909  0.00  0.00    +0.000 C 
ATOM     23  C   UNL     1       5.186  31.084  15.705  0.00  0.00    +0.000 C 
BRANCH  23  24
ATOM     24  C   UNL     1       4.049  30.240  15.525  0.00  0.00    +0.000 C 
ATOM     25  C   UNL     1       2.720  30.686  15.886  0.00  0.00    +0.000 C 
ATOM     26  C   UNL     1       1.488  29.819  15.755  0.00  0.00    +0.000 C 
ATOM     27  C   UNL     1       2.442  32.072  16.430  0.00  0.00    +0.000 C 
BRANCH  24  28
ATOM     28  C   UNL     1       4.223  28.939  14.981  0.00  0.00    +0.000 C 
ATOM     29  C   UNL     1       4.380  27.558  14.336  0.00  0.00    +0.000 C 
ENDBRANCH  24  28
ENDBRANCH  23  24
ENDBRANCH  20  22
ENDBRANCH   5  20
BRANCH  19  30
ATOM     30  O   UNL     1      13.748  24.204  14.356  0.00  0.00    +0.000 OA
BRANCH  30  32
ATOM     31  O   UNL     1      12.859  22.736  12.787  0.00  0.00    +0.000 OA
ATOM     32  C   UNL     1      13.512  23.719  13.102  0.00  0.00    +0.000 C 
BRANCH  32  33
ATOM     33  C   UNL     1      14.121  24.548  12.092  0.00  0.00    +0.000 C 
ATOM     34  C   UNL     1      14.615  25.252  11.252  0.00  0.00    +0.000 C 
BRANCH  34  35
ATOM     35  C   UNL     1      15.187  26.100  10.259  0.00  0.00    +0.000 A 
ATOM     36  C   UNL     1      14.851  27.452  10.227  0.00  0.00    +0.000 A 
ATOM     37  C   UNL     1      16.071  25.577   9.319  0.00  0.00    +0.000 A 
ATOM     38  C   UNL     1      15.396  28.299   9.258  0.00  0.00    +0.000 A 
ATOM     39  C   UNL     1      16.622  26.409   8.347  0.00  0.00    +0.000 A 
ATOM     40  C   UNL     1      16.282  27.761   8.321  0.00  0.00    +0.000 A 
BRANCH  38  41
ATOM     41  O   UNL     1      15.117  29.640   9.156  0.00  0.00    +0.000 OA
ATOM     42  C   UNL     1      14.964  30.321  10.375  0.00  0.00    +0.000 C 
ENDBRANCH  38  41
BRANCH  40  43
ATOM     43  O   UNL     1      16.824  28.573   7.363  0.00  0.00    +0.000 OA
ATOM     44  H   UNL     1      16.294  29.389   7.308  0.00  0.00    +0.000 HD
ENDBRANCH  40  43
ENDBRANCH  34  35
ENDBRANCH  32  33
ENDBRANCH  30  32
ENDBRANCH  19  30
TORSDOF 10
ENDMDL
MODEL 2
REMARK VINA RESULT:      -7.6      7.253     10.440
REMARK  Name = 91746246_sitosterol.pdbqt.pdb
REMARK  10 active torsions:
REMARK  status: ('A' for Active; 'I' for Inactive)
REMARK    1  A    between atoms: C_5  and  C_20
REMARK    2  A    between atoms: C_19  and  O_30
REMARK    3  A    between atoms: C_20  and  C_22
REMARK    4  A    between atoms: C_23  and  C_24
REMARK    5  A    between atoms: C_24  and  C_28
REMARK    6  A    between atoms: O_30  and  C_32
REMARK    7  A    between atoms: C_32  and  C_33
REMARK    8  A    between atoms: C_34  and  C_35
REMARK    9  A    between atoms: C_38  and  O_41
REMARK   10  A    between atoms: C_40  and  O_43
REMARK                            x       y       z     vdW  Elec       q    Type
REMARK                         _______ _______ _______ _____ _____    ______ ____
ROOT
ATOM      1  C   UNL     1       9.183  35.903  17.743  0.00  0.00    +0.000 C 
ATOM      2  C   UNL     1       9.279  37.423  17.188  0.00  0.00    +0.000 C 
ATOM      3  C   UNL     1      10.363  38.343  17.590  0.00  0.00    +0.000 C 
ATOM      4  C   UNL     1      11.624  37.959  18.323  0.00  0.00    +0.000 C 
ATOM      5  C   UNL     1       8.824  35.104  16.497  0.00  0.00    +0.000 C 
ATOM      6  C   UNL     1      10.510  35.628  18.293  0.00  0.00    +0.000 C 
ATOM      7  C   UNL     1      12.705  38.978  18.767  0.00  0.00    +0.000 C 
ATOM      8  C   UNL     1       8.807  37.413  15.838  0.00  0.00    +0.000 C 
ATOM      9  C   UNL     1      11.652  36.566  18.598  0.00  0.00    +0.000 C 
ATOM     10  C   UNL     1       8.558  35.991  15.413  0.00  0.00    +0.000 C 
ATOM     11  C   UNL     1      10.370  39.694  17.164  0.00  0.00    +0.000 C 
ATOM     12  C   UNL     1       8.031  35.872  18.783  0.00  0.00    +0.000 C 
ATOM     13  C   UNL     1      12.612  40.434  17.997  0.00  0.00    +0.000 C 
ATOM     14  C   UNL     1      14.067  38.479  18.415  0.00  0.00    +0.000 C 
ATOM     15  C   UNL     1      11.490  40.665  17.386  0.00  0.00    +0.000 C 
ATOM     16  C   UNL     1      12.557  39.253  20.293  0.00  0.00    +0.000 C 
ATOM     17  C   UNL     1      13.829  40.871  17.349  0.00  0.00    +0.000 C 
ATOM     18  C   UNL     1      15.255  39.077  17.643  0.00  0.00    +0.000 C 
ATOM     19  C   UNL     1      15.153  40.387  17.063  0.00  0.00    +0.000 C 
ENDROOT
BRANCH   5  20
ATOM     20  C   UNL     1       8.543  33.705  16.493  0.00  0.00    +0.000 C 
ATOM     21  C   UNL     1       9.631  32.665  16.530  0.00  0.00    +0.000 C 
BRANCH  20  22
ATOM     22  C   UNL     1       7.237  33.221  16.203  0.00  0.00    +0.000 C 
ATOM     23  C   UNL     1       5.826  32.699  15.891  0.00  0.00    +0.000 C 
BRANCH  23  24
ATOM     24  C   UNL     1       4.515  32.204  15.617  0.00  0.00    +0.000 C 
ATOM     25  C   UNL     1       3.528  33.026  14.949  0.00  0.00    +0.000 C 
ATOM     26  C   UNL     1       2.114  32.567  14.671  0.00  0.00    +0.000 C 
ATOM     27  C   UNL     1       3.826  34.430  14.463  0.00  0.00    +0.000 C 
BRANCH  24  28
ATOM     28  C   UNL     1       4.171  30.882  16.006  0.00  0.00    +0.000 C 
ATOM     29  C   UNL     1       3.735  29.468  16.405  0.00  0.00    +0.000 C 
ENDBRANCH  24  28
ENDBRANCH  23  24
ENDBRANCH  20  22
ENDBRANCH   5  20
BRANCH  19  30
ATOM     30  O   UNL     1      16.216  41.283  17.138  0.00  0.00    +0.000 OA
BRANCH  30  32
ATOM     31  O   UNL     1      16.583  42.773  15.390  0.00  0.00    +0.000 OA
ATOM     32  C   UNL     1      16.642  41.663  15.898  0.00  0.00    +0.000 C 
BRANCH  32  33
ATOM     33  C   UNL     1      17.246  40.563  15.187  0.00  0.00    +0.000 C 
ATOM     34  C   UNL     1      17.764  39.659  14.589  0.00  0.00    +0.000 C 
BRANCH  34  35
ATOM     35  C   UNL     1      18.391  38.598  13.872  0.00  0.00    +0.000 A 
ATOM     36  C   UNL     1      19.358  38.889  12.911  0.00  0.00    +0.000 A 
ATOM     37  C   UNL     1      18.034  37.276  14.126  0.00  0.00    +0.000 A 
ATOM     38  C   UNL     1      19.981  37.864  12.194  0.00  0.00    +0.000 A 
ATOM     39  C   UNL     1      18.647  36.244  13.419  0.00  0.00    +0.000 A 
ATOM     40  C   UNL     1      19.613  36.542  12.459  0.00  0.00    +0.000 A 
BRANCH  38  41
ATOM     41  O   UNL     1      20.940  38.064  11.232  0.00  0.00    +0.000 OA
ATOM     42  C   UNL     1      21.615  39.294  11.296  0.00  0.00    +0.000 C 
ENDBRANCH  38  41
BRANCH  40  43
ATOM     43  O   UNL     1      20.209  35.525  11.766  0.00  0.00    +0.000 OA
ATOM     44  H   UNL     1      20.127  34.703  12.286  0.00  0.00    +0.000 HD
ENDBRANCH  40  43
ENDBRANCH  34  35
ENDBRANCH  32  33
ENDBRANCH  30  32
ENDBRANCH  19  30
TORSDOF 10
ENDMDL
MODEL 3
REMARK VINA RESULT:      -7.6     35.283     37.437
REMARK  Name = 91746246_sitosterol.pdbqt.pdb
REMARK  10 active torsions:
REMARK  status: ('A' for Active; 'I' for Inactive)
REMARK    1  A    between atoms: C_5  and  C_20
REMARK    2  A    between atoms: C_19  and  O_30
REMARK    3  A    between atoms: C_20  and  C_22
REMARK    4  A    between atoms: C_23  and  C_24
REMARK    5  A    between atoms: C_24  and  C_28
REMARK    6  A    between atoms: O_30  and  C_32
REMARK    7  A    between atoms: C_32  and  C_33
REMARK    8  A    between atoms: C_34  and  C_35
REMARK    9  A    between atoms: C_38  and  O_41
REMARK   10  A    between atoms: C_40  and  O_43
REMARK                            x       y       z     vdW  Elec       q    Type
REMARK                         _______ _______ _______ _____ _____    ______ ____
ROOT
ATOM      1  C   UNL     1       1.118  59.294  -7.923  0.00  0.00    +0.000 C 
ATOM      2  C   UNL     1       1.602  57.756  -7.756  0.00  0.00    +0.000 C 
ATOM      3  C   UNL     1       2.981  57.325  -8.064  0.00  0.00    +0.000 C 
ATOM      4  C   UNL     1       4.159  58.235  -8.310  0.00  0.00    +0.000 C 
ATOM      5  C   UNL     1       0.296  59.533  -6.662  0.00  0.00    +0.000 C 
ATOM      6  C   UNL     1       2.359  60.063  -8.007  0.00  0.00    +0.000 C 
ATOM      7  C   UNL     1       5.576  57.727  -8.684  0.00  0.00    +0.000 C 
ATOM      8  C   UNL     1       0.915  57.214  -6.625  0.00  0.00    +0.000 C 
ATOM      9  C   UNL     1       3.780  59.600  -8.214  0.00  0.00    +0.000 C 
ATOM     10  C   UNL     1       0.141  58.311  -5.945  0.00  0.00    +0.000 C 
ATOM     11  C   UNL     1       3.352  55.959  -8.000  0.00  0.00    +0.000 C 
ATOM     12  C   UNL     1       0.229  59.354  -9.193  0.00  0.00    +0.000 C 
ATOM     13  C   UNL     1       5.825  56.129  -8.352  0.00  0.00    +0.000 C 
ATOM     14  C   UNL     1       6.612  58.423  -7.865  0.00  0.00    +0.000 C 
ATOM     15  C   UNL     1       4.748  55.434  -8.145  0.00  0.00    +0.000 C 
ATOM     16  C   UNL     1       5.807  57.922 -10.211  0.00  0.00    +0.000 C 
ATOM     17  C   UNL     1       6.978  55.840  -7.529  0.00  0.00    +0.000 C 
ATOM     18  C   UNL     1       7.768  57.940  -6.973  0.00  0.00    +0.000 C 
ATOM     19  C   UNL     1       7.995  56.534  -6.785  0.00  0.00    +0.000 C 
ENDROOT
BRANCH   5  20
ATOM     20  C   UNL     1      -0.423  60.736  -6.389  0.00  0.00    +0.000 C 
ATOM     21  C   UNL     1       0.243  61.959  -5.817  0.00  0.00    +0.000 C 
BRANCH  20  22
ATOM     22  C   UNL     1      -1.845  60.759  -6.408  0.00  0.00    +0.000 C 
ATOM     23  C   UNL     1      -3.381  60.787  -6.428  0.00  0.00    +0.000 C 
BRANCH  23  24
ATOM     24  C   UNL     1      -4.808  60.826  -6.434  0.00  0.00    +0.000 C 
ATOM     25  C   UNL     1      -5.569  60.229  -7.511  0.00  0.00    +0.000 C 
ATOM     26  C   UNL     1      -7.080  60.276  -7.588  0.00  0.00    +0.000 C 
ATOM     27  C   UNL     1      -4.918  59.494  -8.664  0.00  0.00    +0.000 C 
BRANCH  24  28
ATOM     28  C   UNL     1      -5.495  61.462  -5.366  0.00  0.00    +0.000 C 
ATOM     29  C   UNL     1      -6.227  62.209  -4.245  0.00  0.00    +0.000 C 
ENDBRANCH  24  28
ENDBRANCH  23  24
ENDBRANCH  20  22
ENDBRANCH   5  20
BRANCH  19  30
ATOM     30  O   UNL     1       9.287  56.016  -6.789  0.00  0.00    +0.000 OA
BRANCH  30  32
ATOM     31  O   UNL     1      10.648  57.661  -7.712  0.00  0.00    +0.000 OA
ATOM     32  C   UNL     1      10.057  56.592  -7.758  0.00  0.00    +0.000 C 
BRANCH  32  33
ATOM     33  C   UNL     1      10.150  55.754  -8.927  0.00  0.00    +0.000 C 
ATOM     34  C   UNL     1      10.239  55.044  -9.893  0.00  0.00    +0.000 C 
BRANCH  34  35
ATOM     35  C   UNL     1      10.358  54.190 -11.028  0.00  0.00    +0.000 A 
ATOM     36  C   UNL     1       9.312  53.332 -11.361  0.00  0.00    +0.000 A 
ATOM     37  C   UNL     1      11.519  54.209 -11.798  0.00  0.00    +0.000 A 
ATOM     38  C   UNL     1       9.411  52.483 -12.468  0.00  0.00    +0.000 A 
ATOM     39  C   UNL     1      11.632  53.368 -12.903  0.00  0.00    +0.000 A 
ATOM     40  C   UNL     1      10.581  52.512 -13.230  0.00  0.00    +0.000 A 
BRANCH  38  41
ATOM     41  O   UNL     1       8.429  51.608 -12.863  0.00  0.00    +0.000 OA
ATOM     42  C   UNL     1       7.198  52.193 -13.204  0.00  0.00    +0.000 C 
ENDBRANCH  38  41
BRANCH  40  43
ATOM     43  O   UNL     1      10.699  51.687 -14.316  0.00  0.00    +0.000 OA
ATOM     44  H   UNL     1      10.297  52.128 -15.088  0.00  0.00    +0.000 HD
ENDBRANCH  40  43
ENDBRANCH  34  35
ENDBRANCH  32  33
ENDBRANCH  30  32
ENDBRANCH  19  30
TORSDOF 10
ENDMDL
MODEL 4
REMARK VINA RESULT:      -7.5      1.039      2.106
REMARK  Name = 91746246_sitosterol.pdbqt.pdb
REMARK  10 active torsions:
REMARK  status: ('A' for Active; 'I' for Inactive)
REMARK    1  A    between atoms: C_5  and  C_20
REMARK    2  A    between atoms: C_19  and  O_30
REMARK    3  A    between atoms: C_20  and  C_22
REMARK    4  A    between atoms: C_23  and  C_24
REMARK    5  A    between atoms: C_24  and  C_28
REMARK    6  A    between atoms: O_30  and  C_32
REMARK    7  A    between atoms: C_32  and  C_33
REMARK    8  A    between atoms: C_34  and  C_35
REMARK    9  A    between atoms: C_38  and  O_41
REMARK   10  A    between atoms: C_40  and  O_43
REMARK                            x       y       z     vdW  Elec       q    Type
REMARK                         _______ _______ _______ _____ _____    ______ ____
ROOT
ATOM      1  C   UNL     1       9.680  31.505  16.847  0.00  0.00    +0.000 C 
ATOM      2  C   UNL     1      11.111  31.438  16.089  0.00  0.00    +0.000 C 
ATOM      3  C   UNL     1      11.941  30.217  16.077  0.00  0.00    +0.000 C 
ATOM      4  C   UNL     1      11.499  28.841  16.511  0.00  0.00    +0.000 C 
ATOM      5  C   UNL     1       8.798  32.245  15.849  0.00  0.00    +0.000 C 
ATOM      6  C   UNL     1       9.318  30.107  17.074  0.00  0.00    +0.000 C 
ATOM      7  C   UNL     1      12.433  27.603  16.528  0.00  0.00    +0.000 C 
ATOM      8  C   UNL     1      11.010  32.250  14.916  0.00  0.00    +0.000 C 
ATOM      9  C   UNL     1      10.149  28.853  16.952  0.00  0.00    +0.000 C 
ATOM     10  C   UNL     1       9.588  32.717  14.760  0.00  0.00    +0.000 C 
ATOM     11  C   UNL     1      13.230  30.214  15.488  0.00  0.00    +0.000 C 
ATOM     12  C   UNL     1       9.890  32.339  18.138  0.00  0.00    +0.000 C 
ATOM     13  C   UNL     1      13.799  27.779  15.620  0.00  0.00    +0.000 C 
ATOM     14  C   UNL     1      11.749  26.427  15.912  0.00  0.00    +0.000 C 
ATOM     15  C   UNL     1      14.088  29.001  15.289  0.00  0.00    +0.000 C 
ATOM     16  C   UNL     1      12.884  27.319  17.991  0.00  0.00    +0.000 C 
ATOM     17  C   UNL     1      14.025  26.747  14.633  0.00  0.00    +0.000 C 
ATOM     18  C   UNL     1      12.124  25.442  14.792  0.00  0.00    +0.000 C 
ATOM     19  C   UNL     1      13.368  25.589  14.088  0.00  0.00    +0.000 C 
ENDROOT
BRANCH   5  20
ATOM     20  C   UNL     1       7.446  32.628  16.103  0.00  0.00    +0.000 C 
ATOM     21  C   UNL     1       7.093  33.890  16.843  0.00  0.00    +0.000 C 
BRANCH  20  22
ATOM     22  C   UNL     1       6.374  31.717  15.890  0.00  0.00    +0.000 C 
ATOM     23  C   UNL     1       5.214  30.736  15.663  0.00  0.00    +0.000 C 
BRANCH  23  24
ATOM     24  C   UNL     1       4.134  29.823  15.468  0.00  0.00    +0.000 C 
ATOM     25  C   UNL     1       4.356  28.505  14.912  0.00  0.00    +0.000 C 
ATOM     26  C   UNL     1       3.243  27.516  14.647  0.00  0.00    +0.000 C 
ATOM     27  C   UNL     1       5.734  27.994  14.546  0.00  0.00    +0.000 C 
BRANCH  24  28
ATOM     28  C   UNL     1       2.816  30.215  15.826  0.00  0.00    +0.000 C 
ATOM     29  C   UNL     1       1.374  30.626  16.146  0.00  0.00    +0.000 C 
ENDBRANCH  24  28
ENDBRANCH  23  24
ENDBRANCH  20  22
ENDBRANCH   5  20
BRANCH  19  30
ATOM     30  O   UNL     1      14.141  24.476  13.772  0.00  0.00    +0.000 OA
BRANCH  30  32
ATOM     31  O   UNL     1      16.462  24.556  13.895  0.00  0.00    +0.000 OA
ATOM     32  C   UNL     1      15.395  24.834  13.368  0.00  0.00    +0.000 C 
BRANCH  32  33
ATOM     33  C   UNL     1      15.359  25.604  12.149  0.00  0.00    +0.000 C 
ATOM     34  C   UNL     1      15.326  26.230  11.124  0.00  0.00    +0.000 C 
BRANCH  34  35
ATOM     35  C   UNL     1      15.285  26.956   9.898  0.00  0.00    +0.000 A 
ATOM     36  C   UNL     1      16.122  26.586   8.847  0.00  0.00    +0.000 A 
ATOM     37  C   UNL     1      14.416  28.035   9.753  0.00  0.00    +0.000 A 
ATOM     38  C   UNL     1      16.101  27.288   7.638  0.00  0.00    +0.000 A 
ATOM     39  C   UNL     1      14.385  28.744   8.555  0.00  0.00    +0.000 A 
ATOM     40  C   UNL     1      15.225  28.369   7.508  0.00  0.00    +0.000 A 
BRANCH  38  41
ATOM     41  O   UNL     1      16.893  26.991   6.556  0.00  0.00    +0.000 OA
ATOM     42  C   UNL     1      18.249  27.328   6.688  0.00  0.00    +0.000 C 
ENDBRANCH  38  41
BRANCH  40  43
ATOM     43  O   UNL     1      15.191  29.071   6.334  0.00  0.00    +0.000 OA
ATOM     44  H   UNL     1      15.934  29.703   6.326  0.00  0.00    +0.000 HD
ENDBRANCH  40  43
ENDBRANCH  34  35
ENDBRANCH  32  33
ENDBRANCH  30  32
ENDBRANCH  19  30
TORSDOF 10
ENDMDL
MODEL 5
REMARK VINA RESULT:      -7.4     19.294     25.245
REMARK  Name = 91746246_sitosterol.pdbqt.pdb
REMARK  10 active torsions:
REMARK  status: ('A' for Active; 'I' for Inactive)
REMARK    1  A    between atoms: C_5  and  C_20
REMARK    2  A    between atoms: C_19  and  O_30
REMARK    3  A    between atoms: C_20  and  C_22
REMARK    4  A    between atoms: C_23  and  C_24
REMARK    5  A    between atoms: C_24  and  C_28
REMARK    6  A    between atoms: O_30  and  C_32
REMARK    7  A    between atoms: C_32  and  C_33
REMARK    8  A    between atoms: C_34  and  C_35
REMARK    9  A    between atoms: C_38  and  O_41
REMARK   10  A    between atoms: C_40  and  O_43
REMARK                            x       y       z     vdW  Elec       q    Type
REMARK                         _______ _______ _______ _____ _____    ______ ____
ROOT
ATOM      1  C   UNL     1      -4.682  15.394  10.261  0.00  0.00    +0.000 C 
ATOM      2  C   UNL     1      -5.064  15.991  11.718  0.00  0.00    +0.000 C 
ATOM      3  C   UNL     1      -6.364  16.636  11.991  0.00  0.00    +0.000 C 
ATOM      4  C   UNL     1      -7.574  16.604  11.091  0.00  0.00    +0.000 C 
ATOM      5  C   UNL     1      -4.022  14.063  10.597  0.00  0.00    +0.000 C 
ATOM      6  C   UNL     1      -5.961  15.290   9.560  0.00  0.00    +0.000 C 
ATOM      7  C   UNL     1      -8.900  17.346  11.405  0.00  0.00    +0.000 C 
ATOM      8  C   UNL     1      -4.463  15.139  12.698  0.00  0.00    +0.000 C 
ATOM      9  C   UNL     1      -7.313  15.864   9.907  0.00  0.00    +0.000 C 
ATOM     10  C   UNL     1      -3.853  13.949  12.009  0.00  0.00    +0.000 C 
ATOM     11  C   UNL     1      -6.635  17.233  13.247  0.00  0.00    +0.000 C 
ATOM     12  C   UNL     1      -3.668  16.378   9.619  0.00  0.00    +0.000 C 
ATOM     13  C   UNL     1      -9.061  17.793  12.985  0.00  0.00    +0.000 C 
ATOM     14  C   UNL     1     -10.068  16.447  11.171  0.00  0.00    +0.000 C 
ATOM     15  C   UNL     1      -7.964  17.777  13.678  0.00  0.00    +0.000 C 
ATOM     16  C   UNL     1      -8.978  18.644  10.548  0.00  0.00    +0.000 C 
ATOM     17  C   UNL     1     -10.271  17.342  13.635  0.00  0.00    +0.000 C 
ATOM     18  C   UNL     1     -11.273  16.022  12.026  0.00  0.00    +0.000 C 
ATOM     19  C   UNL     1     -11.413  16.507  13.370  0.00  0.00    +0.000 C 
ENDROOT
BRANCH   5  20
ATOM     20  C   UNL     1      -3.430  13.193   9.632  0.00  0.00    +0.000 C 
ATOM     21  C   UNL     1      -4.246  12.240   8.800  0.00  0.00    +0.000 C 
BRANCH  20  22
ATOM     22  C   UNL     1      -2.021  13.003   9.584  0.00  0.00    +0.000 C 
ATOM     23  C   UNL     1      -0.499  12.795   9.535  0.00  0.00    +0.000 C 
BRANCH  23  24
ATOM     24  C   UNL     1       0.915  12.604   9.506  0.00  0.00    +0.000 C 
ATOM     25  C   UNL     1       1.511  11.353   9.925  0.00  0.00    +0.000 C 
ATOM     26  C   UNL     1       3.004  11.112   9.954  0.00  0.00    +0.000 C 
ATOM     27  C   UNL     1       0.687  10.164  10.373  0.00  0.00    +0.000 C 
BRANCH  24  28
ATOM     28  C   UNL     1       1.754  13.660   9.059  0.00  0.00    +0.000 C 
ATOM     29  C   UNL     1       2.636  14.838   8.631  0.00  0.00    +0.000 C 
ENDBRANCH  24  28
ENDBRANCH  23  24
ENDBRANCH  20  22
ENDBRANCH   5  20
BRANCH  19  30
ATOM     30  O   UNL     1     -12.654  16.909  13.856  0.00  0.00    +0.000 OA
BRANCH  30  32
ATOM     31  O   UNL     1     -14.503  15.629  14.447  0.00  0.00    +0.000 OA
ATOM     32  C   UNL     1     -13.308  15.884  14.475  0.00  0.00    +0.000 C 
BRANCH  32  33
ATOM     33  C   UNL     1     -12.395  15.035  15.200  0.00  0.00    +0.000 C 
ATOM     34  C   UNL     1     -11.624  14.343  15.809  0.00  0.00    +0.000 C 
BRANCH  34  35
ATOM     35  C   UNL     1     -10.699  13.538  16.537  0.00  0.00    +0.000 A 
ATOM     36  C   UNL     1      -9.819  12.703  15.850  0.00  0.00    +0.000 A 
ATOM     37  C   UNL     1     -10.679  13.581  17.928  0.00  0.00    +0.000 A 
ATOM     38  C   UNL     1      -8.909  11.902  16.544  0.00  0.00    +0.000 A 
ATOM     39  C   UNL     1      -9.777  12.788  18.634  0.00  0.00    +0.000 A 
ATOM     40  C   UNL     1      -8.901  11.955  17.941  0.00  0.00    +0.000 A 
BRANCH  38  41
ATOM     41  O   UNL     1      -8.011  11.052  15.946  0.00  0.00    +0.000 OA
ATOM     42  C   UNL     1      -7.414  11.533  14.769  0.00  0.00    +0.000 C 
ENDBRANCH  38  41
BRANCH  40  43
ATOM     43  O   UNL     1      -8.019  11.176  18.640  0.00  0.00    +0.000 OA
ATOM     44  H   UNL     1      -7.158  11.635  18.675  0.00  0.00    +0.000 HD
ENDBRANCH  40  43
ENDBRANCH  34  35
ENDBRANCH  32  33
ENDBRANCH  30  32
ENDBRANCH  19  30
TORSDOF 10
ENDMDL
MODEL 6
REMARK VINA RESULT:      -7.2     32.535     35.984
REMARK  Name = 91746246_sitosterol.pdbqt.pdb
REMARK  10 active torsions:
REMARK  status: ('A' for Active; 'I' for Inactive)
REMARK    1  A    between atoms: C_5  and  C_20
REMARK    2  A    between atoms: C_19  and  O_30
REMARK    3  A    between atoms: C_20  and  C_22
REMARK    4  A    between atoms: C_23  and  C_24
REMARK    5  A    between atoms: C_24  and  C_28
REMARK    6  A    between atoms: O_30  and  C_32
REMARK    7  A    between atoms: C_32  and  C_33
REMARK    8  A    between atoms: C_34  and  C_35
REMARK    9  A    between atoms: C_38  and  O_41
REMARK   10  A    between atoms: C_40  and  O_43
REMARK                            x       y       z     vdW  Elec       q    Type
REMARK                         _______ _______ _______ _____ _____    ______ ____
ROOT
ATOM      1  C   UNL     1       9.362  53.863 -13.642  0.00  0.00    +0.000 C 
ATOM      2  C   UNL     1       8.129  53.454 -14.611  0.00  0.00    +0.000 C 
ATOM      3  C   UNL     1       8.257  52.417 -15.655  0.00  0.00    +0.000 C 
ATOM      4  C   UNL     1       9.400  51.444 -15.801  0.00  0.00    +0.000 C 
ATOM      5  C   UNL     1       8.702  53.971 -12.273  0.00  0.00    +0.000 C 
ATOM      6  C   UNL     1      10.320  52.767 -13.782  0.00  0.00    +0.000 C 
ATOM      7  C   UNL     1       9.507  50.409 -16.951  0.00  0.00    +0.000 C 
ATOM      8  C   UNL     1       6.930  53.554 -13.839  0.00  0.00    +0.000 C 
ATOM      9  C   UNL     1      10.377  51.646 -14.791  0.00  0.00    +0.000 C 
ATOM     10  C   UNL     1       7.288  53.842 -12.406  0.00  0.00    +0.000 C 
ATOM     11  C   UNL     1       7.192  52.146 -16.549  0.00  0.00    +0.000 C 
ATOM     12  C   UNL     1       9.881  55.243 -14.127  0.00  0.00    +0.000 C 
ATOM     13  C   UNL     1       8.084  50.131 -17.740  0.00  0.00    +0.000 C 
ATOM     14  C   UNL     1       9.879  49.068 -16.412  0.00  0.00    +0.000 C 
ATOM     15  C   UNL     1       7.160  51.021 -17.540  0.00  0.00    +0.000 C 
ATOM     16  C   UNL     1      10.529  50.920 -18.009  0.00  0.00    +0.000 C 
ATOM     17  C   UNL     1       7.677  48.746 -17.812  0.00  0.00    +0.000 C 
ATOM     18  C   UNL     1       9.277  47.659 -16.549  0.00  0.00    +0.000 C 
ATOM     19  C   UNL     1       8.082  47.456 -17.319  0.00  0.00    +0.000 C 
ENDROOT
BRANCH   5  20
ATOM     20  C   UNL     1       9.374  54.398 -11.089  0.00  0.00    +0.000 C 
ATOM     21  C   UNL     1      10.793  54.000 -10.780  0.00  0.00    +0.000 C 
BRANCH  20  22
ATOM     22  C   UNL     1       8.660  55.012 -10.022  0.00  0.00    +0.000 C 
ATOM     23  C   UNL     1       7.890  55.673  -8.868  0.00  0.00    +0.000 C 
BRANCH  23  24
ATOM     24  C   UNL     1       7.165  56.273  -7.795  0.00  0.00    +0.000 C 
ATOM     25  C   UNL     1       7.772  57.278  -6.949  0.00  0.00    +0.000 C 
ATOM     26  C   UNL     1       7.064  57.915  -5.773  0.00  0.00    +0.000 C 
ATOM     27  C   UNL     1       9.182  57.789  -7.168  0.00  0.00    +0.000 C 
BRANCH  24  28
ATOM     28  C   UNL     1       5.823  55.876  -7.551  0.00  0.00    +0.000 C 
ATOM     29  C   UNL     1       4.393  55.382  -7.304  0.00  0.00    +0.000 C 
ENDBRANCH  24  28
ENDBRANCH  23  24
ENDBRANCH  20  22
ENDBRANCH   5  20
BRANCH  19  30
ATOM     30  O   UNL     1       7.957  46.357 -18.163  0.00  0.00    +0.000 OA
BRANCH  30  32
ATOM     31  O   UNL     1       6.088  45.254 -17.326  0.00  0.00    +0.000 OA
ATOM     32  C   UNL     1       7.285  45.333 -17.559  0.00  0.00    +0.000 C 
BRANCH  32  33
ATOM     33  C   UNL     1       8.171  44.248 -17.216  0.00  0.00    +0.000 C 
ATOM     34  C   UNL     1       8.916  43.355 -16.916  0.00  0.00    +0.000 C 
BRANCH  34  35
ATOM     35  C   UNL     1       9.808  42.305 -16.546  0.00  0.00    +0.000 A 
ATOM     36  C   UNL     1      10.877  42.575 -15.694  0.00  0.00    +0.000 A 
ATOM     37  C   UNL     1       9.614  41.018 -17.040  0.00  0.00    +0.000 A 
ATOM     38  C   UNL     1      11.766  41.561 -15.324  0.00  0.00    +0.000 A 
ATOM     39  C   UNL     1      10.492  39.998 -16.680  0.00  0.00    +0.000 A 
ATOM     40  C   UNL     1      11.560  40.274 -15.827  0.00  0.00    +0.000 A 
BRANCH  38  41
ATOM     41  O   UNL     1      12.844  41.742 -14.492  0.00  0.00    +0.000 OA
ATOM     42  C   UNL     1      13.696  42.806 -14.829  0.00  0.00    +0.000 C 
ENDBRANCH  38  41
BRANCH  40  43
ATOM     43  O   UNL     1      12.420  39.268 -15.479  0.00  0.00    +0.000 OA
ATOM     44  H   UNL     1      11.905  38.451 -15.340  0.00  0.00    +0.000 HD
ENDBRANCH  40  43
ENDBRANCH  34  35
ENDBRANCH  32  33
ENDBRANCH  30  32
ENDBRANCH  19  30
TORSDOF 10
ENDMDL
MODEL 7
REMARK VINA RESULT:      -7.2     21.198     27.656
REMARK  Name = 91746246_sitosterol.pdbqt.pdb
REMARK  10 active torsions:
REMARK  status: ('A' for Active; 'I' for Inactive)
REMARK    1  A    between atoms: C_5  and  C_20
REMARK    2  A    between atoms: C_19  and  O_30
REMARK    3  A    between atoms: C_20  and  C_22
REMARK    4  A    between atoms: C_23  and  C_24
REMARK    5  A    between atoms: C_24  and  C_28
REMARK    6  A    between atoms: O_30  and  C_32
REMARK    7  A    between atoms: C_32  and  C_33
REMARK    8  A    between atoms: C_34  and  C_35
REMARK    9  A    between atoms: C_38  and  O_41
REMARK   10  A    between atoms: C_40  and  O_43
REMARK                            x       y       z     vdW  Elec       q    Type
REMARK                         _______ _______ _______ _____ _____    ______ ____
ROOT
ATOM      1  C   UNL     1      -7.800  15.290  13.108  0.00  0.00    +0.000 C 
ATOM      2  C   UNL     1      -9.387  15.564  13.288  0.00  0.00    +0.000 C 
ATOM      3  C   UNL     1     -10.267  14.643  14.035  0.00  0.00    +0.000 C 
ATOM      4  C   UNL     1      -9.814  13.510  14.922  0.00  0.00    +0.000 C 
ATOM      5  C   UNL     1      -7.185  16.663  13.351  0.00  0.00    +0.000 C 
ATOM      6  C   UNL     1      -7.483  14.283  14.119  0.00  0.00    +0.000 C 
ATOM      7  C   UNL     1     -10.786  12.539  15.641  0.00  0.00    +0.000 C 
ATOM      8  C   UNL     1      -9.564  16.979  13.402  0.00  0.00    +0.000 C 
ATOM      9  C   UNL     1      -8.397  13.422  14.957  0.00  0.00    +0.000 C 
ATOM     10  C   UNL     1      -8.215  17.642  13.468  0.00  0.00    +0.000 C 
ATOM     11  C   UNL     1     -11.666  14.858  14.097  0.00  0.00    +0.000 C 
ATOM     12  C   UNL     1      -7.584  14.829  11.642  0.00  0.00    +0.000 C 
ATOM     13  C   UNL     1     -12.337  13.093  15.741  0.00  0.00    +0.000 C 
ATOM     14  C   UNL     1     -10.383  12.359  17.067  0.00  0.00    +0.000 C 
ATOM     15  C   UNL     1     -12.625  14.076  14.945  0.00  0.00    +0.000 C 
ATOM     16  C   UNL     1     -10.828  11.188  14.868  0.00  0.00    +0.000 C 
ATOM     17  C   UNL     1     -12.899  13.124  17.073  0.00  0.00    +0.000 C 
ATOM     18  C   UNL     1     -11.121  12.494  18.409  0.00  0.00    +0.000 C 
ATOM     19  C   UNL     1     -12.499  12.898  18.438  0.00  0.00    +0.000 C 
ENDROOT
BRANCH   5  20
ATOM     20  C   UNL     1      -5.794  16.955  13.216  0.00  0.00    +0.000 C 
ATOM     21  C   UNL     1      -5.063  17.852  14.179  0.00  0.00    +0.000 C 
BRANCH  20  22
ATOM     22  C   UNL     1      -5.086  16.618  12.029  0.00  0.00    +0.000 C 
ATOM     23  C   UNL     1      -4.323  16.251  10.746  0.00  0.00    +0.000 C 
BRANCH  23  24
ATOM     24  C   UNL     1      -3.607  15.897   9.563  0.00  0.00    +0.000 C 
ATOM     25  C   UNL     1      -2.955  14.610   9.439  0.00  0.00    +0.000 C 
ATOM     26  C   UNL     1      -2.149  14.200   8.226  0.00  0.00    +0.000 C 
ATOM     27  C   UNL     1      -3.025  13.550  10.519  0.00  0.00    +0.000 C 
BRANCH  24  28
ATOM     28  C   UNL     1      -3.531  16.822   8.489  0.00  0.00    +0.000 C 
ATOM     29  C   UNL     1      -3.445  17.873   7.376  0.00  0.00    +0.000 C 
ENDBRANCH  24  28
ENDBRANCH  23  24
ENDBRANCH  20  22
ENDBRANCH   5  20
BRANCH  19  30
ATOM     30  O   UNL     1     -13.403  12.283  19.299  0.00  0.00    +0.000 OA
BRANCH  30  32
ATOM     31  O   UNL     1     -12.605  10.105  19.459  0.00  0.00    +0.000 OA
ATOM     32  C   UNL     1     -12.846  11.207  19.927  0.00  0.00    +0.000 C 
BRANCH  32  33
ATOM     33  C   UNL     1     -12.508  11.511  21.296  0.00  0.00    +0.000 C 
ATOM     34  C   UNL     1     -12.212  11.774  22.430  0.00  0.00    +0.000 C 
BRANCH  34  35
ATOM     35  C   UNL     1     -11.844  12.095  23.770  0.00  0.00    +0.000 A 
ATOM     36  C   UNL     1     -12.514  13.113  24.446  0.00  0.00    +0.000 A 
ATOM     37  C   UNL     1     -10.815  11.398  24.398  0.00  0.00    +0.000 A 
ATOM     38  C   UNL     1     -12.165  13.447  25.758  0.00  0.00    +0.000 A 
ATOM     39  C   UNL     1     -10.456  11.720  25.705  0.00  0.00    +0.000 A 
ATOM     40  C   UNL     1     -11.130  12.740  26.375  0.00  0.00    +0.000 A 
BRANCH  38  41
ATOM     41  O   UNL     1     -12.772  14.436  26.493  0.00  0.00    +0.000 OA
ATOM     42  C   UNL     1     -14.066  14.141  26.952  0.00  0.00    +0.000 C 
ENDBRANCH  38  41
BRANCH  40  43
ATOM     43  O   UNL     1     -10.771  13.053  27.658  0.00  0.00    +0.000 OA
ATOM     44  H   UNL     1      -9.799  13.109  27.706  0.00  0.00    +0.000 HD
ENDBRANCH  40  43
ENDBRANCH  34  35
ENDBRANCH  32  33
ENDBRANCH  30  32
ENDBRANCH  19  30
TORSDOF 10
ENDMDL
MODEL 8
REMARK VINA RESULT:      -7.2     34.828     37.949
REMARK  Name = 91746246_sitosterol.pdbqt.pdb
REMARK  10 active torsions:
REMARK  status: ('A' for Active; 'I' for Inactive)
REMARK    1  A    between atoms: C_5  and  C_20
REMARK    2  A    between atoms: C_19  and  O_30
REMARK    3  A    between atoms: C_20  and  C_22
REMARK    4  A    between atoms: C_23  and  C_24
REMARK    5  A    between atoms: C_24  and  C_28
REMARK    6  A    between atoms: O_30  and  C_32
REMARK    7  A    between atoms: C_32  and  C_33
REMARK    8  A    between atoms: C_34  and  C_35
REMARK    9  A    between atoms: C_38  and  O_41
REMARK   10  A    between atoms: C_40  and  O_43
REMARK                            x       y       z     vdW  Elec       q    Type
REMARK                         _______ _______ _______ _____ _____    ______ ____
ROOT
ATOM      1  C   UNL     1       9.623  53.203 -14.692  0.00  0.00    +0.000 C 
ATOM      2  C   UNL     1      10.594  53.278 -13.397  0.00  0.00    +0.000 C 
ATOM      3  C   UNL     1      10.381  54.250 -12.306  0.00  0.00    +0.000 C 
ATOM      4  C   UNL     1       9.149  55.097 -12.103  0.00  0.00    +0.000 C 
ATOM      5  C   UNL     1       9.422  51.705 -14.885  0.00  0.00    +0.000 C 
ATOM      6  C   UNL     1       8.425  53.942 -14.297  0.00  0.00    +0.000 C 
ATOM      7  C   UNL     1       9.002  56.144 -10.968  0.00  0.00    +0.000 C 
ATOM      8  C   UNL     1      11.008  51.942 -13.098  0.00  0.00    +0.000 C 
ATOM      9  C   UNL     1       8.185  54.850 -13.116  0.00  0.00    +0.000 C 
ATOM     10  C   UNL     1      10.267  50.984 -13.992  0.00  0.00    +0.000 C 
ATOM     11  C   UNL     1      11.298  54.356 -11.232  0.00  0.00    +0.000 C 
ATOM     12  C   UNL     1      10.405  53.823 -15.881  0.00  0.00    +0.000 C 
ATOM     13  C   UNL     1      10.082  55.953  -9.735  0.00  0.00    +0.000 C 
ATOM     14  C   UNL     1       7.675  56.004 -10.299  0.00  0.00    +0.000 C 
ATOM     15  C   UNL     1      11.102  55.197 -10.006  0.00  0.00    +0.000 C 
ATOM     16  C   UNL     1       9.217  57.571 -11.553  0.00  0.00    +0.000 C 
ATOM     17  C   UNL     1       9.502  55.848  -8.415  0.00  0.00    +0.000 C 
ATOM     18  C   UNL     1       7.231  55.837  -8.837  0.00  0.00    +0.000 C 
ATOM     19  C   UNL     1       8.210  55.762  -7.788  0.00  0.00    +0.000 C 
ENDROOT
BRANCH   5  20
ATOM     20  C   UNL     1       8.698  51.125 -15.970  0.00  0.00    +0.000 C 
ATOM     21  C   UNL     1       7.554  51.834 -16.645  0.00  0.00    +0.000 C 
BRANCH  20  22
ATOM     22  C   UNL     1       8.854  49.751 -16.304  0.00  0.00    +0.000 C 
ATOM     23  C   UNL     1       9.024  48.266 -16.662  0.00  0.00    +0.000 C 
BRANCH  23  24
ATOM     24  C   UNL     1       9.194  46.886 -16.983  0.00  0.00    +0.000 C 
ATOM     25  C   UNL     1      10.306  46.437 -17.794  0.00  0.00    +0.000 C 
ATOM     26  C   UNL     1      10.512  44.993 -18.198  0.00  0.00    +0.000 C 
ATOM     27  C   UNL     1      11.374  47.378 -18.311  0.00  0.00    +0.000 C 
BRANCH  24  28
ATOM     28  C   UNL     1       8.256  45.935 -16.500  0.00  0.00    +0.000 C 
ATOM     29  C   UNL     1       7.259  44.868 -16.033  0.00  0.00    +0.000 C 
ENDBRANCH  24  28
ENDBRANCH  23  24
ENDBRANCH  20  22
ENDBRANCH   5  20
BRANCH  19  30
ATOM     30  O   UNL     1       8.013  56.428  -6.583  0.00  0.00    +0.000 OA
BRANCH  30  32
ATOM     31  O   UNL     1       8.245  58.704  -6.999  0.00  0.00    +0.000 OA
ATOM     32  C   UNL     1       7.575  57.706  -6.780  0.00  0.00    +0.000 C 
BRANCH  32  33
ATOM     33  C   UNL     1       6.136  57.785  -6.735  0.00  0.00    +0.000 C 
ATOM     34  C   UNL     1       4.937  57.838  -6.683  0.00  0.00    +0.000 C 
BRANCH  34  35
ATOM     35  C   UNL     1       3.514  57.888  -6.608  0.00  0.00    +0.000 A 
ATOM     36  C   UNL     1       2.889  59.010  -6.066  0.00  0.00    +0.000 A 
ATOM     37  C   UNL     1       2.752  56.817  -7.068  0.00  0.00    +0.000 A 
ATOM     38  C   UNL     1       1.496  59.076  -5.978  0.00  0.00    +0.000 A 
ATOM     39  C   UNL     1       1.363  56.869  -6.986  0.00  0.00    +0.000 A 
ATOM     40  C   UNL     1       0.744  57.993  -6.442  0.00  0.00    +0.000 A 
BRANCH  38  41
ATOM     41  O   UNL     1       0.802  60.141  -5.457  0.00  0.00    +0.000 OA
ATOM     42  C   UNL     1       0.960  61.358  -6.140  0.00  0.00    +0.000 C 
ENDBRANCH  38  41
BRANCH  40  43
ATOM     43  O   UNL     1      -0.621  58.038  -6.363  0.00  0.00    +0.000 OA
ATOM     44  H   UNL     1      -0.966  58.486  -7.158  0.00  0.00    +0.000 HD
ENDBRANCH  40  43
ENDBRANCH  34  35
ENDBRANCH  32  33
ENDBRANCH  30  32
ENDBRANCH  19  30
TORSDOF 10
ENDMDL
MODEL 9
REMARK VINA RESULT:      -7.1     19.041     24.154
REMARK  Name = 91746246_sitosterol.pdbqt.pdb
REMARK  10 active torsions:
REMARK  status: ('A' for Active; 'I' for Inactive)
REMARK    1  A    between atoms: C_5  and  C_20
REMARK    2  A    between atoms: C_19  and  O_30
REMARK    3  A    between atoms: C_20  and  C_22
REMARK    4  A    between atoms: C_23  and  C_24
REMARK    5  A    between atoms: C_24  and  C_28
REMARK    6  A    between atoms: O_30  and  C_32
REMARK    7  A    between atoms: C_32  and  C_33
REMARK    8  A    between atoms: C_34  and  C_35
REMARK    9  A    between atoms: C_38  and  O_41
REMARK   10  A    between atoms: C_40  and  O_43
REMARK                            x       y       z     vdW  Elec       q    Type
REMARK                         _______ _______ _______ _____ _____    ______ ____
ROOT
ATOM      1  C   UNL     1       0.778  19.162  29.974  0.00  0.00    +0.000 C 
ATOM      2  C   UNL     1       1.756  20.454  29.981  0.00  0.00    +0.000 C 
ATOM      3  C   UNL     1       1.343  21.760  29.430  0.00  0.00    +0.000 C 
ATOM      4  C   UNL     1      -0.061  22.152  29.040  0.00  0.00    +0.000 C 
ATOM      5  C   UNL     1       0.981  18.569  31.362  0.00  0.00    +0.000 C 
ATOM      6  C   UNL     1      -0.554  19.711  29.725  0.00  0.00    +0.000 C 
ATOM      7  C   UNL     1      -0.428  23.523  28.414  0.00  0.00    +0.000 C 
ATOM      8  C   UNL     1       2.532  20.393  31.181  0.00  0.00    +0.000 C 
ATOM      9  C   UNL     1      -0.971  21.086  29.265  0.00  0.00    +0.000 C 
ATOM     10  C   UNL     1       2.035  19.256  32.033  0.00  0.00    +0.000 C 
ATOM     11  C   UNL     1       2.250  22.846  29.364  0.00  0.00    +0.000 C 
ATOM     12  C   UNL     1       1.301  18.204  28.871  0.00  0.00    +0.000 C 
ATOM     13  C   UNL     1       0.724  24.686  28.620  0.00  0.00    +0.000 C 
ATOM     14  C   UNL     1      -1.632  24.096  29.085  0.00  0.00    +0.000 C 
ATOM     15  C   UNL     1       1.896  24.247  28.966  0.00  0.00    +0.000 C 
ATOM     16  C   UNL     1      -0.639  23.348  26.881  0.00  0.00    +0.000 C 
ATOM     17  C   UNL     1       0.262  25.914  29.227  0.00  0.00    +0.000 C 
ATOM     18  C   UNL     1      -1.940  25.448  29.749  0.00  0.00    +0.000 C 
ATOM     19  C   UNL     1      -0.925  26.462  29.828  0.00  0.00    +0.000 C 
ENDROOT
BRANCH   5  20
ATOM     20  C   UNL     1       0.388  17.350  31.810  0.00  0.00    +0.000 C 
ATOM     21  C   UNL     1       1.060  16.015  31.631  0.00  0.00    +0.000 C 
BRANCH  20  22
ATOM     22  C   UNL     1      -0.974  17.305  32.219  0.00  0.00    +0.000 C 
ATOM     23  C   UNL     1      -2.444  17.258  32.664  0.00  0.00    +0.000 C 
BRANCH  23  24
ATOM     24  C   UNL     1      -3.805  17.203  33.091  0.00  0.00    +0.000 C 
ATOM     25  C   UNL     1      -4.892  17.390  32.155  0.00  0.00    +0.000 C 
ATOM     26  C   UNL     1      -6.350  17.384  32.560  0.00  0.00    +0.000 C 
ATOM     27  C   UNL     1      -4.667  17.608  30.672  0.00  0.00    +0.000 C 
BRANCH  24  28
ATOM     28  C   UNL     1      -4.099  16.962  34.460  0.00  0.00    +0.000 C 
ATOM     29  C   UNL     1      -4.356  16.667  35.942  0.00  0.00    +0.000 C 
ENDBRANCH  24  28
ENDBRANCH  23  24
ENDBRANCH  20  22
ENDBRANCH   5  20
BRANCH  19  30
ATOM     30  O   UNL     1      -1.234  27.797  29.586  0.00  0.00    +0.000 OA
BRANCH  30  32
ATOM     31  O   UNL     1       0.583  28.982  30.425  0.00  0.00    +0.000 OA
ATOM     32  C   UNL     1      -0.587  28.628  30.454  0.00  0.00    +0.000 C 
BRANCH  32  33
ATOM     33  C   UNL     1      -1.476  29.122  31.476  0.00  0.00    +0.000 C 
ATOM     34  C   UNL     1      -2.207  29.548  32.329  0.00  0.00    +0.000 C 
BRANCH  34  35
ATOM     35  C   UNL     1      -3.062  30.070  33.344  0.00  0.00    +0.000 A 
ATOM     36  C   UNL     1      -3.638  31.329  33.183  0.00  0.00    +0.000 A 
ATOM     37  C   UNL     1      -3.314  29.327  34.494  0.00  0.00    +0.000 A 
ATOM     38  C   UNL     1      -4.475  31.860  34.168  0.00  0.00    +0.000 A 
ATOM     39  C   UNL     1      -4.146  29.844  35.485  0.00  0.00    +0.000 A 
ATOM     40  C   UNL     1      -4.719  31.104  35.318  0.00  0.00    +0.000 A 
BRANCH  38  41
ATOM     41  O   UNL     1      -5.080  33.090  34.089  0.00  0.00    +0.000 OA
ATOM     42  C   UNL     1      -6.037  33.230  33.071  0.00  0.00    +0.000 C 
ENDBRANCH  38  41
BRANCH  40  43
ATOM     43  O   UNL     1      -5.533  31.608  36.295  0.00  0.00    +0.000 OA
ATOM     44  H   UNL     1      -6.169  32.224  35.886  0.00  0.00    +0.000 HD
ENDBRANCH  40  43
ENDBRANCH  34  35
ENDBRANCH  32  33
ENDBRANCH  30  32
ENDBRANCH  19  30
TORSDOF 10
ENDMDL
