MODEL 1
REMARK VINA RESULT:      -4.8      0.000      0.000
REMARK  Name = 92041_2Ethoxy5fluorouracil.pdbqt.pdb
REMARK  2 active torsions:
REMARK  status: ('A' for Active; 'I' for Inactive)
REMARK    1  A    between atoms: C_5  and  O_10
REMARK    2  A    between atoms: O_10  and  C_11
REMARK                            x       y       z     vdW  Elec       q    Type
REMARK                         _______ _______ _______ _____ _____    ______ ____
ROOT
ATOM      1  F   UNL     1      -1.649  30.984  14.512  0.00  0.00    +0.000 F 
ATOM      2  O   UNL     1      -3.220  33.091  13.405  0.00  0.00    +0.000 OA
ATOM      3  N   UNL     1      -2.088  34.562  14.759  0.00  0.00    +0.000 N 
ATOM      4  N   UNL     1      -0.271  33.923  16.132  0.00  0.00    +0.000 NA
ATOM      5  C   UNL     1      -1.111  34.828  15.715  0.00  0.00    +0.000 C 
ATOM      6  C   UNL     1      -2.295  33.310  14.175  0.00  0.00    +0.000 C 
ATOM      7  C   UNL     1      -1.297  32.278  14.600  0.00  0.00    +0.000 C 
ATOM      8  C   UNL     1      -0.511  32.767  15.500  0.00  0.00    +0.000 C 
ATOM      9  H   UNL     1      -2.738  35.289  14.501  0.00  0.00    +0.000 HD
ENDROOT
BRANCH   5  10
ATOM     10  O   UNL     1      -1.142  36.110  16.147  0.00  0.00    +0.000 OA
BRANCH  10  11
ATOM     11  C   UNL     1      -1.281  37.041  15.207  0.00  0.00    +0.000 C 
ATOM     12  C   UNL     1      -1.502  38.096  14.119  0.00  0.00    +0.000 C 
ENDBRANCH  10  11
ENDBRANCH   5  10
TORSDOF 2
ENDMDL
MODEL 2
REMARK VINA RESULT:      -4.7      4.615      6.481
REMARK  Name = 92041_2Ethoxy5fluorouracil.pdbqt.pdb
REMARK  2 active torsions:
REMARK  status: ('A' for Active; 'I' for Inactive)
REMARK    1  A    between atoms: C_5  and  O_10
REMARK    2  A    between atoms: O_10  and  C_11
REMARK                            x       y       z     vdW  Elec       q    Type
REMARK                         _______ _______ _______ _____ _____    ______ ____
ROOT
ATOM      1  F   UNL     1      -1.020  32.176  16.526  0.00  0.00    +0.000 F 
ATOM      2  O   UNL     1       1.420  33.614  16.857  0.00  0.00    +0.000 OA
ATOM      3  N   UNL     1       2.555  31.673  16.382  0.00  0.00    +0.000 N 
ATOM      4  N   UNL     1       1.479  29.671  15.728  0.00  0.00    +0.000 NA
ATOM      5  C   UNL     1       2.563  30.324  16.038  0.00  0.00    +0.000 C 
ATOM      6  C   UNL     1       1.401  32.455  16.464  0.00  0.00    +0.000 C 
ATOM      7  C   UNL     1       0.156  31.733  16.051  0.00  0.00    +0.000 C 
ATOM      8  C   UNL     1       0.427  30.496  15.795  0.00  0.00    +0.000 C 
ATOM      9  H   UNL     1       3.418  32.121  16.651  0.00  0.00    +0.000 HD
ENDROOT
BRANCH   5  10
ATOM     10  O   UNL     1       3.806  29.789  16.065  0.00  0.00    +0.000 OA
BRANCH  10  11
ATOM     11  C   UNL     1       4.034  28.795  15.211  0.00  0.00    +0.000 C 
ATOM     12  C   UNL     1       4.325  27.619  14.274  0.00  0.00    +0.000 C 
ENDBRANCH  10  11
ENDBRANCH   5  10
TORSDOF 2
ENDMDL
MODEL 3
REMARK VINA RESULT:      -4.7      3.278      4.288
REMARK  Name = 92041_2Ethoxy5fluorouracil.pdbqt.pdb
REMARK  2 active torsions:
REMARK  status: ('A' for Active; 'I' for Inactive)
REMARK    1  A    between atoms: C_5  and  O_10
REMARK    2  A    between atoms: O_10  and  C_11
REMARK                            x       y       z     vdW  Elec       q    Type
REMARK                         _______ _______ _______ _____ _____    ______ ____
ROOT
ATOM      1  F   UNL     1       3.344  31.032  16.057  0.00  0.00    +0.000 F 
ATOM      2  O   UNL     1       2.755  33.800  15.706  0.00  0.00    +0.000 OA
ATOM      3  N   UNL     1       0.527  33.291  15.948  0.00  0.00    +0.000 N 
ATOM      4  N   UNL     1      -0.256  31.127  16.493  0.00  0.00    +0.000 NA
ATOM      5  C   UNL     1      -0.491  32.369  16.177  0.00  0.00    +0.000 C 
ATOM      6  C   UNL     1       1.889  32.986  16.000  0.00  0.00    +0.000 C 
ATOM      7  C   UNL     1       2.173  31.579  16.423  0.00  0.00    +0.000 C 
ATOM      8  C   UNL     1       1.066  30.926  16.558  0.00  0.00    +0.000 C 
ATOM      9  H   UNL     1       0.289  34.231  15.667  0.00  0.00    +0.000 HD
ENDROOT
BRANCH   5  10
ATOM     10  O   UNL     1      -1.724  32.909  16.032  0.00  0.00    +0.000 OA
BRANCH  10  11
ATOM     11  C   UNL     1      -2.328  32.683  14.870  0.00  0.00    +0.000 C 
ATOM     12  C   UNL     1      -3.057  32.476  13.538  0.00  0.00    +0.000 C 
ENDBRANCH  10  11
ENDBRANCH   5  10
TORSDOF 2
ENDMDL
MODEL 4
REMARK VINA RESULT:      -4.7      8.061      9.413
REMARK  Name = 92041_2Ethoxy5fluorouracil.pdbqt.pdb
REMARK  2 active torsions:
REMARK  status: ('A' for Active; 'I' for Inactive)
REMARK    1  A    between atoms: C_5  and  O_10
REMARK    2  A    between atoms: O_10  and  C_11
REMARK                            x       y       z     vdW  Elec       q    Type
REMARK                         _______ _______ _______ _____ _____    ______ ____
ROOT
ATOM      1  F   UNL     1       1.931  28.708  15.451  0.00  0.00    +0.000 F 
ATOM      2  O   UNL     1       3.265  27.132  13.484  0.00  0.00    +0.000 OA
ATOM      3  N   UNL     1       5.221  28.201  14.045  0.00  0.00    +0.000 N 
ATOM      4  N   UNL     1       5.386  29.746  15.827  0.00  0.00    +0.000 NA
ATOM      5  C   UNL     1       5.923  29.120  14.819  0.00  0.00    +0.000 C 
ATOM      6  C   UNL     1       3.875  27.877  14.239  0.00  0.00    +0.000 C 
ATOM      7  C   UNL     1       3.264  28.543  15.432  0.00  0.00    +0.000 C 
ATOM      8  C   UNL     1       4.113  29.355  15.968  0.00  0.00    +0.000 C 
ATOM      9  H   UNL     1       5.673  27.773  13.251  0.00  0.00    +0.000 HD
ENDROOT
BRANCH   5  10
ATOM     10  O   UNL     1       7.202  29.279  14.403  0.00  0.00    +0.000 OA
BRANCH  10  11
ATOM     11  C   UNL     1       8.019  28.253  14.620  0.00  0.00    +0.000 C 
ATOM     12  C   UNL     1       9.005  27.101  14.837  0.00  0.00    +0.000 C 
ENDBRANCH  10  11
ENDBRANCH   5  10
TORSDOF 2
ENDMDL
MODEL 5
REMARK VINA RESULT:      -4.7     18.331     18.742
REMARK  Name = 92041_2Ethoxy5fluorouracil.pdbqt.pdb
REMARK  2 active torsions:
REMARK  status: ('A' for Active; 'I' for Inactive)
REMARK    1  A    between atoms: C_5  and  O_10
REMARK    2  A    between atoms: O_10  and  C_11
REMARK                            x       y       z     vdW  Elec       q    Type
REMARK                         _______ _______ _______ _____ _____    ______ ____
ROOT
ATOM      1  F   UNL     1      14.278  44.502   8.891  0.00  0.00    +0.000 F 
ATOM      2  O   UNL     1      14.065  44.869  11.711  0.00  0.00    +0.000 OA
ATOM      3  N   UNL     1      12.090  45.990  11.352  0.00  0.00    +0.000 N 
ATOM      4  N   UNL     1      11.085  46.191   9.221  0.00  0.00    +0.000 NA
ATOM      5  C   UNL     1      11.105  46.469  10.494  0.00  0.00    +0.000 C 
ATOM      6  C   UNL     1      13.168  45.199  10.946  0.00  0.00    +0.000 C 
ATOM      7  C   UNL     1      13.123  44.821   9.498  0.00  0.00    +0.000 C 
ATOM      8  C   UNL     1      12.125  45.403   8.921  0.00  0.00    +0.000 C 
ATOM      9  H   UNL     1      12.081  46.268  12.322  0.00  0.00    +0.000 HD
ENDROOT
BRANCH   5  10
ATOM     10  O   UNL     1      10.193  47.241  11.130  0.00  0.00    +0.000 OA
BRANCH  10  11
ATOM     11  C   UNL     1      10.662  48.023  12.098  0.00  0.00    +0.000 C 
ATOM     12  C   UNL     1      11.187  48.879  13.255  0.00  0.00    +0.000 C 
ENDBRANCH  10  11
ENDBRANCH   5  10
TORSDOF 2
ENDMDL
MODEL 6
REMARK VINA RESULT:      -4.7      6.979      8.100
REMARK  Name = 92041_2Ethoxy5fluorouracil.pdbqt.pdb
REMARK  2 active torsions:
REMARK  status: ('A' for Active; 'I' for Inactive)
REMARK    1  A    between atoms: C_5  and  O_10
REMARK    2  A    between atoms: O_10  and  C_11
REMARK                            x       y       z     vdW  Elec       q    Type
REMARK                         _______ _______ _______ _____ _____    ______ ____
ROOT
ATOM      1  F   UNL     1       7.105  27.534  14.736  0.00  0.00    +0.000 F 
ATOM      2  O   UNL     1       4.419  27.227  13.829  0.00  0.00    +0.000 OA
ATOM      3  N   UNL     1       3.849  29.058  15.095  0.00  0.00    +0.000 N 
ATOM      4  N   UNL     1       5.433  30.363  16.271  0.00  0.00    +0.000 NA
ATOM      5  C   UNL     1       4.197  30.096  15.956  0.00  0.00    +0.000 C 
ATOM      6  C   UNL     1       4.767  28.183  14.509  0.00  0.00    +0.000 C 
ATOM      7  C   UNL     1       6.194  28.517  14.814  0.00  0.00    +0.000 C 
ATOM      8  C   UNL     1       6.249  29.507  15.643  0.00  0.00    +0.000 C 
ATOM      9  H   UNL     1       2.874  28.870  14.915  0.00  0.00    +0.000 HD
ENDROOT
BRANCH   5  10
ATOM     10  O   UNL     1       3.119  30.774  16.413  0.00  0.00    +0.000 OA
BRANCH  10  11
ATOM     11  C   UNL     1       1.937  30.372  15.956  0.00  0.00    +0.000 C 
ATOM     12  C   UNL     1       0.564  29.883  15.485  0.00  0.00    +0.000 C 
ENDBRANCH  10  11
ENDBRANCH   5  10
TORSDOF 2
ENDMDL
MODEL 7
REMARK VINA RESULT:      -4.6      3.360      4.249
REMARK  Name = 92041_2Ethoxy5fluorouracil.pdbqt.pdb
REMARK  2 active torsions:
REMARK  status: ('A' for Active; 'I' for Inactive)
REMARK    1  A    between atoms: C_5  and  O_10
REMARK    2  A    between atoms: O_10  and  C_11
REMARK                            x       y       z     vdW  Elec       q    Type
REMARK                         _______ _______ _______ _____ _____    ______ ____
ROOT
ATOM      1  F   UNL     1       2.993  29.801  16.522  0.00  0.00    +0.000 F 
ATOM      2  O   UNL     1       0.592  28.829  15.329  0.00  0.00    +0.000 OA
ATOM      3  N   UNL     1      -0.347  30.897  15.683  0.00  0.00    +0.000 N 
ATOM      4  N   UNL     1       0.862  32.738  16.545  0.00  0.00    +0.000 NA
ATOM      5  C   UNL     1      -0.257  32.210  16.136  0.00  0.00    +0.000 C 
ATOM      6  C   UNL     1       0.726  30.003  15.648  0.00  0.00    +0.000 C 
ATOM      7  C   UNL     1       2.030  30.615  16.057  0.00  0.00    +0.000 C 
ATOM      8  C   UNL     1       1.844  31.833  16.446  0.00  0.00    +0.000 C 
ATOM      9  H   UNL     1      -1.246  30.526  15.415  0.00  0.00    +0.000 HD
ENDROOT
BRANCH   5  10
ATOM     10  O   UNL     1      -1.446  32.855  16.100  0.00  0.00    +0.000 OA
BRANCH  10  11
ATOM     11  C   UNL     1      -2.141  32.739  14.973  0.00  0.00    +0.000 C 
ATOM     12  C   UNL     1      -2.944  32.667  13.670  0.00  0.00    +0.000 C 
ENDBRANCH  10  11
ENDBRANCH   5  10
TORSDOF 2
ENDMDL
MODEL 8
REMARK VINA RESULT:      -4.6      5.623      6.722
REMARK  Name = 92041_2Ethoxy5fluorouracil.pdbqt.pdb
REMARK  2 active torsions:
REMARK  status: ('A' for Active; 'I' for Inactive)
REMARK    1  A    between atoms: C_5  and  O_10
REMARK    2  A    between atoms: O_10  and  C_11
REMARK                            x       y       z     vdW  Elec       q    Type
REMARK                         _______ _______ _______ _____ _____    ______ ____
ROOT
ATOM      1  F   UNL     1       4.335  27.629  13.696  0.00  0.00    +0.000 F 
ATOM      2  O   UNL     1       5.527  29.256  15.712  0.00  0.00    +0.000 OA
ATOM      3  N   UNL     1       3.433  30.060  16.213  0.00  0.00    +0.000 N 
ATOM      4  N   UNL     1       1.456  29.241  15.204  0.00  0.00    +0.000 NA
ATOM      5  C   UNL     1       2.056  30.076  16.005  0.00  0.00    +0.000 C 
ATOM      6  C   UNL     1       4.313  29.184  15.573  0.00  0.00    +0.000 C 
ATOM      7  C   UNL     1       3.630  28.179  14.699  0.00  0.00    +0.000 C 
ATOM      8  C   UNL     1       2.360  28.416  14.662  0.00  0.00    +0.000 C 
ATOM      9  H   UNL     1       3.851  30.754  16.813  0.00  0.00    +0.000 HD
ENDROOT
BRANCH   5  10
ATOM     10  O   UNL     1       1.435  31.044  16.719  0.00  0.00    +0.000 OA
BRANCH  10  11
ATOM     11  C   UNL     1       0.230  31.406  16.288  0.00  0.00    +0.000 C 
ATOM     12  C   UNL     1      -1.166  31.854  15.846  0.00  0.00    +0.000 C 
ENDBRANCH  10  11
ENDBRANCH   5  10
TORSDOF 2
ENDMDL
MODEL 9
REMARK VINA RESULT:      -4.3      5.319      6.379
REMARK  Name = 92041_2Ethoxy5fluorouracil.pdbqt.pdb
REMARK  2 active torsions:
REMARK  status: ('A' for Active; 'I' for Inactive)
REMARK    1  A    between atoms: C_5  and  O_10
REMARK    2  A    between atoms: O_10  and  C_11
REMARK                            x       y       z     vdW  Elec       q    Type
REMARK                         _______ _______ _______ _____ _____    ______ ____
ROOT
ATOM      1  F   UNL     1      -1.481  38.366  13.137  0.00  0.00    +0.000 F 
ATOM      2  O   UNL     1      -1.134  41.127  13.762  0.00  0.00    +0.000 OA
ATOM      3  N   UNL     1      -2.134  40.727  15.793  0.00  0.00    +0.000 N 
ATOM      4  N   UNL     1      -2.758  38.567  16.526  0.00  0.00    +0.000 NA
ATOM      5  C   UNL     1      -2.720  39.857  16.708  0.00  0.00    +0.000 C 
ATOM      6  C   UNL     1      -1.561  40.326  14.584  0.00  0.00    +0.000 C 
ATOM      7  C   UNL     1      -1.542  38.841  14.392  0.00  0.00    +0.000 C 
ATOM      8  C   UNL     1      -2.159  38.262  15.369  0.00  0.00    +0.000 C 
ATOM      9  H   UNL     1      -2.167  41.721  15.963  0.00  0.00    +0.000 HD
ENDROOT
BRANCH   5  10
ATOM     10  O   UNL     1      -3.233  40.502  17.782  0.00  0.00    +0.000 OA
BRANCH  10  11
ATOM     11  C   UNL     1      -2.555  41.564  18.206  0.00  0.00    +0.000 C 
ATOM     12  C   UNL     1      -1.735  42.749  18.726  0.00  0.00    +0.000 C 
ENDBRANCH  10  11
ENDBRANCH   5  10
TORSDOF 2
ENDMDL
