MODEL 1
REMARK VINA RESULT:      -6.5      0.000      0.000
REMARK  Name = 95716_6Bromoisatin.pdbqt.pdb
REMARK  0 active torsions:
REMARK  status: ('A' for Active; 'I' for Inactive)
REMARK                            x       y       z     vdW  Elec       q    Type
REMARK                         _______ _______ _______ _____ _____    ______ ____
ROOT
ATOM      1 BR   UNL     1       7.501  28.454  14.792  0.00  0.00    +0.000 Br
ATOM      2  O   UNL     1       0.529  28.577  15.123  0.00  0.00    +0.000 OA
ATOM      3  O   UNL     1       0.698  31.143  16.692  0.00  0.00    +0.000 OA
ATOM      4  N   UNL     1       2.976  30.758  16.372  0.00  0.00    +0.000 N 
ATOM      5  C   UNL     1       3.729  29.773  15.740  0.00  0.00    +0.000 A 
ATOM      6  C   UNL     1       2.915  28.796  15.170  0.00  0.00    +0.000 A 
ATOM      7  C   UNL     1       1.529  29.170  15.450  0.00  0.00    +0.000 C 
ATOM      8  C   UNL     1       5.102  29.707  15.649  0.00  0.00    +0.000 A 
ATOM      9  C   UNL     1       3.419  27.710  14.485  0.00  0.00    +0.000 A 
ATOM     10  C   UNL     1       1.623  30.495  16.260  0.00  0.00    +0.000 C 
ATOM     11  C   UNL     1       5.630  28.614  14.959  0.00  0.00    +0.000 A 
ATOM     12  C   UNL     1       4.809  27.629  14.384  0.00  0.00    +0.000 A 
ATOM     13  H   UNL     1       3.339  31.568  16.856  0.00  0.00    +0.000 HD
ENDROOT
TORSDOF 0
ENDMDL
MODEL 2
REMARK VINA RESULT:      -4.9     33.598     34.627
REMARK  Name = 95716_6Bromoisatin.pdbqt.pdb
REMARK  0 active torsions:
REMARK  status: ('A' for Active; 'I' for Inactive)
REMARK                            x       y       z     vdW  Elec       q    Type
REMARK                         _______ _______ _______ _____ _____    ______ ____
ROOT
ATOM      1 BR   UNL     1      -2.850  61.021  12.531  0.00  0.00    +0.000 Br
ATOM      2  O   UNL     1      -0.588  63.015   6.234  0.00  0.00    +0.000 OA
ATOM      3  O   UNL     1       1.101  65.124   7.564  0.00  0.00    +0.000 OA
ATOM      4  N   UNL     1       0.128  64.183   9.463  0.00  0.00    +0.000 N 
ATOM      5  C   UNL     1      -0.776  63.152   9.698  0.00  0.00    +0.000 A 
ATOM      6  C   UNL     1      -1.185  62.552   8.509  0.00  0.00    +0.000 A 
ATOM      7  C   UNL     1      -0.499  63.242   7.418  0.00  0.00    +0.000 C 
ATOM      8  C   UNL     1      -1.250  62.724  10.919  0.00  0.00    +0.000 A 
ATOM      9  C   UNL     1      -2.080  61.503   8.470  0.00  0.00    +0.000 A 
ATOM     10  C   UNL     1       0.372  64.329   8.110  0.00  0.00    +0.000 C 
ATOM     11  C   UNL     1      -2.157  61.663  10.900  0.00  0.00    +0.000 A 
ATOM     12  C   UNL     1      -2.569  61.058   9.699  0.00  0.00    +0.000 A 
ATOM     13  H   UNL     1       0.565  64.765  10.164  0.00  0.00    +0.000 HD
ENDROOT
TORSDOF 0
ENDMDL
MODEL 3
REMARK VINA RESULT:      -4.8     35.452     35.858
REMARK  Name = 95716_6Bromoisatin.pdbqt.pdb
REMARK  0 active torsions:
REMARK  status: ('A' for Active; 'I' for Inactive)
REMARK                            x       y       z     vdW  Elec       q    Type
REMARK                         _______ _______ _______ _____ _____    ______ ____
ROOT
ATOM      1 BR   UNL     1       0.619  57.395  -6.706  0.00  0.00    +0.000 Br
ATOM      2  O   UNL     1       7.151  55.299  -8.007  0.00  0.00    +0.000 OA
ATOM      3  O   UNL     1       8.169  57.697  -6.495  0.00  0.00    +0.000 OA
ATOM      4  N   UNL     1       5.877  58.067  -6.269  0.00  0.00    +0.000 N 
ATOM      5  C   UNL     1       4.727  57.405  -6.688  0.00  0.00    +0.000 A 
ATOM      6  C   UNL     1       5.035  56.255  -7.412  0.00  0.00    +0.000 A 
ATOM      7  C   UNL     1       6.493  56.158  -7.469  0.00  0.00    +0.000 C 
ATOM      8  C   UNL     1       3.421  57.780  -6.456  0.00  0.00    +0.000 A 
ATOM      9  C   UNL     1       4.070  55.422  -7.938  0.00  0.00    +0.000 A 
ATOM     10  C   UNL     1       7.013  57.398  -6.686  0.00  0.00    +0.000 C 
ATOM     11  C   UNL     1       2.430  56.949  -6.982  0.00  0.00    +0.000 A 
ATOM     12  C   UNL     1       2.742  55.788  -7.711  0.00  0.00    +0.000 A 
ATOM     13  H   UNL     1       5.911  58.921  -5.731  0.00  0.00    +0.000 HD
ENDROOT
TORSDOF 0
ENDMDL
MODEL 4
REMARK VINA RESULT:      -4.7      3.657      4.639
REMARK  Name = 95716_6Bromoisatin.pdbqt.pdb
REMARK  0 active torsions:
REMARK  status: ('A' for Active; 'I' for Inactive)
REMARK                            x       y       z     vdW  Elec       q    Type
REMARK                         _______ _______ _______ _____ _____    ______ ____
ROOT
ATOM      1 BR   UNL     1       8.525  27.518  14.871  0.00  0.00    +0.000 Br
ATOM      2  O   UNL     1       4.569  33.070  16.376  0.00  0.00    +0.000 OA
ATOM      3  O   UNL     1       7.068  34.745  16.537  0.00  0.00    +0.000 OA
ATOM      4  N   UNL     1       8.038  32.688  16.019  0.00  0.00    +0.000 N 
ATOM      5  C   UNL     1       7.556  31.404  15.782  0.00  0.00    +0.000 A 
ATOM      6  C   UNL     1       6.167  31.354  15.881  0.00  0.00    +0.000 A 
ATOM      7  C   UNL     1       5.708  32.704  16.207  0.00  0.00    +0.000 C 
ATOM      8  C   UNL     1       8.297  30.282  15.482  0.00  0.00    +0.000 A 
ATOM      9  C   UNL     1       5.446  30.194  15.690  0.00  0.00    +0.000 A 
ATOM     10  C   UNL     1       7.002  33.564  16.289  0.00  0.00    +0.000 C 
ATOM     11  C   UNL     1       7.583  29.098  15.285  0.00  0.00    +0.000 A 
ATOM     12  C   UNL     1       6.182  29.048  15.385  0.00  0.00    +0.000 A 
ATOM     13  H   UNL     1       9.007  32.975  16.003  0.00  0.00    +0.000 HD
ENDROOT
TORSDOF 0
ENDMDL
MODEL 5
REMARK VINA RESULT:      -4.4     28.397     29.005
REMARK  Name = 95716_6Bromoisatin.pdbqt.pdb
REMARK  0 active torsions:
REMARK  status: ('A' for Active; 'I' for Inactive)
REMARK                            x       y       z     vdW  Elec       q    Type
REMARK                         _______ _______ _______ _____ _____    ______ ____
ROOT
ATOM      1 BR   UNL     1       7.591  28.082 -15.355  0.00  0.00    +0.000 Br
ATOM      2  O   UNL     1       1.936  31.483 -13.075  0.00  0.00    +0.000 OA
ATOM      3  O   UNL     1       3.705  33.101 -11.252  0.00  0.00    +0.000 OA
ATOM      4  N   UNL     1       5.334  31.762 -12.249  0.00  0.00    +0.000 N 
ATOM      5  C   UNL     1       5.327  30.751 -13.206  0.00  0.00    +0.000 A 
ATOM      6  C   UNL     1       4.037  30.492 -13.665  0.00  0.00    +0.000 A 
ATOM      7  C   UNL     1       3.135  31.399 -12.956  0.00  0.00    +0.000 C 
ATOM      8  C   UNL     1       6.415  30.054 -13.685  0.00  0.00    +0.000 A 
ATOM      9  C   UNL     1       3.761  29.533 -14.617  0.00  0.00    +0.000 A 
ATOM     10  C   UNL     1       4.055  32.232 -12.016  0.00  0.00    +0.000 C 
ATOM     11  C   UNL     1       6.154  29.079 -14.650  0.00  0.00    +0.000 A 
ATOM     12  C   UNL     1       4.853  28.818 -15.113  0.00  0.00    +0.000 A 
ATOM     13  H   UNL     1       6.146  32.125 -11.771  0.00  0.00    +0.000 HD
ENDROOT
TORSDOF 0
ENDMDL
MODEL 6
REMARK VINA RESULT:      -4.3     20.588     21.307
REMARK  Name = 95716_6Bromoisatin.pdbqt.pdb
REMARK  0 active torsions:
REMARK  status: ('A' for Active; 'I' for Inactive)
REMARK                            x       y       z     vdW  Elec       q    Type
REMARK                         _______ _______ _______ _____ _____    ______ ____
ROOT
ATOM      1 BR   UNL     1      -6.858  18.099  32.719  0.00  0.00    +0.000 Br
ATOM      2  O   UNL     1      -9.870  22.174  27.915  0.00  0.00    +0.000 OA
ATOM      3  O   UNL     1     -11.548  19.827  27.049  0.00  0.00    +0.000 OA
ATOM      4  N   UNL     1     -10.329  18.798  28.750  0.00  0.00    +0.000 N 
ATOM      5  C   UNL     1      -9.341  19.208  29.640  0.00  0.00    +0.000 A 
ATOM      6  C   UNL     1      -9.017  20.551  29.459  0.00  0.00    +0.000 A 
ATOM      7  C   UNL     1      -9.853  21.055  28.371  0.00  0.00    +0.000 C 
ATOM      8  C   UNL     1      -8.720  18.442  30.602  0.00  0.00    +0.000 A 
ATOM      9  C   UNL     1      -8.065  21.199  30.218  0.00  0.00    +0.000 A 
ATOM     10  C   UNL     1     -10.718  19.839  27.928  0.00  0.00    +0.000 C 
ATOM     11  C   UNL     1      -7.753  19.081  31.381  0.00  0.00    +0.000 A 
ATOM     12  C   UNL     1      -7.426  20.436  31.197  0.00  0.00    +0.000 A 
ATOM     13  H   UNL     1     -10.728  17.872  28.687  0.00  0.00    +0.000 HD
ENDROOT
TORSDOF 0
ENDMDL
MODEL 7
REMARK VINA RESULT:      -4.3     20.105     21.102
REMARK  Name = 95716_6Bromoisatin.pdbqt.pdb
REMARK  0 active torsions:
REMARK  status: ('A' for Active; 'I' for Inactive)
REMARK                            x       y       z     vdW  Elec       q    Type
REMARK                         _______ _______ _______ _____ _____    ______ ____
ROOT
ATOM      1 BR   UNL     1      14.904  49.077  14.913  0.00  0.00    +0.000 Br
ATOM      2  O   UNL     1       9.758  48.284  10.262  0.00  0.00    +0.000 OA
ATOM      3  O   UNL     1      10.821  45.539   9.627  0.00  0.00    +0.000 OA
ATOM      4  N   UNL     1      12.376  46.168  11.247  0.00  0.00    +0.000 N 
ATOM      5  C   UNL     1      12.577  47.300  12.032  0.00  0.00    +0.000 A 
ATOM      6  C   UNL     1      11.614  48.275  11.778  0.00  0.00    +0.000 A 
ATOM      7  C   UNL     1      10.719  47.741  10.752  0.00  0.00    +0.000 C 
ATOM      8  C   UNL     1      13.575  47.501  12.961  0.00  0.00    +0.000 A 
ATOM      9  C   UNL     1      11.593  49.491  12.427  0.00  0.00    +0.000 A 
ATOM     10  C   UNL     1      11.273  46.323  10.428  0.00  0.00    +0.000 C 
ATOM     11  C   UNL     1      13.569  48.727  13.628  0.00  0.00    +0.000 A 
ATOM     12  C   UNL     1      12.598  49.710  13.371  0.00  0.00    +0.000 A 
ATOM     13  H   UNL     1      12.942  45.331  11.252  0.00  0.00    +0.000 HD
ENDROOT
TORSDOF 0
ENDMDL
MODEL 8
REMARK VINA RESULT:      -4.1     20.709     21.486
REMARK  Name = 95716_6Bromoisatin.pdbqt.pdb
REMARK  0 active torsions:
REMARK  status: ('A' for Active; 'I' for Inactive)
REMARK                            x       y       z     vdW  Elec       q    Type
REMARK                         _______ _______ _______ _____ _____    ______ ____
ROOT
ATOM      1 BR   UNL     1       2.486  22.579  -7.858  0.00  0.00    +0.000 Br
ATOM      2  O   UNL     1       1.991  28.187  -3.729  0.00  0.00    +0.000 OA
ATOM      3  O   UNL     1      -0.945  28.347  -4.381  0.00  0.00    +0.000 OA
ATOM      4  N   UNL     1      -0.388  26.475  -5.656  0.00  0.00    +0.000 N 
ATOM      5  C   UNL     1       0.781  25.758  -5.893  0.00  0.00    +0.000 A 
ATOM      6  C   UNL     1       1.861  26.298  -5.198  0.00  0.00    +0.000 A 
ATOM      7  C   UNL     1       1.362  27.453  -4.453  0.00  0.00    +0.000 C 
ATOM      8  C   UNL     1       0.926  24.648  -6.698  0.00  0.00    +0.000 A 
ATOM      9  C   UNL     1       3.133  25.769  -5.265  0.00  0.00    +0.000 A 
ATOM     10  C   UNL     1      -0.155  27.530  -4.793  0.00  0.00    +0.000 C 
ATOM     11  C   UNL     1       2.208  24.099  -6.777  0.00  0.00    +0.000 A 
ATOM     12  C   UNL     1       3.297  24.645  -6.076  0.00  0.00    +0.000 A 
ATOM     13  H   UNL     1      -1.298  26.278  -6.046  0.00  0.00    +0.000 HD
ENDROOT
TORSDOF 0
ENDMDL
MODEL 9
REMARK VINA RESULT:      -4.1     16.369     17.226
REMARK  Name = 95716_6Bromoisatin.pdbqt.pdb
REMARK  0 active torsions:
REMARK  status: ('A' for Active; 'I' for Inactive)
REMARK                            x       y       z     vdW  Elec       q    Type
REMARK                         _______ _______ _______ _____ _____    ______ ____
ROOT
ATOM      1 BR   UNL     1     -10.630  40.531  16.396  0.00  0.00    +0.000 Br
ATOM      2  O   UNL     1      -8.665  40.159   9.707  0.00  0.00    +0.000 OA
ATOM      3  O   UNL     1      -5.866  40.898  10.540  0.00  0.00    +0.000 OA
ATOM      4  N   UNL     1      -6.890  40.922  12.635  0.00  0.00    +0.000 N 
ATOM      5  C   UNL     1      -8.179  40.685  13.103  0.00  0.00    +0.000 A 
ATOM      6  C   UNL     1      -9.048  40.360  12.064  0.00  0.00    +0.000 A 
ATOM      7  C   UNL     1      -8.270  40.386  10.826  0.00  0.00    +0.000 C 
ATOM      8  C   UNL     1      -8.612  40.747  14.410  0.00  0.00    +0.000 A 
ATOM      9  C   UNL     1     -10.383  40.081  12.266  0.00  0.00    +0.000 A 
ATOM     10  C   UNL     1      -6.826  40.768  11.263  0.00  0.00    +0.000 C 
ATOM     11  C   UNL     1      -9.962  40.467  14.634  0.00  0.00    +0.000 A 
ATOM     12  C   UNL     1     -10.838  40.139  13.585  0.00  0.00    +0.000 A 
ATOM     13  H   UNL     1      -6.088  41.173  13.196  0.00  0.00    +0.000 HD
ENDROOT
TORSDOF 0
ENDMDL
