MODEL 1
REMARK VINA RESULT:      -6.2      0.000      0.000
REMARK  Name = 969516_Curcumin.pdbqt.pdb
REMARK  8 active torsions:
REMARK  status: ('A' for Active; 'I' for Inactive)
REMARK    1  A    between atoms: C_3  and  C_5
REMARK    2  A    between atoms: C_4  and  C_6
REMARK    3  A    between atoms: C_8  and  O_12
REMARK    4  A    between atoms: C_10  and  O_14
REMARK    5  A    between atoms: C_17  and  C_19
REMARK    6  A    between atoms: C_18  and  C_20
REMARK    7  A    between atoms: C_22  and  O_26
REMARK    8  A    between atoms: C_24  and  O_28
REMARK                            x       y       z     vdW  Elec       q    Type
REMARK                         _______ _______ _______ _____ _____    ______ ____
ROOT
ATOM      1  C   UNL     1     -16.390  27.652  22.143  0.00  0.00    +0.000 C 
ATOM      2  O   UNL     1     -18.682  27.640  22.134  0.00  0.00    +0.000 OA
ATOM      3  C   UNL     1     -17.650  27.056  21.841  0.00  0.00    +0.000 C 
ATOM      4  O   UNL     1     -14.120  27.564  22.443  0.00  0.00    +0.000 OA
ATOM      5  C   UNL     1     -15.133  28.247  22.450  0.00  0.00    +0.000 C 
ENDROOT
BRANCH   3   7
ATOM      6  C   UNL     1     -17.736  24.699  20.648  0.00  0.00    +0.000 C 
ATOM      7  C   UNL     1     -17.696  25.770  21.191  0.00  0.00    +0.000 C 
BRANCH   6   8
ATOM      8  C   UNL     1     -17.784  23.428  20.003  0.00  0.00    +0.000 A 
ATOM      9  C   UNL     1     -17.234  22.310  20.629  0.00  0.00    +0.000 A 
ATOM     10  C   UNL     1     -17.272  21.057  20.010  0.00  0.00    +0.000 A 
ATOM     11  C   UNL     1     -18.378  23.305  18.750  0.00  0.00    +0.000 A 
ATOM     12  C   UNL     1     -17.872  20.945  18.752  0.00  0.00    +0.000 A 
ATOM     13  C   UNL     1     -18.422  22.062  18.125  0.00  0.00    +0.000 A 
BRANCH  10  14
ATOM     14  O   UNL     1     -16.753  19.913  20.565  0.00  0.00    +0.000 OA
ATOM     15  C   UNL     1     -17.088  19.670  21.902  0.00  0.00    +0.000 C 
ENDBRANCH  10  14
BRANCH  12  16
ATOM     16  O   UNL     1     -17.956  19.762  18.071  0.00  0.00    +0.000 OA
ATOM     17  H   UNL     1     -17.963  19.920  17.111  0.00  0.00    +0.000 HD
ENDBRANCH  12  16
ENDBRANCH   6   8
ENDBRANCH   3   7
BRANCH   5  19
ATOM     18  C   UNL     1     -15.004  30.823  23.022  0.00  0.00    +0.000 C 
ATOM     19  C   UNL     1     -15.064  29.652  22.763  0.00  0.00    +0.000 C 
BRANCH  18  20
ATOM     20  C   UNL     1     -14.927  32.214  23.328  0.00  0.00    +0.000 A 
ATOM     21  C   UNL     1     -14.092  32.654  24.354  0.00  0.00    +0.000 A 
ATOM     22  C   UNL     1     -14.006  34.014  24.666  0.00  0.00    +0.000 A 
ATOM     23  C   UNL     1     -15.685  33.130  22.602  0.00  0.00    +0.000 A 
ATOM     24  C   UNL     1     -14.771  34.921  23.930  0.00  0.00    +0.000 A 
ATOM     25  C   UNL     1     -15.608  34.487  22.903  0.00  0.00    +0.000 A 
BRANCH  22  26
ATOM     26  O   UNL     1     -13.210  34.531  25.660  0.00  0.00    +0.000 OA
ATOM     27  C   UNL     1     -13.626  34.256  26.972  0.00  0.00    +0.000 C 
ENDBRANCH  22  26
BRANCH  24  28
ATOM     28  O   UNL     1     -14.700  36.256  24.220  0.00  0.00    +0.000 OA
ATOM     29  H   UNL     1     -15.046  36.399  25.121  0.00  0.00    +0.000 HD
ENDBRANCH  24  28
ENDBRANCH  18  20
ENDBRANCH   5  19
TORSDOF 8
ENDMDL
MODEL 2
REMARK VINA RESULT:      -6.2     34.894     35.990
REMARK  Name = 969516_Curcumin.pdbqt.pdb
REMARK  8 active torsions:
REMARK  status: ('A' for Active; 'I' for Inactive)
REMARK    1  A    between atoms: C_3  and  C_5
REMARK    2  A    between atoms: C_4  and  C_6
REMARK    3  A    between atoms: C_8  and  O_12
REMARK    4  A    between atoms: C_10  and  O_14
REMARK    5  A    between atoms: C_17  and  C_19
REMARK    6  A    between atoms: C_18  and  C_20
REMARK    7  A    between atoms: C_22  and  O_26
REMARK    8  A    between atoms: C_24  and  O_28
REMARK                            x       y       z     vdW  Elec       q    Type
REMARK                         _______ _______ _______ _____ _____    ______ ____
ROOT
ATOM      1  C   UNL     1      14.316  28.149   3.487  0.00  0.00    +0.000 C 
ATOM      2  O   UNL     1      13.111  26.322   2.803  0.00  0.00    +0.000 OA
ATOM      3  C   UNL     1      13.511  27.447   2.542  0.00  0.00    +0.000 C 
ATOM      4  O   UNL     1      15.769  29.821   4.075  0.00  0.00    +0.000 OA
ATOM      5  C   UNL     1      15.124  28.846   4.431  0.00  0.00    +0.000 C 
ENDROOT
BRANCH   3   7
ATOM      6  C   UNL     1      12.890  28.592   0.243  0.00  0.00    +0.000 C 
ATOM      7  C   UNL     1      13.172  28.071   1.288  0.00  0.00    +0.000 C 
BRANCH   6   8
ATOM      8  C   UNL     1      12.556  29.211  -0.999  0.00  0.00    +0.000 A 
ATOM      9  C   UNL     1      12.798  28.539  -2.196  0.00  0.00    +0.000 A 
ATOM     10  C   UNL     1      12.478  29.131  -3.422  0.00  0.00    +0.000 A 
ATOM     11  C   UNL     1      11.992  30.483  -1.013  0.00  0.00    +0.000 A 
ATOM     12  C   UNL     1      11.910  30.409  -3.424  0.00  0.00    +0.000 A 
ATOM     13  C   UNL     1      11.668  31.082  -2.227  0.00  0.00    +0.000 A 
BRANCH  10  14
ATOM     14  O   UNL     1      12.685  28.531  -4.639  0.00  0.00    +0.000 OA
ATOM     15  C   UNL     1      12.443  27.153  -4.696  0.00  0.00    +0.000 C 
ENDBRANCH  10  14
BRANCH  12  16
ATOM     16  O   UNL     1      11.564  31.067  -4.572  0.00  0.00    +0.000 OA
ATOM     17  H   UNL     1      10.623  31.312  -4.556  0.00  0.00    +0.000 HD
ENDBRANCH  12  16
ENDBRANCH   6   8
ENDBRANCH   3   7
BRANCH   5  19
ATOM     18  C   UNL     1      15.215  28.029   6.942  0.00  0.00    +0.000 C 
ATOM     19  C   UNL     1      15.173  28.398   5.799  0.00  0.00    +0.000 C 
BRANCH  18  20
ATOM     20  C   UNL     1      15.269  27.593   8.299  0.00  0.00    +0.000 A 
ATOM     21  C   UNL     1      14.534  28.266   9.274  0.00  0.00    +0.000 A 
ATOM     22  C   UNL     1      14.576  27.850  10.608  0.00  0.00    +0.000 A 
ATOM     23  C   UNL     1      16.055  26.496   8.647  0.00  0.00    +0.000 A 
ATOM     24  C   UNL     1      15.368  26.749  10.943  0.00  0.00    +0.000 A 
ATOM     25  C   UNL     1      16.105  26.073   9.972  0.00  0.00    +0.000 A 
BRANCH  22  26
ATOM     26  O   UNL     1      13.885  28.455  11.629  0.00  0.00    +0.000 OA
ATOM     27  C   UNL     1      14.322  29.744  11.975  0.00  0.00    +0.000 C 
ENDBRANCH  22  26
BRANCH  24  28
ATOM     28  O   UNL     1      15.422  26.327  12.243  0.00  0.00    +0.000 OA
ATOM     29  H   UNL     1      15.675  27.082  12.807  0.00  0.00    +0.000 HD
ENDBRANCH  24  28
ENDBRANCH  18  20
ENDBRANCH   5  19
TORSDOF 8
ENDMDL
MODEL 3
REMARK VINA RESULT:      -6.0     15.331     19.099
REMARK  Name = 969516_Curcumin.pdbqt.pdb
REMARK  8 active torsions:
REMARK  status: ('A' for Active; 'I' for Inactive)
REMARK    1  A    between atoms: C_3  and  C_5
REMARK    2  A    between atoms: C_4  and  C_6
REMARK    3  A    between atoms: C_8  and  O_12
REMARK    4  A    between atoms: C_10  and  O_14
REMARK    5  A    between atoms: C_17  and  C_19
REMARK    6  A    between atoms: C_18  and  C_20
REMARK    7  A    between atoms: C_22  and  O_26
REMARK    8  A    between atoms: C_24  and  O_28
REMARK                            x       y       z     vdW  Elec       q    Type
REMARK                         _______ _______ _______ _____ _____    ______ ____
ROOT
ATOM      1  C   UNL     1      -8.730  40.279  14.404  0.00  0.00    +0.000 C 
ATOM      2  O   UNL     1      -8.209  40.619  12.198  0.00  0.00    +0.000 OA
ATOM      3  C   UNL     1      -7.806  40.534  13.348  0.00  0.00    +0.000 C 
ATOM      4  O   UNL     1      -9.244  39.639  16.544  0.00  0.00    +0.000 OA
ATOM      5  C   UNL     1      -9.654  40.019  15.457  0.00  0.00    +0.000 C 
ENDROOT
BRANCH   3   7
ATOM      6  C   UNL     1      -5.238  40.829  13.895  0.00  0.00    +0.000 C 
ATOM      7  C   UNL     1      -6.405  40.694  13.646  0.00  0.00    +0.000 C 
BRANCH   6   8
ATOM      8  C   UNL     1      -3.851  40.987  14.192  0.00  0.00    +0.000 A 
ATOM      9  C   UNL     1      -3.048  39.863  14.378  0.00  0.00    +0.000 A 
ATOM     10  C   UNL     1      -1.687  40.000  14.670  0.00  0.00    +0.000 A 
ATOM     11  C   UNL     1      -3.303  42.263  14.297  0.00  0.00    +0.000 A 
ATOM     12  C   UNL     1      -1.148  41.286  14.772  0.00  0.00    +0.000 A 
ATOM     13  C   UNL     1      -1.950  42.412  14.587  0.00  0.00    +0.000 A 
BRANCH  10  14
ATOM     14  O   UNL     1      -0.835  38.942  14.864  0.00  0.00    +0.000 OA
ATOM     15  C   UNL     1      -1.041  38.191  16.028  0.00  0.00    +0.000 C 
ENDBRANCH  10  14
BRANCH  12  16
ATOM     16  O   UNL     1       0.170  41.520  15.054  0.00  0.00    +0.000 OA
ATOM     17  H   UNL     1       0.527  40.822  15.628  0.00  0.00    +0.000 HD
ENDBRANCH  12  16
ENDBRANCH   6   8
ENDBRANCH   3   7
BRANCH   5  19
ATOM     18  C   UNL     1     -12.241  40.365  15.052  0.00  0.00    +0.000 C 
ATOM     19  C   UNL     1     -11.064  40.209  15.234  0.00  0.00    +0.000 C 
BRANCH  18  20
ATOM     20  C   UNL     1     -13.639  40.544  14.835  0.00  0.00    +0.000 A 
ATOM     21  C   UNL     1     -14.179  41.829  14.812  0.00  0.00    +0.000 A 
ATOM     22  C   UNL     1     -15.547  42.022  14.599  0.00  0.00    +0.000 A 
ATOM     23  C   UNL     1     -14.463  39.436  14.645  0.00  0.00    +0.000 A 
ATOM     24  C   UNL     1     -16.361  40.902  14.411  0.00  0.00    +0.000 A 
ATOM     25  C   UNL     1     -15.826  39.615  14.433  0.00  0.00    +0.000 A 
BRANCH  22  26
ATOM     26  O   UNL     1     -16.160  43.251  14.562  0.00  0.00    +0.000 OA
ATOM     27  C   UNL     1     -16.300  43.895  15.802  0.00  0.00    +0.000 C 
ENDBRANCH  22  26
BRANCH  24  28
ATOM     28  O   UNL     1     -17.702  41.069  14.201  0.00  0.00    +0.000 OA
ATOM     29  H   UNL     1     -17.876  42.014  14.027  0.00  0.00    +0.000 HD
ENDBRANCH  24  28
ENDBRANCH  18  20
ENDBRANCH   5  19
TORSDOF 8
ENDMDL
MODEL 4
REMARK VINA RESULT:      -6.0     18.195     24.313
REMARK  Name = 969516_Curcumin.pdbqt.pdb
REMARK  8 active torsions:
REMARK  status: ('A' for Active; 'I' for Inactive)
REMARK    1  A    between atoms: C_3  and  C_5
REMARK    2  A    between atoms: C_4  and  C_6
REMARK    3  A    between atoms: C_8  and  O_12
REMARK    4  A    between atoms: C_10  and  O_14
REMARK    5  A    between atoms: C_17  and  C_19
REMARK    6  A    between atoms: C_18  and  C_20
REMARK    7  A    between atoms: C_22  and  O_26
REMARK    8  A    between atoms: C_24  and  O_28
REMARK                            x       y       z     vdW  Elec       q    Type
REMARK                         _______ _______ _______ _____ _____    ______ ____
ROOT
ATOM      1  C   UNL     1      -2.471  43.045  14.901  0.00  0.00    +0.000 C 
ATOM      2  O   UNL     1      -1.597  41.194  15.932  0.00  0.00    +0.000 OA
ATOM      3  C   UNL     1      -1.455  42.372  15.641  0.00  0.00    +0.000 C 
ATOM      4  O   UNL     1      -3.507  44.938  14.129  0.00  0.00    +0.000 OA
ATOM      5  C   UNL     1      -3.490  43.716  14.166  0.00  0.00    +0.000 C 
ENDROOT
BRANCH   3   7
ATOM      6  C   UNL     1       0.723  43.680  16.368  0.00  0.00    +0.000 C 
ATOM      7  C   UNL     1      -0.267  43.086  16.037  0.00  0.00    +0.000 C 
BRANCH   6   8
ATOM      8  C   UNL     1       1.900  44.384  16.762  0.00  0.00    +0.000 A 
ATOM      9  C   UNL     1       1.982  44.940  18.038  0.00  0.00    +0.000 A 
ATOM     10  C   UNL     1       3.128  45.633  18.441  0.00  0.00    +0.000 A 
ATOM     11  C   UNL     1       2.963  44.516  15.873  0.00  0.00    +0.000 A 
ATOM     12  C   UNL     1       4.189  45.759  17.539  0.00  0.00    +0.000 A 
ATOM     13  C   UNL     1       4.108  45.203  16.263  0.00  0.00    +0.000 A 
BRANCH  10  14
ATOM     14  O   UNL     1       3.281  46.205  19.679  0.00  0.00    +0.000 OA
ATOM     15  C   UNL     1       2.257  45.959  20.602  0.00  0.00    +0.000 C 
ENDBRANCH  10  14
BRANCH  12  16
ATOM     16  O   UNL     1       5.349  46.418  17.843  0.00  0.00    +0.000 OA
ATOM     17  H   UNL     1       5.160  47.324  18.140  0.00  0.00    +0.000 HD
ENDBRANCH  12  16
ENDBRANCH   6   8
ENDBRANCH   3   7
BRANCH   5  19
ATOM     18  C   UNL     1      -5.330  42.314  12.890  0.00  0.00    +0.000 C 
ATOM     19  C   UNL     1      -4.492  42.951  13.469  0.00  0.00    +0.000 C 
BRANCH  18  20
ATOM     20  C   UNL     1      -6.326  41.554  12.208  0.00  0.00    +0.000 A 
ATOM     21  C   UNL     1      -7.514  41.225  12.858  0.00  0.00    +0.000 A 
ATOM     22  C   UNL     1      -8.500  40.482  12.202  0.00  0.00    +0.000 A 
ATOM     23  C   UNL     1      -6.110  41.144  10.894  0.00  0.00    +0.000 A 
ATOM     24  C   UNL     1      -8.270  40.077  10.885  0.00  0.00    +0.000 A 
ATOM     25  C   UNL     1      -7.084  40.404  10.231  0.00  0.00    +0.000 A 
BRANCH  22  26
ATOM     26  O   UNL     1      -9.697  40.115  12.768  0.00  0.00    +0.000 OA
ATOM     27  C   UNL     1      -9.790  40.295  14.157  0.00  0.00    +0.000 C 
ENDBRANCH  22  26
BRANCH  24  28
ATOM     28  O   UNL     1      -9.223  39.349  10.227  0.00  0.00    +0.000 OA
ATOM     29  H   UNL     1      -9.228  39.616   9.288  0.00  0.00    +0.000 HD
ENDBRANCH  24  28
ENDBRANCH  18  20
ENDBRANCH   5  19
TORSDOF 8
ENDMDL
MODEL 5
REMARK VINA RESULT:      -5.9     17.100     21.221
REMARK  Name = 969516_Curcumin.pdbqt.pdb
REMARK  8 active torsions:
REMARK  status: ('A' for Active; 'I' for Inactive)
REMARK    1  A    between atoms: C_3  and  C_5
REMARK    2  A    between atoms: C_4  and  C_6
REMARK    3  A    between atoms: C_8  and  O_12
REMARK    4  A    between atoms: C_10  and  O_14
REMARK    5  A    between atoms: C_17  and  C_19
REMARK    6  A    between atoms: C_18  and  C_20
REMARK    7  A    between atoms: C_22  and  O_26
REMARK    8  A    between atoms: C_24  and  O_28
REMARK                            x       y       z     vdW  Elec       q    Type
REMARK                         _______ _______ _______ _____ _____    ______ ____
ROOT
ATOM      1  C   UNL     1      -1.287  27.501  30.970  0.00  0.00    +0.000 C 
ATOM      2  O   UNL     1      -2.435  26.758  32.809  0.00  0.00    +0.000 OA
ATOM      3  C   UNL     1      -2.146  27.703  32.090  0.00  0.00    +0.000 C 
ATOM      4  O   UNL     1      -0.377  28.140  28.966  0.00  0.00    +0.000 OA
ATOM      5  C   UNL     1      -0.432  27.297  29.849  0.00  0.00    +0.000 C 
ENDROOT
BRANCH   3   7
ATOM      6  C   UNL     1      -3.097  30.115  32.599  0.00  0.00    +0.000 C 
ATOM      7  C   UNL     1      -2.664  29.019  32.367  0.00  0.00    +0.000 C 
BRANCH   6   8
ATOM      8  C   UNL     1      -3.611  31.417  32.875  0.00  0.00    +0.000 A 
ATOM      9  C   UNL     1      -2.734  32.472  33.121  0.00  0.00    +0.000 A 
ATOM     10  C   UNL     1      -3.220  33.754  33.394  0.00  0.00    +0.000 A 
ATOM     11  C   UNL     1      -4.986  31.631  32.901  0.00  0.00    +0.000 A 
ATOM     12  C   UNL     1      -4.603  33.958  33.416  0.00  0.00    +0.000 A 
ATOM     13  C   UNL     1      -5.482  32.903  33.171  0.00  0.00    +0.000 A 
BRANCH  10  14
ATOM     14  O   UNL     1      -2.419  34.841  33.643  0.00  0.00    +0.000 OA
ATOM     15  C   UNL     1      -1.828  34.891  34.911  0.00  0.00    +0.000 C 
ENDBRANCH  10  14
BRANCH  12  16
ATOM     16  O   UNL     1      -5.172  35.175  33.673  0.00  0.00    +0.000 OA
ATOM     17  H   UNL     1      -4.875  35.836  33.025  0.00  0.00    +0.000 HD
ENDBRANCH  12  16
ENDBRANCH   6   8
ENDBRANCH   3   7
BRANCH   5  19
ATOM     18  C   UNL     1       1.029  25.101  29.698  0.00  0.00    +0.000 C 
ATOM     19  C   UNL     1       0.364  26.099  29.765  0.00  0.00    +0.000 C 
BRANCH  18  20
ATOM     20  C   UNL     1       1.824  23.919  29.619  0.00  0.00    +0.000 A 
ATOM     21  C   UNL     1       3.209  24.020  29.506  0.00  0.00    +0.000 A 
ATOM     22  C   UNL     1       4.001  22.871  29.429  0.00  0.00    +0.000 A 
ATOM     23  C   UNL     1       1.214  22.666  29.657  0.00  0.00    +0.000 A 
ATOM     24  C   UNL     1       3.377  21.622  29.468  0.00  0.00    +0.000 A 
ATOM     25  C   UNL     1       1.992  21.515  29.580  0.00  0.00    +0.000 A 
BRANCH  22  26
ATOM     26  O   UNL     1       5.371  22.880  29.316  0.00  0.00    +0.000 OA
ATOM     27  C   UNL     1       6.066  23.382  30.427  0.00  0.00    +0.000 C 
ENDBRANCH  22  26
BRANCH  24  28
ATOM     28  O   UNL     1       4.135  20.485  29.393  0.00  0.00    +0.000 OA
ATOM     29  H   UNL     1       5.062  20.714  29.596  0.00  0.00    +0.000 HD
ENDBRANCH  24  28
ENDBRANCH  18  20
ENDBRANCH   5  19
TORSDOF 8
ENDMDL
MODEL 6
REMARK VINA RESULT:      -5.9     19.945     23.222
REMARK  Name = 969516_Curcumin.pdbqt.pdb
REMARK  8 active torsions:
REMARK  status: ('A' for Active; 'I' for Inactive)
REMARK    1  A    between atoms: C_3  and  C_5
REMARK    2  A    between atoms: C_4  and  C_6
REMARK    3  A    between atoms: C_8  and  O_12
REMARK    4  A    between atoms: C_10  and  O_14
REMARK    5  A    between atoms: C_17  and  C_19
REMARK    6  A    between atoms: C_18  and  C_20
REMARK    7  A    between atoms: C_22  and  O_26
REMARK    8  A    between atoms: C_24  and  O_28
REMARK                            x       y       z     vdW  Elec       q    Type
REMARK                         _______ _______ _______ _____ _____    ______ ____
ROOT
ATOM      1  C   UNL     1      -2.151  44.202  22.932  0.00  0.00    +0.000 C 
ATOM      2  O   UNL     1      -2.522  46.290  23.802  0.00  0.00    +0.000 OA
ATOM      3  C   UNL     1      -2.676  45.084  23.922  0.00  0.00    +0.000 C 
ATOM      4  O   UNL     1      -1.501  42.132  22.193  0.00  0.00    +0.000 OA
ATOM      5  C   UNL     1      -1.621  43.323  21.944  0.00  0.00    +0.000 C 
ENDROOT
BRANCH   3   7
ATOM      6  C   UNL     1      -3.982  44.099  25.997  0.00  0.00    +0.000 C 
ATOM      7  C   UNL     1      -3.388  44.547  25.054  0.00  0.00    +0.000 C 
BRANCH   6   8
ATOM      8  C   UNL     1      -4.688  43.566  27.117  0.00  0.00    +0.000 A 
ATOM      9  C   UNL     1      -5.575  44.374  27.827  0.00  0.00    +0.000 A 
ATOM     10  C   UNL     1      -6.275  43.869  28.927  0.00  0.00    +0.000 A 
ATOM     11  C   UNL     1      -4.491  42.242  27.498  0.00  0.00    +0.000 A 
ATOM     12  C   UNL     1      -6.070  42.537  29.300  0.00  0.00    +0.000 A 
ATOM     13  C   UNL     1      -5.183  41.727  28.590  0.00  0.00    +0.000 A 
BRANCH  10  14
ATOM     14  O   UNL     1      -7.163  44.602  29.673  0.00  0.00    +0.000 OA
ATOM     15  C   UNL     1      -7.612  45.797  29.096  0.00  0.00    +0.000 C 
ENDBRANCH  10  14
BRANCH  12  16
ATOM     16  O   UNL     1      -6.709  41.954  30.360  0.00  0.00    +0.000 OA
ATOM     17  H   UNL     1      -7.243  41.198  30.064  0.00  0.00    +0.000 HD
ENDBRANCH  12  16
ENDBRANCH   6   8
ENDBRANCH   3   7
BRANCH   5  19
ATOM     18  C   UNL     1      -0.910  44.272  19.584  0.00  0.00    +0.000 C 
ATOM     19  C   UNL     1      -1.232  43.843  20.658  0.00  0.00    +0.000 C 
BRANCH  18  20
ATOM     20  C   UNL     1      -0.525  44.778  18.307  0.00  0.00    +0.000 A 
ATOM     21  C   UNL     1       0.820  44.782  17.939  0.00  0.00    +0.000 A 
ATOM     22  C   UNL     1       1.213  45.274  16.691  0.00  0.00    +0.000 A 
ATOM     23  C   UNL     1      -1.492  45.266  17.431  0.00  0.00    +0.000 A 
ATOM     24  C   UNL     1       0.233  45.760  15.822  0.00  0.00    +0.000 A 
ATOM     25  C   UNL     1      -1.113  45.759  16.186  0.00  0.00    +0.000 A 
BRANCH  22  26
ATOM     26  O   UNL     1       2.513  45.314  16.249  0.00  0.00    +0.000 OA
ATOM     27  C   UNL     1       3.168  44.074  16.179  0.00  0.00    +0.000 C 
ENDBRANCH  22  26
BRANCH  24  28
ATOM     28  O   UNL     1       0.598  46.245  14.596  0.00  0.00    +0.000 OA
ATOM     29  H   UNL     1       1.339  46.869  14.715  0.00  0.00    +0.000 HD
ENDBRANCH  24  28
ENDBRANCH  18  20
ENDBRANCH   5  19
TORSDOF 8
ENDMDL
MODEL 7
REMARK VINA RESULT:      -5.9     26.576     28.682
REMARK  Name = 969516_Curcumin.pdbqt.pdb
REMARK  8 active torsions:
REMARK  status: ('A' for Active; 'I' for Inactive)
REMARK    1  A    between atoms: C_3  and  C_5
REMARK    2  A    between atoms: C_4  and  C_6
REMARK    3  A    between atoms: C_8  and  O_12
REMARK    4  A    between atoms: C_10  and  O_14
REMARK    5  A    between atoms: C_17  and  C_19
REMARK    6  A    between atoms: C_18  and  C_20
REMARK    7  A    between atoms: C_22  and  O_26
REMARK    8  A    between atoms: C_24  and  O_28
REMARK                            x       y       z     vdW  Elec       q    Type
REMARK                         _______ _______ _______ _____ _____    ______ ____
ROOT
ATOM      1  C   UNL     1       2.201  21.976   2.527  0.00  0.00    +0.000 C 
ATOM      2  O   UNL     1       3.948  20.503   2.705  0.00  0.00    +0.000 OA
ATOM      3  C   UNL     1       3.049  21.104   3.272  0.00  0.00    +0.000 C 
ATOM      4  O   UNL     1       0.288  23.208   2.256  0.00  0.00    +0.000 OA
ATOM      5  C   UNL     1       1.353  22.843   1.780  0.00  0.00    +0.000 C 
ENDROOT
BRANCH   3   7
ATOM      6  C   UNL     1       2.668  20.808   5.870  0.00  0.00    +0.000 C 
ATOM      7  C   UNL     1       2.841  20.942   4.689  0.00  0.00    +0.000 C 
BRANCH   6   8
ATOM      8  C   UNL     1       2.461  20.650   7.273  0.00  0.00    +0.000 A 
ATOM      9  C   UNL     1       3.556  20.533   8.128  0.00  0.00    +0.000 A 
ATOM     10  C   UNL     1       3.372  20.378   9.505  0.00  0.00    +0.000 A 
ATOM     11  C   UNL     1       1.168  20.612   7.786  0.00  0.00    +0.000 A 
ATOM     12  C   UNL     1       2.068  20.341  10.009  0.00  0.00    +0.000 A 
ATOM     13  C   UNL     1       0.972  20.458   9.155  0.00  0.00    +0.000 A 
BRANCH  10  14
ATOM     14  O   UNL     1       4.400  20.258  10.407  0.00  0.00    +0.000 OA
ATOM     15  C   UNL     1       5.305  19.215  10.173  0.00  0.00    +0.000 C 
ENDBRANCH  10  14
BRANCH  12  16
ATOM     16  O   UNL     1       1.789  20.193  11.340  0.00  0.00    +0.000 OA
ATOM     17  H   UNL     1       2.539  19.785  11.804  0.00  0.00    +0.000 HD
ENDBRANCH  12  16
ENDBRANCH   6   8
ENDBRANCH   3   7
BRANCH   5  19
ATOM     18  C   UNL     1       2.097  23.656  -0.621  0.00  0.00    +0.000 C 
ATOM     19  C   UNL     1       1.757  23.285   0.470  0.00  0.00    +0.000 C 
BRANCH  18  20
ATOM     20  C   UNL     1       2.502  24.100  -1.914  0.00  0.00    +0.000 A 
ATOM     21  C   UNL     1       2.119  25.362  -2.366  0.00  0.00    +0.000 A 
ATOM     22  C   UNL     1       2.508  25.812  -3.631  0.00  0.00    +0.000 A 
ATOM     23  C   UNL     1       3.280  23.274  -2.723  0.00  0.00    +0.000 A 
ATOM     24  C   UNL     1       3.288  24.974  -4.431  0.00  0.00    +0.000 A 
ATOM     25  C   UNL     1       3.673  23.711  -3.984  0.00  0.00    +0.000 A 
BRANCH  22  26
ATOM     26  O   UNL     1       2.174  27.039  -4.153  0.00  0.00    +0.000 OA
ATOM     27  C   UNL     1       0.805  27.351  -4.136  0.00  0.00    +0.000 C 
ENDBRANCH  22  26
BRANCH  24  28
ATOM     28  O   UNL     1       3.679  25.396  -5.672  0.00  0.00    +0.000 OA
ATOM     29  H   UNL     1       3.783  26.366  -5.654  0.00  0.00    +0.000 HD
ENDBRANCH  24  28
ENDBRANCH  18  20
ENDBRANCH   5  19
TORSDOF 8
ENDMDL
MODEL 8
REMARK VINA RESULT:      -5.8     15.875     20.457
REMARK  Name = 969516_Curcumin.pdbqt.pdb
REMARK  8 active torsions:
REMARK  status: ('A' for Active; 'I' for Inactive)
REMARK    1  A    between atoms: C_3  and  C_5
REMARK    2  A    between atoms: C_4  and  C_6
REMARK    3  A    between atoms: C_8  and  O_12
REMARK    4  A    between atoms: C_10  and  O_14
REMARK    5  A    between atoms: C_17  and  C_19
REMARK    6  A    between atoms: C_18  and  C_20
REMARK    7  A    between atoms: C_22  and  O_26
REMARK    8  A    between atoms: C_24  and  O_28
REMARK                            x       y       z     vdW  Elec       q    Type
REMARK                         _______ _______ _______ _____ _____    ______ ____
ROOT
ATOM      1  C   UNL     1      -7.863  40.457  12.681  0.00  0.00    +0.000 C 
ATOM      2  O   UNL     1      -7.936  41.930  14.435  0.00  0.00    +0.000 OA
ATOM      3  C   UNL     1      -7.253  41.195  13.738  0.00  0.00    +0.000 C 
ATOM      4  O   UNL     1      -7.778  39.232  10.746  0.00  0.00    +0.000 OA
ATOM      5  C   UNL     1      -8.473  39.723  11.623  0.00  0.00    +0.000 C 
ENDROOT
BRANCH   3   7
ATOM      6  C   UNL     1      -4.658  40.959  14.177  0.00  0.00    +0.000 C 
ATOM      7  C   UNL     1      -5.838  41.065  13.978  0.00  0.00    +0.000 C 
BRANCH   6   8
ATOM      8  C   UNL     1      -3.257  40.833  14.414  0.00  0.00    +0.000 A 
ATOM      9  C   UNL     1      -2.507  41.958  14.757  0.00  0.00    +0.000 A 
ATOM     10  C   UNL     1      -1.133  41.853  14.993  0.00  0.00    +0.000 A 
ATOM     11  C   UNL     1      -2.641  39.590  14.302  0.00  0.00    +0.000 A 
ATOM     12  C   UNL     1      -0.525  40.599  14.878  0.00  0.00    +0.000 A 
ATOM     13  C   UNL     1      -1.273  39.473  14.535  0.00  0.00    +0.000 A 
BRANCH  10  14
ATOM     14  O   UNL     1      -0.332  42.913  15.335  0.00  0.00    +0.000 OA
ATOM     15  C   UNL     1      -0.863  44.187  15.102  0.00  0.00    +0.000 C 
ENDBRANCH  10  14
BRANCH  12  16
ATOM     16  O   UNL     1       0.811  40.398  15.090  0.00  0.00    +0.000 OA
ATOM     17  H   UNL     1       1.025  40.483  16.034  0.00  0.00    +0.000 HD
ENDBRANCH  12  16
ENDBRANCH   6   8
ENDBRANCH   3   7
BRANCH   5  19
ATOM     18  C   UNL     1     -11.099  39.435  11.568  0.00  0.00    +0.000 C 
ATOM     19  C   UNL     1      -9.905  39.565  11.595  0.00  0.00    +0.000 C 
BRANCH  18  20
ATOM     20  C   UNL     1     -12.517  39.286  11.537  0.00  0.00    +0.000 A 
ATOM     21  C   UNL     1     -13.225  39.628  10.386  0.00  0.00    +0.000 A 
ATOM     22  C   UNL     1     -14.615  39.487  10.340  0.00  0.00    +0.000 A 
ATOM     23  C   UNL     1     -13.191  38.799  12.655  0.00  0.00    +0.000 A 
ATOM     24  C   UNL     1     -15.278  38.998  11.468  0.00  0.00    +0.000 A 
ATOM     25  C   UNL     1     -14.574  38.654  12.621  0.00  0.00    +0.000 A 
BRANCH  22  26
ATOM     26  O   UNL     1     -15.389  39.800   9.248  0.00  0.00    +0.000 OA
ATOM     27  C   UNL     1     -14.912  39.332   8.014  0.00  0.00    +0.000 C 
ENDBRANCH  22  26
BRANCH  24  28
ATOM     28  O   UNL     1     -16.638  38.852  11.442  0.00  0.00    +0.000 OA
ATOM     29  H   UNL     1     -16.912  38.630  10.532  0.00  0.00    +0.000 HD
ENDBRANCH  24  28
ENDBRANCH  18  20
ENDBRANCH   5  19
TORSDOF 8
ENDMDL
MODEL 9
REMARK VINA RESULT:      -5.8      5.313     14.619
REMARK  Name = 969516_Curcumin.pdbqt.pdb
REMARK  8 active torsions:
REMARK  status: ('A' for Active; 'I' for Inactive)
REMARK    1  A    between atoms: C_3  and  C_5
REMARK    2  A    between atoms: C_4  and  C_6
REMARK    3  A    between atoms: C_8  and  O_12
REMARK    4  A    between atoms: C_10  and  O_14
REMARK    5  A    between atoms: C_17  and  C_19
REMARK    6  A    between atoms: C_18  and  C_20
REMARK    7  A    between atoms: C_22  and  O_26
REMARK    8  A    between atoms: C_24  and  O_28
REMARK                            x       y       z     vdW  Elec       q    Type
REMARK                         _______ _______ _______ _____ _____    ______ ____
ROOT
ATOM      1  C   UNL     1     -16.311  35.794  25.831  0.00  0.00    +0.000 C 
ATOM      2  O   UNL     1     -18.422  35.621  26.706  0.00  0.00    +0.000 OA
ATOM      3  C   UNL     1     -17.380  36.255  26.654  0.00  0.00    +0.000 C 
ATOM      4  O   UNL     1     -14.335  36.092  24.709  0.00  0.00    +0.000 OA
ATOM      5  C   UNL     1     -15.247  35.333  25.003  0.00  0.00    +0.000 C 
ENDROOT
BRANCH   3   7
ATOM      6  C   UNL     1     -17.089  38.472  28.062  0.00  0.00    +0.000 C 
ATOM      7  C   UNL     1     -17.220  37.464  27.423  0.00  0.00    +0.000 C 
BRANCH   6   8
ATOM      8  C   UNL     1     -16.934  39.669  28.823  0.00  0.00    +0.000 A 
ATOM      9  C   UNL     1     -16.702  39.594  30.196  0.00  0.00    +0.000 A 
ATOM     10  C   UNL     1     -16.548  40.757  30.957  0.00  0.00    +0.000 A 
ATOM     11  C   UNL     1     -17.014  40.909  28.195  0.00  0.00    +0.000 A 
ATOM     12  C   UNL     1     -16.630  41.996  30.315  0.00  0.00    +0.000 A 
ATOM     13  C   UNL     1     -16.862  42.073  28.942  0.00  0.00    +0.000 A 
BRANCH  10  14
ATOM     14  O   UNL     1     -16.317  40.762  32.310  0.00  0.00    +0.000 OA
ATOM     15  C   UNL     1     -15.011  40.456  32.713  0.00  0.00    +0.000 C 
ENDBRANCH  10  14
BRANCH  12  16
ATOM     16  O   UNL     1     -16.493  43.187  30.975  0.00  0.00    +0.000 OA
ATOM     17  H   UNL     1     -17.358  43.517  31.271  0.00  0.00    +0.000 HD
ENDBRANCH  12  16
ENDBRANCH   6   8
ENDBRANCH   3   7
BRANCH   5  19
ATOM     18  C   UNL     1     -15.251  32.844  24.117  0.00  0.00    +0.000 C 
ATOM     19  C   UNL     1     -15.251  33.975  24.522  0.00  0.00    +0.000 C 
BRANCH  18  20
ATOM     20  C   UNL     1     -15.252  31.503  23.633  0.00  0.00    +0.000 A 
ATOM     21  C   UNL     1     -15.614  31.242  22.312  0.00  0.00    +0.000 A 
ATOM     22  C   UNL     1     -15.619  29.932  21.822  0.00  0.00    +0.000 A 
ATOM     23  C   UNL     1     -14.888  30.456  24.478  0.00  0.00    +0.000 A 
ATOM     24  C   UNL     1     -15.253  28.893  22.681  0.00  0.00    +0.000 A 
ATOM     25  C   UNL     1     -14.889  29.149  24.002  0.00  0.00    +0.000 A 
BRANCH  22  26
ATOM     26  O   UNL     1     -15.963  29.588  20.537  0.00  0.00    +0.000 OA
ATOM     27  C   UNL     1     -14.919  29.629  19.600  0.00  0.00    +0.000 C 
ENDBRANCH  22  26
BRANCH  24  28
ATOM     28  O   UNL     1     -15.251  27.605  22.220  0.00  0.00    +0.000 OA
ATOM     29  H   UNL     1     -15.915  27.093  22.720  0.00  0.00    +0.000 HD
ENDBRANCH  24  28
ENDBRANCH  18  20
ENDBRANCH   5  19
TORSDOF 8
ENDMDL
