MODEL 1
REMARK VINA RESULT:      -3.9      0.000      0.000
REMARK  Name = 971_OxalicAcid.pdbqt.pdb
REMARK  3 active torsions:
REMARK  status: ('A' for Active; 'I' for Inactive)
REMARK    1  A    between atoms: C_2  and  O_3
REMARK    2  A    between atoms: C_2  and  C_6
REMARK    3  A    between atoms: C_6  and  O_7
REMARK                            x       y       z     vdW  Elec       q    Type
REMARK                         _______ _______ _______ _____ _____    ______ ____
ROOT
ATOM      1  O   UNL     1      12.889  56.262   0.391  0.00  0.00    +0.000 OA
ATOM      2  C   UNL     1      12.586  55.115   0.652  0.00  0.00    +0.000 C 
ENDROOT
BRANCH   2   3
ATOM      3  O   UNL     1      11.593  54.481   0.014  0.00  0.00    +0.000 OA
ATOM      4  H   UNL     1      10.841  55.107   0.048  0.00  0.00    +0.000 HD
ENDBRANCH   2   3
BRANCH   2   6
ATOM      5  O   UNL     1      14.474  54.086   1.871  0.00  0.00    +0.000 OA
ATOM      6  C   UNL     1      13.275  54.221   1.730  0.00  0.00    +0.000 C 
BRANCH   6   7
ATOM      7  O   UNL     1      12.393  53.591   2.519  0.00  0.00    +0.000 OA
ATOM      8  H   UNL     1      12.938  53.195   3.228  0.00  0.00    +0.000 HD
ENDBRANCH   6   7
ENDBRANCH   2   6
TORSDOF 3
ENDMDL
MODEL 2
REMARK VINA RESULT:      -3.9     17.502     18.109
REMARK  Name = 971_OxalicAcid.pdbqt.pdb
REMARK  3 active torsions:
REMARK  status: ('A' for Active; 'I' for Inactive)
REMARK    1  A    between atoms: C_2  and  O_3
REMARK    2  A    between atoms: C_2  and  C_6
REMARK    3  A    between atoms: C_6  and  O_7
REMARK                            x       y       z     vdW  Elec       q    Type
REMARK                         _______ _______ _______ _____ _____    ______ ____
ROOT
ATOM      1  O   UNL     1      -0.678  44.381   5.902  0.00  0.00    +0.000 OA
ATOM      2  C   UNL     1      -0.894  45.087   6.867  0.00  0.00    +0.000 C 
ENDROOT
BRANCH   2   3
ATOM      3  O   UNL     1      -0.077  45.105   7.930  0.00  0.00    +0.000 OA
ATOM      4  H   UNL     1      -0.510  44.519   8.582  0.00  0.00    +0.000 HD
ENDBRANCH   2   3
BRANCH   2   6
ATOM      5  O   UNL     1      -3.016  45.917   7.826  0.00  0.00    +0.000 OA
ATOM      6  C   UNL     1      -2.110  46.052   7.027  0.00  0.00    +0.000 C 
BRANCH   6   7
ATOM      7  O   UNL     1      -2.066  47.084   6.172  0.00  0.00    +0.000 OA
ATOM      8  H   UNL     1      -2.763  46.886   5.514  0.00  0.00    +0.000 HD
ENDBRANCH   6   7
ENDBRANCH   2   6
TORSDOF 3
ENDMDL
MODEL 3
REMARK VINA RESULT:      -3.8     19.309     20.031
REMARK  Name = 971_OxalicAcid.pdbqt.pdb
REMARK  3 active torsions:
REMARK  status: ('A' for Active; 'I' for Inactive)
REMARK    1  A    between atoms: C_2  and  O_3
REMARK    2  A    between atoms: C_2  and  C_6
REMARK    3  A    between atoms: C_6  and  O_7
REMARK                            x       y       z     vdW  Elec       q    Type
REMARK                         _______ _______ _______ _____ _____    ______ ____
ROOT
ATOM      1  O   UNL     1       3.375  42.975  16.092  0.00  0.00    +0.000 OA
ATOM      2  C   UNL     1       4.196  43.798  15.737  0.00  0.00    +0.000 C 
ENDROOT
BRANCH   2   3
ATOM      3  O   UNL     1       4.960  43.612  14.651  0.00  0.00    +0.000 OA
ATOM      4  H   UNL     1       4.458  44.030  13.923  0.00  0.00    +0.000 HD
ENDBRANCH   2   3
BRANCH   2   6
ATOM      5  O   UNL     1       3.689  45.781  17.121  0.00  0.00    +0.000 OA
ATOM      6  C   UNL     1       4.487  45.152  16.453  0.00  0.00    +0.000 C 
BRANCH   6   7
ATOM      7  O   UNL     1       5.742  45.580  16.261  0.00  0.00    +0.000 OA
ATOM      8  H   UNL     1       5.898  45.460  15.303  0.00  0.00    +0.000 HD
ENDBRANCH   6   7
ENDBRANCH   2   6
TORSDOF 3
ENDMDL
MODEL 4
REMARK VINA RESULT:      -3.7     19.343     20.048
REMARK  Name = 971_OxalicAcid.pdbqt.pdb
REMARK  3 active torsions:
REMARK  status: ('A' for Active; 'I' for Inactive)
REMARK    1  A    between atoms: C_2  and  O_3
REMARK    2  A    between atoms: C_2  and  C_6
REMARK    3  A    between atoms: C_6  and  O_7
REMARK                            x       y       z     vdW  Elec       q    Type
REMARK                         _______ _______ _______ _____ _____    ______ ____
ROOT
ATOM      1  O   UNL     1       3.577  45.832  16.399  0.00  0.00    +0.000 OA
ATOM      2  C   UNL     1       4.476  45.039  16.200  0.00  0.00    +0.000 C 
ENDROOT
BRANCH   2   3
ATOM      3  O   UNL     1       5.766  45.390  16.302  0.00  0.00    +0.000 OA
ATOM      4  H   UNL     1       6.255  44.643  15.903  0.00  0.00    +0.000 HD
ENDBRANCH   2   3
BRANCH   2   6
ATOM      5  O   UNL     1       5.131  42.842  15.277  0.00  0.00    +0.000 OA
ATOM      6  C   UNL     1       4.290  43.541  15.808  0.00  0.00    +0.000 C 
BRANCH   6   7
ATOM      7  O   UNL     1       3.073  43.073  16.119  0.00  0.00    +0.000 OA
ATOM      8  H   UNL     1       2.831  42.499  15.364  0.00  0.00    +0.000 HD
ENDBRANCH   6   7
ENDBRANCH   2   6
TORSDOF 3
ENDMDL
MODEL 5
REMARK VINA RESULT:      -3.7     33.924     34.851
REMARK  Name = 971_OxalicAcid.pdbqt.pdb
REMARK  3 active torsions:
REMARK  status: ('A' for Active; 'I' for Inactive)
REMARK    1  A    between atoms: C_2  and  O_3
REMARK    2  A    between atoms: C_2  and  C_6
REMARK    3  A    between atoms: C_6  and  O_7
REMARK                            x       y       z     vdW  Elec       q    Type
REMARK                         _______ _______ _______ _____ _____    ______ ____
ROOT
ATOM      1  O   UNL     1      -4.900  23.025   4.877  0.00  0.00    +0.000 OA
ATOM      2  C   UNL     1      -4.197  24.017   4.893  0.00  0.00    +0.000 C 
ENDROOT
BRANCH   2   3
ATOM      3  O   UNL     1      -4.710  25.248   5.022  0.00  0.00    +0.000 OA
ATOM      4  H   UNL     1      -3.964  25.792   5.343  0.00  0.00    +0.000 HD
ENDBRANCH   2   3
BRANCH   2   6
ATOM      5  O   UNL     1      -1.938  23.037   4.674  0.00  0.00    +0.000 OA
ATOM      6  C   UNL     1      -2.641  24.024   4.770  0.00  0.00    +0.000 C 
BRANCH   6   7
ATOM      7  O   UNL     1      -2.128  25.262   4.779  0.00  0.00    +0.000 OA
ATOM      8  H   UNL     1      -1.825  25.395   5.700  0.00  0.00    +0.000 HD
ENDBRANCH   6   7
ENDBRANCH   2   6
TORSDOF 3
ENDMDL
MODEL 6
REMARK VINA RESULT:      -3.7     29.381     30.562
REMARK  Name = 971_OxalicAcid.pdbqt.pdb
REMARK  3 active torsions:
REMARK  status: ('A' for Active; 'I' for Inactive)
REMARK    1  A    between atoms: C_2  and  O_3
REMARK    2  A    between atoms: C_2  and  C_6
REMARK    3  A    between atoms: C_6  and  O_7
REMARK                            x       y       z     vdW  Elec       q    Type
REMARK                         _______ _______ _______ _____ _____    ______ ____
ROOT
ATOM      1  O   UNL     1      -3.617  31.144  13.397  0.00  0.00    +0.000 OA
ATOM      2  C   UNL     1      -3.728  31.890  14.349  0.00  0.00    +0.000 C 
ENDROOT
BRANCH   2   3
ATOM      3  O   UNL     1      -4.802  31.861  15.151  0.00  0.00    +0.000 OA
ATOM      4  H   UNL     1      -5.191  30.975  15.006  0.00  0.00    +0.000 HD
ENDBRANCH   2   3
BRANCH   2   6
ATOM      5  O   UNL     1      -1.986  32.909  15.775  0.00  0.00    +0.000 OA
ATOM      6  C   UNL     1      -2.684  32.965  14.782  0.00  0.00    +0.000 C 
BRANCH   6   7
ATOM      7  O   UNL     1      -2.620  33.998  13.929  0.00  0.00    +0.000 OA
ATOM      8  H   UNL     1      -1.862  33.789  13.348  0.00  0.00    +0.000 HD
ENDBRANCH   6   7
ENDBRANCH   2   6
TORSDOF 3
ENDMDL
MODEL 7
REMARK VINA RESULT:      -3.6     17.714     18.057
REMARK  Name = 971_OxalicAcid.pdbqt.pdb
REMARK  3 active torsions:
REMARK  status: ('A' for Active; 'I' for Inactive)
REMARK    1  A    between atoms: C_2  and  O_3
REMARK    2  A    between atoms: C_2  and  C_6
REMARK    3  A    between atoms: C_6  and  O_7
REMARK                            x       y       z     vdW  Elec       q    Type
REMARK                         _______ _______ _______ _____ _____    ______ ____
ROOT
ATOM      1  O   UNL     1      -2.112  46.035   6.395  0.00  0.00    +0.000 OA
ATOM      2  C   UNL     1      -1.860  46.488   7.494  0.00  0.00    +0.000 C 
ENDROOT
BRANCH   2   3
ATOM      3  O   UNL     1      -1.231  45.766   8.432  0.00  0.00    +0.000 OA
ATOM      4  H   UNL     1      -1.439  44.837   8.206  0.00  0.00    +0.000 HD
ENDBRANCH   2   3
BRANCH   2   6
ATOM      5  O   UNL     1      -3.038  48.661   7.470  0.00  0.00    +0.000 OA
ATOM      6  C   UNL     1      -2.213  47.929   7.979  0.00  0.00    +0.000 C 
BRANCH   6   7
ATOM      7  O   UNL     1      -1.497  48.303   9.048  0.00  0.00    +0.000 OA
ATOM      8  H   UNL     1      -0.628  48.566   8.682  0.00  0.00    +0.000 HD
ENDBRANCH   6   7
ENDBRANCH   2   6
TORSDOF 3
ENDMDL
MODEL 8
REMARK VINA RESULT:      -3.6     27.988     28.341
REMARK  Name = 971_OxalicAcid.pdbqt.pdb
REMARK  3 active torsions:
REMARK  status: ('A' for Active; 'I' for Inactive)
REMARK    1  A    between atoms: C_2  and  O_3
REMARK    2  A    between atoms: C_2  and  C_6
REMARK    3  A    between atoms: C_6  and  O_7
REMARK                            x       y       z     vdW  Elec       q    Type
REMARK                         _______ _______ _______ _____ _____    ______ ____
ROOT
ATOM      1  O   UNL     1      -0.412  35.467  17.540  0.00  0.00    +0.000 OA
ATOM      2  C   UNL     1      -1.206  35.383  16.624  0.00  0.00    +0.000 C 
ENDROOT
BRANCH   2   3
ATOM      3  O   UNL     1      -2.408  35.975  16.671  0.00  0.00    +0.000 OA
ATOM      4  H   UNL     1      -2.882  35.510  17.389  0.00  0.00    +0.000 HD
ENDBRANCH   2   3
BRANCH   2   6
ATOM      5  O   UNL     1       0.070  34.069  14.965  0.00  0.00    +0.000 OA
ATOM      6  C   UNL     1      -0.970  34.605  15.292  0.00  0.00    +0.000 C 
BRANCH   6   7
ATOM      7  O   UNL     1      -2.058  34.578  14.510  0.00  0.00    +0.000 OA
ATOM      8  H   UNL     1      -2.218  33.627  14.345  0.00  0.00    +0.000 HD
ENDBRANCH   6   7
ENDBRANCH   2   6
TORSDOF 3
ENDMDL
MODEL 9
REMARK VINA RESULT:      -3.6     25.565     26.791
REMARK  Name = 971_OxalicAcid.pdbqt.pdb
REMARK  3 active torsions:
REMARK  status: ('A' for Active; 'I' for Inactive)
REMARK    1  A    between atoms: C_2  and  O_3
REMARK    2  A    between atoms: C_2  and  C_6
REMARK    3  A    between atoms: C_6  and  O_7
REMARK                            x       y       z     vdW  Elec       q    Type
REMARK                         _______ _______ _______ _____ _____    ______ ____
ROOT
ATOM      1  O   UNL     1      -2.687  38.960  16.713  0.00  0.00    +0.000 OA
ATOM      2  C   UNL     1      -2.400  37.931  16.135  0.00  0.00    +0.000 C 
ENDROOT
BRANCH   2   3
ATOM      3  O   UNL     1      -2.362  36.749  16.767  0.00  0.00    +0.000 OA
ATOM      4  H   UNL     1      -3.281  36.417  16.720  0.00  0.00    +0.000 HD
ENDBRANCH   2   3
BRANCH   2   6
ATOM      5  O   UNL     1      -1.789  38.747  13.883  0.00  0.00    +0.000 OA
ATOM      6  C   UNL     1      -2.042  37.814  14.621  0.00  0.00    +0.000 C 
BRANCH   6   7
ATOM      7  O   UNL     1      -2.037  36.546  14.187  0.00  0.00    +0.000 OA
ATOM      8  H   UNL     1      -1.479  36.068  14.832  0.00  0.00    +0.000 HD
ENDBRANCH   6   7
ENDBRANCH   2   6
TORSDOF 3
ENDMDL
