MODEL 1
REMARK VINA RESULT:      -7.4      0.000      0.000
REMARK  Name = 9852185_GambogicAcid.pdbqt.pdb
REMARK  10 active torsions:
REMARK  status: ('A' for Active; 'I' for Inactive)
REMARK    1  A    between atoms: C_8  and  C_30
REMARK    2  A    between atoms: C_20  and  C_38
REMARK    3  A    between atoms: C_21  and  O_28
REMARK    4  A    between atoms: C_25  and  C_43
REMARK    5  A    between atoms: C_31  and  C_32
REMARK    6  A    between atoms: C_32  and  C_35
REMARK    7  A    between atoms: C_35  and  O_36
REMARK    8  A    between atoms: C_39  and  C_40
REMARK    9  A    between atoms: C_43  and  C_44
REMARK   10  A    between atoms: C_45  and  C_46
REMARK                            x       y       z     vdW  Elec       q    Type
REMARK                         _______ _______ _______ _____ _____    ______ ____
ROOT
ATOM      1  O   UNL     1      12.107  36.965  17.948  0.00  0.00    +0.000 OA
ATOM      2  O   UNL     1      10.845  34.470  17.259  0.00  0.00    +0.000 OA
ATOM      3  O   UNL     1       9.896  39.080  18.792  0.00  0.00    +0.000 OA
ATOM      4  O   UNL     1       6.888  34.481  16.118  0.00  0.00    +0.000 OA
ATOM      5  O   UNL     1      11.373  29.906  16.043  0.00  0.00    +0.000 OA
ATOM      6  C   UNL     1      10.237  35.743  17.091  0.00  0.00    +0.000 C 
ATOM      7  C   UNL     1      10.901  36.586  15.945  0.00  0.00    +0.000 C 
ATOM      8  C   UNL     1      10.709  36.760  18.206  0.00  0.00    +0.000 C 
ATOM      9  C   UNL     1      12.288  36.885  16.524  0.00  0.00    +0.000 C 
ATOM     10  C   UNL     1      10.016  37.722  15.684  0.00  0.00    +0.000 C 
ATOM     11  C   UNL     1       9.064  38.117  16.708  0.00  0.00    +0.000 C 
ATOM     12  C   UNL     1       8.702  35.700  16.995  0.00  0.00    +0.000 C 
ATOM     13  C   UNL     1       9.882  38.126  18.030  0.00  0.00    +0.000 C 
ATOM     14  C   UNL     1       8.153  37.010  16.848  0.00  0.00    +0.000 C 
ATOM     15  C   UNL     1      12.840  38.233  16.036  0.00  0.00    +0.000 C 
ATOM     16  C   UNL     1      13.262  35.747  16.181  0.00  0.00    +0.000 C 
ATOM     17  C   UNL     1       8.063  34.499  16.460  0.00  0.00    +0.000 C 
ATOM     18  C   UNL     1      10.250  33.358  16.726  0.00  0.00    +0.000 A 
ATOM     19  C   UNL     1       8.909  33.306  16.320  0.00  0.00    +0.000 A 
ATOM     20  C   UNL     1      11.059  32.204  16.636  0.00  0.00    +0.000 A 
ATOM     21  C   UNL     1       8.368  32.120  15.797  0.00  0.00    +0.000 A 
ATOM     22  C   UNL     1      10.529  31.016  16.121  0.00  0.00    +0.000 A 
ATOM     23  C   UNL     1       9.176  30.991  15.699  0.00  0.00    +0.000 A 
ATOM     24  C   UNL     1       8.756  29.731  15.203  0.00  0.00    +0.000 C 
ATOM     25  C   UNL     1      10.854  28.598  15.577  0.00  0.00    +0.000 C 
ATOM     26  C   UNL     1       9.459  28.769  15.168  0.00  0.00    +0.000 C 
ATOM     27  C   UNL     1      10.995  27.613  16.765  0.00  0.00    +0.000 C 
ENDROOT
BRANCH  21  28
ATOM     28  O   UNL     1       7.069  32.021  15.375  0.00  0.00    +0.000 OA
ATOM     29  H   UNL     1       6.814  31.074  15.300  0.00  0.00    +0.000 HD
ENDBRANCH  21  28
BRANCH   8  30
ATOM     30  C   UNL     1      10.537  36.224  19.563  0.00  0.00    +0.000 C 
ATOM     31  C   UNL     1      10.312  35.637  20.965  0.00  0.00    +0.000 C 
BRANCH  31  32
ATOM     32  C   UNL     1      10.065  35.135  22.142  0.00  0.00    +0.000 C 
ATOM     33  C   UNL     1      11.199  35.269  23.142  0.00  0.00    +0.000 C 
BRANCH  32  35
ATOM     34  O   UNL     1       7.660  35.050  22.329  0.00  0.00    +0.000 OA
ATOM     35  C   UNL     1       8.748  34.504  22.429  0.00  0.00    +0.000 C 
BRANCH  35  36
ATOM     36  O   UNL     1       8.824  33.217  22.829  0.00  0.00    +0.000 OA
ATOM     37  H   UNL     1       9.421  32.783  22.184  0.00  0.00    +0.000 HD
ENDBRANCH  35  36
ENDBRANCH  32  35
ENDBRANCH  31  32
ENDBRANCH   8  30
BRANCH  20  38
ATOM     38  C   UNL     1      12.425  32.251  17.069  0.00  0.00    +0.000 C 
ATOM     39  C   UNL     1      13.896  32.284  17.509  0.00  0.00    +0.000 C 
BRANCH  39  40
ATOM     40  C   UNL     1      15.144  32.302  17.862  0.00  0.00    +0.000 C 
ATOM     41  C   UNL     1      15.933  31.028  17.842  0.00  0.00    +0.000 C 
ATOM     42  C   UNL     1      15.844  33.614  18.047  0.00  0.00    +0.000 C 
ENDBRANCH  39  40
ENDBRANCH  20  38
BRANCH  25  43
ATOM     43  C   UNL     1      11.704  28.175  14.449  0.00  0.00    +0.000 C 
BRANCH  43  44
ATOM     44  C   UNL     1      12.593  27.731  13.280  0.00  0.00    +0.000 C 
ATOM     45  C   UNL     1      13.481  27.285  12.110  0.00  0.00    +0.000 C 
BRANCH  45  46
ATOM     46  C   UNL     1      14.231  26.902  11.124  0.00  0.00    +0.000 C 
ATOM     47  C   UNL     1      14.452  27.821   9.962  0.00  0.00    +0.000 C 
ATOM     48  C   UNL     1      14.723  25.489  11.062  0.00  0.00    +0.000 C 
ENDBRANCH  45  46
ENDBRANCH  43  44
ENDBRANCH  25  43
TORSDOF 10
ENDMDL
MODEL 2
REMARK VINA RESULT:      -6.9     14.872     19.081
REMARK  Name = 9852185_GambogicAcid.pdbqt.pdb
REMARK  10 active torsions:
REMARK  status: ('A' for Active; 'I' for Inactive)
REMARK    1  A    between atoms: C_8  and  C_30
REMARK    2  A    between atoms: C_20  and  C_38
REMARK    3  A    between atoms: C_21  and  O_28
REMARK    4  A    between atoms: C_25  and  C_43
REMARK    5  A    between atoms: C_31  and  C_32
REMARK    6  A    between atoms: C_32  and  C_35
REMARK    7  A    between atoms: C_35  and  O_36
REMARK    8  A    between atoms: C_39  and  C_40
REMARK    9  A    between atoms: C_43  and  C_44
REMARK   10  A    between atoms: C_45  and  C_46
REMARK                            x       y       z     vdW  Elec       q    Type
REMARK                         _______ _______ _______ _____ _____    ______ ____
ROOT
ATOM      1  O   UNL     1      12.770  27.843  -3.428  0.00  0.00    +0.000 OA
ATOM      2  O   UNL     1      13.608  27.807  -0.673  0.00  0.00    +0.000 OA
ATOM      3  O   UNL     1      11.375  30.619  -4.079  0.00  0.00    +0.000 OA
ATOM      4  O   UNL     1      11.758  30.320   2.012  0.00  0.00    +0.000 OA
ATOM      5  O   UNL     1      15.923  25.514   2.787  0.00  0.00    +0.000 OA
ATOM      6  C   UNL     1      12.486  28.533  -1.154  0.00  0.00    +0.000 C 
ATOM      7  C   UNL     1      11.299  27.599  -1.587  0.00  0.00    +0.000 C 
ATOM      8  C   UNL     1      12.717  29.039  -2.634  0.00  0.00    +0.000 C 
ATOM      9  C   UNL     1      11.873  26.897  -2.822  0.00  0.00    +0.000 C 
ATOM     10  C   UNL     1      10.130  28.459  -1.777  0.00  0.00    +0.000 C 
ATOM     11  C   UNL     1      10.334  29.880  -1.997  0.00  0.00    +0.000 C 
ATOM     12  C   UNL     1      12.043  29.686  -0.237  0.00  0.00    +0.000 C 
ATOM     13  C   UNL     1      11.470  29.960  -3.056  0.00  0.00    +0.000 C 
ATOM     14  C   UNL     1      10.925  30.386  -0.786  0.00  0.00    +0.000 C 
ATOM     15  C   UNL     1      10.783  26.548  -3.846  0.00  0.00    +0.000 C 
ATOM     16  C   UNL     1      12.644  25.636  -2.404  0.00  0.00    +0.000 C 
ATOM     17  C   UNL     1      12.296  29.582   1.199  0.00  0.00    +0.000 C 
ATOM     18  C   UNL     1      13.815  27.691   0.675  0.00  0.00    +0.000 A 
ATOM     19  C   UNL     1      13.212  28.519   1.633  0.00  0.00    +0.000 A 
ATOM     20  C   UNL     1      14.731  26.696   1.080  0.00  0.00    +0.000 A 
ATOM     21  C   UNL     1      13.489  28.347   2.999  0.00  0.00    +0.000 A 
ATOM     22  C   UNL     1      15.018  26.520   2.438  0.00  0.00    +0.000 A 
ATOM     23  C   UNL     1      14.382  27.354   3.392  0.00  0.00    +0.000 A 
ATOM     24  C   UNL     1      14.759  27.081   4.730  0.00  0.00    +0.000 C 
ATOM     25  C   UNL     1      16.327  25.324   4.201  0.00  0.00    +0.000 C 
ATOM     26  C   UNL     1      15.558  26.251   5.034  0.00  0.00    +0.000 C 
ATOM     27  C   UNL     1      17.849  25.604   4.271  0.00  0.00    +0.000 C 
ENDROOT
BRANCH  21  28
ATOM     28  O   UNL     1      12.916  29.119   3.975  0.00  0.00    +0.000 OA
ATOM     29  H   UNL     1      13.424  29.955   4.080  0.00  0.00    +0.000 HD
ENDBRANCH  21  28
BRANCH   8  30
ATOM     30  C   UNL     1      13.978  29.780  -2.783  0.00  0.00    +0.000 C 
ATOM     31  C   UNL     1      15.270  30.599  -2.924  0.00  0.00    +0.000 C 
BRANCH  31  32
ATOM     32  C   UNL     1      16.334  31.341  -3.051  0.00  0.00    +0.000 C 
ATOM     33  C   UNL     1      16.662  31.744  -4.477  0.00  0.00    +0.000 C 
BRANCH  32  35
ATOM     34  O   UNL     1      18.039  31.114  -1.357  0.00  0.00    +0.000 OA
ATOM     35  C   UNL     1      17.116  31.744  -1.852  0.00  0.00    +0.000 C 
BRANCH  35  36
ATOM     36  O   UNL     1      16.731  32.917  -1.306  0.00  0.00    +0.000 OA
ATOM     37  H   UNL     1      17.161  33.608  -1.851  0.00  0.00    +0.000 HD
ENDBRANCH  35  36
ENDBRANCH  32  35
ENDBRANCH  31  32
ENDBRANCH   8  30
BRANCH  20  38
ATOM     38  C   UNL     1      15.364  25.863   0.099  0.00  0.00    +0.000 C 
ATOM     39  C   UNL     1      16.025  24.986  -0.974  0.00  0.00    +0.000 C 
BRANCH  39  40
ATOM     40  C   UNL     1      16.576  24.258  -1.895  0.00  0.00    +0.000 C 
ATOM     41  C   UNL     1      16.125  24.406  -3.317  0.00  0.00    +0.000 C 
ATOM     42  C   UNL     1      17.809  23.468  -1.580  0.00  0.00    +0.000 C 
ENDBRANCH  39  40
ENDBRANCH  20  38
BRANCH  25  43
ATOM     43  C   UNL     1      16.041  23.919   4.545  0.00  0.00    +0.000 C 
BRANCH  43  44
ATOM     44  C   UNL     1      15.743  22.455   4.895  0.00  0.00    +0.000 C 
ATOM     45  C   UNL     1      15.444  20.991   5.247  0.00  0.00    +0.000 C 
BRANCH  45  46
ATOM     46  C   UNL     1      15.200  19.753   5.544  0.00  0.00    +0.000 C 
ATOM     47  C   UNL     1      13.783  19.298   5.713  0.00  0.00    +0.000 C 
ATOM     48  C   UNL     1      16.326  18.830   5.892  0.00  0.00    +0.000 C 
ENDBRANCH  45  46
ENDBRANCH  43  44
ENDBRANCH  25  43
TORSDOF 10
ENDMDL
MODEL 3
REMARK VINA RESULT:      -6.5     21.690     26.331
REMARK  Name = 9852185_GambogicAcid.pdbqt.pdb
REMARK  10 active torsions:
REMARK  status: ('A' for Active; 'I' for Inactive)
REMARK    1  A    between atoms: C_8  and  C_30
REMARK    2  A    between atoms: C_20  and  C_38
REMARK    3  A    between atoms: C_21  and  O_28
REMARK    4  A    between atoms: C_25  and  C_43
REMARK    5  A    between atoms: C_31  and  C_32
REMARK    6  A    between atoms: C_32  and  C_35
REMARK    7  A    between atoms: C_35  and  O_36
REMARK    8  A    between atoms: C_39  and  C_40
REMARK    9  A    between atoms: C_43  and  C_44
REMARK   10  A    between atoms: C_45  and  C_46
REMARK                            x       y       z     vdW  Elec       q    Type
REMARK                         _______ _______ _______ _____ _____    ______ ____
ROOT
ATOM      1  O   UNL     1      -1.919  21.368  -4.671  0.00  0.00    +0.000 OA
ATOM      2  O   UNL     1      -3.201  22.244  -2.245  0.00  0.00    +0.000 OA
ATOM      3  O   UNL     1      -3.452  22.566  -7.178  0.00  0.00    +0.000 OA
ATOM      4  O   UNL     1      -7.142  23.429  -2.384  0.00  0.00    +0.000 OA
ATOM      5  O   UNL     1      -3.135  22.382   2.505  0.00  0.00    +0.000 OA
ATOM      6  C   UNL     1      -3.879  22.047  -3.478  0.00  0.00    +0.000 C 
ATOM      7  C   UNL     1      -3.988  20.532  -3.875  0.00  0.00    +0.000 C 
ATOM      8  C   UNL     1      -2.944  22.373  -4.711  0.00  0.00    +0.000 C 
ATOM      9  C   UNL     1      -2.529  20.167  -4.167  0.00  0.00    +0.000 C 
ATOM     10  C   UNL     1      -4.942  20.450  -4.983  0.00  0.00    +0.000 C 
ATOM     11  C   UNL     1      -5.215  21.646  -5.761  0.00  0.00    +0.000 C 
ATOM     12  C   UNL     1      -5.218  22.797  -3.586  0.00  0.00    +0.000 C 
ATOM     13  C   UNL     1      -3.816  22.259  -6.055  0.00  0.00    +0.000 C 
ATOM     14  C   UNL     1      -5.839  22.573  -4.853  0.00  0.00    +0.000 C 
ATOM     15  C   UNL     1      -2.409  19.080  -5.245  0.00  0.00    +0.000 C 
ATOM     16  C   UNL     1      -1.826  19.724  -2.874  0.00  0.00    +0.000 C 
ATOM     17  C   UNL     1      -5.971  23.074  -2.364  0.00  0.00    +0.000 C 
ATOM     18  C   UNL     1      -3.920  22.472  -1.103  0.00  0.00    +0.000 A 
ATOM     19  C   UNL     1      -5.263  22.876  -1.092  0.00  0.00    +0.000 A 
ATOM     20  C   UNL     1      -3.219  22.322   0.113  0.00  0.00    +0.000 A 
ATOM     21  C   UNL     1      -5.928  23.106   0.124  0.00  0.00    +0.000 A 
ATOM     22  C   UNL     1      -3.870  22.554   1.329  0.00  0.00    +0.000 A 
ATOM     23  C   UNL     1      -5.233  22.943   1.319  0.00  0.00    +0.000 A 
ATOM     24  C   UNL     1      -5.777  23.153   2.611  0.00  0.00    +0.000 C 
ATOM     25  C   UNL     1      -3.743  22.683   3.822  0.00  0.00    +0.000 C 
ATOM     26  C   UNL     1      -5.147  23.045   3.617  0.00  0.00    +0.000 C 
ATOM     27  C   UNL     1      -2.926  23.848   4.435  0.00  0.00    +0.000 C 
ENDROOT
BRANCH  21  28
ATOM     28  O   UNL     1      -7.241  23.489   0.190  0.00  0.00    +0.000 OA
ATOM     29  H   UNL     1      -7.719  22.931   0.844  0.00  0.00    +0.000 HD
ENDBRANCH  21  28
BRANCH   8  30
ATOM     30  C   UNL     1      -2.326  23.703  -4.610  0.00  0.00    +0.000 C 
ATOM     31  C   UNL     1      -1.682  25.097  -4.558  0.00  0.00    +0.000 C 
BRANCH  31  32
ATOM     32  C   UNL     1      -1.116  26.271  -4.567  0.00  0.00    +0.000 C 
ATOM     33  C   UNL     1       0.375  26.256  -4.850  0.00  0.00    +0.000 C 
BRANCH  32  35
ATOM     34  O   UNL     1      -3.145  27.561  -4.349  0.00  0.00    +0.000 OA
ATOM     35  C   UNL     1      -1.924  27.497  -4.329  0.00  0.00    +0.000 C 
BRANCH  35  36
ATOM     36  O   UNL     1      -1.194  28.603  -4.073  0.00  0.00    +0.000 OA
ATOM     37  H   UNL     1      -0.889  28.500  -3.147  0.00  0.00    +0.000 HD
ENDBRANCH  35  36
ENDBRANCH  32  35
ENDBRANCH  31  32
ENDBRANCH   8  30
BRANCH  20  38
ATOM     38  C   UNL     1      -1.840  21.929   0.101  0.00  0.00    +0.000 C 
ATOM     39  C   UNL     1      -0.372  21.478   0.081  0.00  0.00    +0.000 C 
BRANCH  39  40
ATOM     40  C   UNL     1       0.861  21.078   0.056  0.00  0.00    +0.000 C 
ATOM     41  C   UNL     1       1.171  19.675  -0.369  0.00  0.00    +0.000 C 
ATOM     42  C   UNL     1       1.968  22.076   0.210  0.00  0.00    +0.000 C 
ENDBRANCH  39  40
ENDBRANCH  20  38
BRANCH  25  43
ATOM     43  C   UNL     1      -3.610  21.467   4.646  0.00  0.00    +0.000 C 
BRANCH  43  44
ATOM     44  C   UNL     1      -3.463  20.201   5.501  0.00  0.00    +0.000 C 
ATOM     45  C   UNL     1      -3.315  18.936   6.358  0.00  0.00    +0.000 C 
BRANCH  45  46
ATOM     46  C   UNL     1      -3.183  17.868   7.080  0.00  0.00    +0.000 C 
ATOM     47  C   UNL     1      -1.813  17.325   7.353  0.00  0.00    +0.000 C 
ATOM     48  C   UNL     1      -4.391  17.083   7.485  0.00  0.00    +0.000 C 
ENDBRANCH  45  46
ENDBRANCH  43  44
ENDBRANCH  25  43
TORSDOF 10
ENDMDL
MODEL 4
REMARK VINA RESULT:      -6.4     16.389     20.088
REMARK  Name = 9852185_GambogicAcid.pdbqt.pdb
REMARK  10 active torsions:
REMARK  status: ('A' for Active; 'I' for Inactive)
REMARK    1  A    between atoms: C_8  and  C_30
REMARK    2  A    between atoms: C_20  and  C_38
REMARK    3  A    between atoms: C_21  and  O_28
REMARK    4  A    between atoms: C_25  and  C_43
REMARK    5  A    between atoms: C_31  and  C_32
REMARK    6  A    between atoms: C_32  and  C_35
REMARK    7  A    between atoms: C_35  and  O_36
REMARK    8  A    between atoms: C_39  and  C_40
REMARK    9  A    between atoms: C_43  and  C_44
REMARK   10  A    between atoms: C_45  and  C_46
REMARK                            x       y       z     vdW  Elec       q    Type
REMARK                         _______ _______ _______ _____ _____    ______ ____
ROOT
ATOM      1  O   UNL     1       8.013  16.247   8.840  0.00  0.00    +0.000 OA
ATOM      2  O   UNL     1       5.428  17.511   8.706  0.00  0.00    +0.000 OA
ATOM      3  O   UNL     1       8.968  16.095  11.863  0.00  0.00    +0.000 OA
ATOM      4  O   UNL     1       4.247  19.974  11.787  0.00  0.00    +0.000 OA
ATOM      5  O   UNL     1       1.715  18.777   6.024  0.00  0.00    +0.000 OA
ATOM      6  C   UNL     1       6.403  17.794   9.701  0.00  0.00    +0.000 C 
ATOM      7  C   UNL     1       7.644  18.569   9.132  0.00  0.00    +0.000 C 
ATOM      8  C   UNL     1       7.270  16.516  10.040  0.00  0.00    +0.000 C 
ATOM      9  C   UNL     1       8.298  17.517   8.229  0.00  0.00    +0.000 C 
ATOM     10  C   UNL     1       8.412  19.046  10.283  0.00  0.00    +0.000 C 
ATOM     11  C   UNL     1       8.219  18.400  11.569  0.00  0.00    +0.000 C 
ATOM     12  C   UNL     1       5.830  18.429  10.979  0.00  0.00    +0.000 C 
ATOM     13  C   UNL     1       8.251  16.877  11.259  0.00  0.00    +0.000 C 
ATOM     14  C   UNL     1       6.855  18.670  11.945  0.00  0.00    +0.000 C 
ATOM     15  C   UNL     1       9.823  17.683   8.158  0.00  0.00    +0.000 C 
ATOM     16  C   UNL     1       7.683  17.572   6.821  0.00  0.00    +0.000 C 
ATOM     17  C   UNL     1       4.616  19.238  10.882  0.00  0.00    +0.000 C 
ATOM     18  C   UNL     1       4.312  18.297   8.606  0.00  0.00    +0.000 A 
ATOM     19  C   UNL     1       3.865  19.153   9.623  0.00  0.00    +0.000 A 
ATOM     20  C   UNL     1       3.571  18.175   7.410  0.00  0.00    +0.000 A 
ATOM     21  C   UNL     1       2.697  19.915   9.450  0.00  0.00    +0.000 A 
ATOM     22  C   UNL     1       2.405  18.926   7.230  0.00  0.00    +0.000 A 
ATOM     23  C   UNL     1       1.981  19.800   8.262  0.00  0.00    +0.000 A 
ATOM     24  C   UNL     1       0.785  20.499   7.962  0.00  0.00    +0.000 C 
ATOM     25  C   UNL     1       0.433  19.487   5.800  0.00  0.00    +0.000 C 
ATOM     26  C   UNL     1       0.169  20.350   6.952  0.00  0.00    +0.000 C 
ATOM     27  C   UNL     1      -0.656  18.397   5.628  0.00  0.00    +0.000 C 
ENDROOT
BRANCH  21  28
ATOM     28  O   UNL     1       2.225  20.775  10.405  0.00  0.00    +0.000 OA
ATOM     29  H   UNL     1       1.615  20.298  11.011  0.00  0.00    +0.000 HD
ENDBRANCH  21  28
BRANCH   8  30
ATOM     30  C   UNL     1       6.442  15.348  10.373  0.00  0.00    +0.000 C 
ATOM     31  C   UNL     1       5.537  14.161  10.738  0.00  0.00    +0.000 C 
BRANCH  31  32
ATOM     32  C   UNL     1       4.744  13.188  11.086  0.00  0.00    +0.000 C 
ATOM     33  C   UNL     1       5.125  11.827  10.533  0.00  0.00    +0.000 C 
BRANCH  32  35
ATOM     34  O   UNL     1       2.446  13.021  11.809  0.00  0.00    +0.000 OA
ATOM     35  C   UNL     1       3.579  13.450  11.974  0.00  0.00    +0.000 C 
BRANCH  35  36
ATOM     36  O   UNL     1       3.856  14.233  13.038  0.00  0.00    +0.000 OA
ATOM     37  H   UNL     1       3.135  14.896  13.063  0.00  0.00    +0.000 HD
ENDBRANCH  35  36
ENDBRANCH  32  35
ENDBRANCH  31  32
ENDBRANCH   8  30
BRANCH  20  38
ATOM     38  C   UNL     1       4.018  17.284   6.379  0.00  0.00    +0.000 C 
ATOM     39  C   UNL     1       4.486  16.305   5.291  0.00  0.00    +0.000 C 
BRANCH  39  40
ATOM     40  C   UNL     1       4.870  15.464   4.382  0.00  0.00    +0.000 C 
ATOM     41  C   UNL     1       3.950  15.144   3.243  0.00  0.00    +0.000 C 
ATOM     42  C   UNL     1       6.298  15.015   4.341  0.00  0.00    +0.000 C 
ENDBRANCH  39  40
ENDBRANCH  20  38
BRANCH  25  43
ATOM     43  C   UNL     1       0.585  20.268   4.558  0.00  0.00    +0.000 C 
BRANCH  43  44
ATOM     44  C   UNL     1       0.739  21.086   3.270  0.00  0.00    +0.000 C 
ATOM     45  C   UNL     1       0.894  21.904   1.980  0.00  0.00    +0.000 C 
BRANCH  45  46
ATOM     46  C   UNL     1       1.032  22.592   0.890  0.00  0.00    +0.000 C 
ATOM     47  C   UNL     1       0.579  22.010  -0.414  0.00  0.00    +0.000 C 
ATOM     48  C   UNL     1       1.798  23.878   0.908  0.00  0.00    +0.000 C 
ENDBRANCH  45  46
ENDBRANCH  43  44
ENDBRANCH  25  43
TORSDOF 10
ENDMDL
MODEL 5
REMARK VINA RESULT:      -6.4     27.511     30.041
REMARK  Name = 9852185_GambogicAcid.pdbqt.pdb
REMARK  10 active torsions:
REMARK  status: ('A' for Active; 'I' for Inactive)
REMARK    1  A    between atoms: C_8  and  C_30
REMARK    2  A    between atoms: C_20  and  C_38
REMARK    3  A    between atoms: C_21  and  O_28
REMARK    4  A    between atoms: C_25  and  C_43
REMARK    5  A    between atoms: C_31  and  C_32
REMARK    6  A    between atoms: C_32  and  C_35
REMARK    7  A    between atoms: C_35  and  O_36
REMARK    8  A    between atoms: C_39  and  C_40
REMARK    9  A    between atoms: C_43  and  C_44
REMARK   10  A    between atoms: C_45  and  C_46
REMARK                            x       y       z     vdW  Elec       q    Type
REMARK                         _______ _______ _______ _____ _____    ______ ____
ROOT
ATOM      1  O   UNL     1     -18.007  32.308  27.516  0.00  0.00    +0.000 OA
ATOM      2  O   UNL     1     -17.609  31.113  24.926  0.00  0.00    +0.000 OA
ATOM      3  O   UNL     1     -17.472  35.432  27.341  0.00  0.00    +0.000 OA
ATOM      4  O   UNL     1     -15.241  33.054  22.173  0.00  0.00    +0.000 OA
ATOM      5  O   UNL     1     -17.880  27.216  22.220  0.00  0.00    +0.000 OA
ATOM      6  C   UNL     1     -16.920  32.268  25.385  0.00  0.00    +0.000 C 
ATOM      7  C   UNL     1     -15.887  31.946  26.523  0.00  0.00    +0.000 C 
ATOM      8  C   UNL     1     -17.822  33.132  26.354  0.00  0.00    +0.000 C 
ATOM      9  C   UNL     1     -16.800  31.545  27.686  0.00  0.00    +0.000 C 
ATOM     10  C   UNL     1     -15.056  33.139  26.693  0.00  0.00    +0.000 C 
ATOM     11  C   UNL     1     -15.558  34.415  26.216  0.00  0.00    +0.000 C 
ATOM     12  C   UNL     1     -16.327  33.135  24.260  0.00  0.00    +0.000 C 
ATOM     13  C   UNL     1     -17.028  34.480  26.720  0.00  0.00    +0.000 C 
ATOM     14  C   UNL     1     -15.666  34.287  24.786  0.00  0.00    +0.000 C 
ATOM     15  C   UNL     1     -16.193  31.907  29.049  0.00  0.00    +0.000 C 
ATOM     16  C   UNL     1     -17.116  30.042  27.618  0.00  0.00    +0.000 C 
ATOM     17  C   UNL     1     -15.942  32.493  23.005  0.00  0.00    +0.000 C 
ATOM     18  C   UNL     1     -17.217  30.505  23.764  0.00  0.00    +0.000 A 
ATOM     19  C   UNL     1     -16.411  31.118  22.794  0.00  0.00    +0.000 A 
ATOM     20  C   UNL     1     -17.709  29.199  23.549  0.00  0.00    +0.000 A 
ATOM     21  C   UNL     1     -16.065  30.431  21.618  0.00  0.00    +0.000 A 
ATOM     22  C   UNL     1     -17.375  28.509  22.380  0.00  0.00    +0.000 A 
ATOM     23  C   UNL     1     -16.544  29.139  21.420  0.00  0.00    +0.000 A 
ATOM     24  C   UNL     1     -16.282  28.341  20.279  0.00  0.00    +0.000 C 
ATOM     25  C   UNL     1     -17.624  26.459  20.971  0.00  0.00    +0.000 C 
ATOM     26  C   UNL     1     -16.739  27.252  20.117  0.00  0.00    +0.000 C 
ATOM     27  C   UNL     1     -19.003  26.211  20.310  0.00  0.00    +0.000 C 
ENDROOT
BRANCH  21  28
ATOM     28  O   UNL     1     -15.272  30.980  20.646  0.00  0.00    +0.000 OA
ATOM     29  H   UNL     1     -15.536  31.914  20.487  0.00  0.00    +0.000 HD
ENDBRANCH  21  28
BRANCH   8  30
ATOM     30  C   UNL     1     -19.132  33.449  25.768  0.00  0.00    +0.000 C 
ATOM     31  C   UNL     1     -20.525  33.755  25.196  0.00  0.00    +0.000 C 
BRANCH  31  32
ATOM     32  C   UNL     1     -21.726  33.968  24.738  0.00  0.00    +0.000 C 
ATOM     33  C   UNL     1     -22.794  34.134  25.804  0.00  0.00    +0.000 C 
BRANCH  32  35
ATOM     34  O   UNL     1     -22.441  35.009  22.680  0.00  0.00    +0.000 OA
ATOM     35  C   UNL     1     -21.968  34.051  23.273  0.00  0.00    +0.000 C 
BRANCH  35  36
ATOM     36  O   UNL     1     -21.613  32.942  22.588  0.00  0.00    +0.000 OA
ATOM     37  H   UNL     1     -22.399  32.358  22.621  0.00  0.00    +0.000 HD
ENDBRANCH  35  36
ENDBRANCH  32  35
ENDBRANCH  31  32
ENDBRANCH   8  30
BRANCH  20  38
ATOM     38  C   UNL     1     -18.550  28.580  24.533  0.00  0.00    +0.000 C 
ATOM     39  C   UNL     1     -19.435  27.935  25.609  0.00  0.00    +0.000 C 
BRANCH  39  40
ATOM     40  C   UNL     1     -20.177  27.404  26.531  0.00  0.00    +0.000 C 
ATOM     41  C   UNL     1     -21.602  27.058  26.219  0.00  0.00    +0.000 C 
ATOM     42  C   UNL     1     -19.549  26.919  27.802  0.00  0.00    +0.000 C 
ENDBRANCH  39  40
ENDBRANCH  20  38
BRANCH  25  43
ATOM     43  C   UNL     1     -17.001  25.181  21.363  0.00  0.00    +0.000 C 
BRANCH  43  44
ATOM     44  C   UNL     1     -16.345  23.856  21.773  0.00  0.00    +0.000 C 
ATOM     45  C   UNL     1     -15.687  22.530  22.183  0.00  0.00    +0.000 C 
BRANCH  45  46
ATOM     46  C   UNL     1     -15.129  21.411  22.523  0.00  0.00    +0.000 C 
ATOM     47  C   UNL     1     -14.867  21.124  23.969  0.00  0.00    +0.000 C 
ATOM     48  C   UNL     1     -14.588  20.494  21.470  0.00  0.00    +0.000 C 
ENDBRANCH  45  46
ENDBRANCH  43  44
ENDBRANCH  25  43
TORSDOF 10
ENDMDL
MODEL 6
REMARK VINA RESULT:      -6.2     18.433     23.490
REMARK  Name = 9852185_GambogicAcid.pdbqt.pdb
REMARK  10 active torsions:
REMARK  status: ('A' for Active; 'I' for Inactive)
REMARK    1  A    between atoms: C_8  and  C_30
REMARK    2  A    between atoms: C_20  and  C_38
REMARK    3  A    between atoms: C_21  and  O_28
REMARK    4  A    between atoms: C_25  and  C_43
REMARK    5  A    between atoms: C_31  and  C_32
REMARK    6  A    between atoms: C_32  and  C_35
REMARK    7  A    between atoms: C_35  and  O_36
REMARK    8  A    between atoms: C_39  and  C_40
REMARK    9  A    between atoms: C_43  and  C_44
REMARK   10  A    between atoms: C_45  and  C_46
REMARK                            x       y       z     vdW  Elec       q    Type
REMARK                         _______ _______ _______ _____ _____    ______ ____
ROOT
ATOM      1  O   UNL     1      -8.067  42.401  16.537  0.00  0.00    +0.000 OA
ATOM      2  O   UNL     1      -8.334  44.053  18.882  0.00  0.00    +0.000 OA
ATOM      3  O   UNL     1     -10.349  43.131  14.455  0.00  0.00    +0.000 OA
ATOM      4  O   UNL     1     -11.993  45.738  19.732  0.00  0.00    +0.000 OA
ATOM      5  O   UNL     1      -6.536  45.395  23.071  0.00  0.00    +0.000 OA
ATOM      6  C   UNL     1      -9.423  43.650  18.063  0.00  0.00    +0.000 C 
ATOM      7  C   UNL     1      -9.741  42.117  18.189  0.00  0.00    +0.000 C 
ATOM      8  C   UNL     1      -8.986  43.504  16.550  0.00  0.00    +0.000 C 
ATOM      9  C   UNL     1      -8.507  41.475  17.545  0.00  0.00    +0.000 C 
ATOM     10  C   UNL     1     -11.035  41.896  17.541  0.00  0.00    +0.000 C 
ATOM     11  C   UNL     1     -11.516  42.879  16.585  0.00  0.00    +0.000 C 
ATOM     12  C   UNL     1     -10.672  44.538  18.196  0.00  0.00    +0.000 C 
ATOM     13  C   UNL     1     -10.293  43.180  15.674  0.00  0.00    +0.000 C 
ATOM     14  C   UNL     1     -11.721  44.091  17.335  0.00  0.00    +0.000 C 
ATOM     15  C   UNL     1      -8.840  40.143  16.859  0.00  0.00    +0.000 C 
ATOM     16  C   UNL     1      -7.403  41.280  18.597  0.00  0.00    +0.000 C 
ATOM     17  C   UNL     1     -10.914  45.229  19.461  0.00  0.00    +0.000 C 
ATOM     18  C   UNL     1      -8.576  44.672  20.078  0.00  0.00    +0.000 A 
ATOM     19  C   UNL     1      -9.802  45.261  20.420  0.00  0.00    +0.000 A 
ATOM     20  C   UNL     1      -7.488  44.736  20.976  0.00  0.00    +0.000 A 
ATOM     21  C   UNL     1      -9.966  45.892  21.664  0.00  0.00    +0.000 A 
ATOM     22  C   UNL     1      -7.640  45.367  22.215  0.00  0.00    +0.000 A 
ATOM     23  C   UNL     1      -8.893  45.940  22.549  0.00  0.00    +0.000 A 
ATOM     24  C   UNL     1      -8.918  46.553  23.826  0.00  0.00    +0.000 C 
ATOM     25  C   UNL     1      -6.608  46.112  24.366  0.00  0.00    +0.000 C 
ATOM     26  C   UNL     1      -7.971  46.614  24.547  0.00  0.00    +0.000 C 
ATOM     27  C   UNL     1      -5.569  47.259  24.299  0.00  0.00    +0.000 C 
ENDROOT
BRANCH  21  28
ATOM     28  O   UNL     1     -11.146  46.471  22.051  0.00  0.00    +0.000 OA
ATOM     29  H   UNL     1     -11.133  46.639  23.021  0.00  0.00    +0.000 HD
ENDBRANCH  21  28
BRANCH   8  30
ATOM     30  C   UNL     1      -8.312  44.708  16.044  0.00  0.00    +0.000 C 
ATOM     31  C   UNL     1      -7.561  45.950  15.539  0.00  0.00    +0.000 C 
BRANCH  31  32
ATOM     32  C   UNL     1      -6.889  46.998  15.155  0.00  0.00    +0.000 C 
ATOM     33  C   UNL     1      -7.271  47.534  13.788  0.00  0.00    +0.000 C 
BRANCH  32  35
ATOM     34  O   UNL     1      -4.647  47.392  15.960  0.00  0.00    +0.000 OA
ATOM     35  C   UNL     1      -5.850  47.590  16.040  0.00  0.00    +0.000 C 
BRANCH  35  36
ATOM     36  O   UNL     1      -6.337  48.409  16.997  0.00  0.00    +0.000 OA
ATOM     37  H   UNL     1      -5.569  48.943  17.292  0.00  0.00    +0.000 HD
ENDBRANCH  35  36
ENDBRANCH  32  35
ENDBRANCH  31  32
ENDBRANCH   8  30
BRANCH  20  38
ATOM     38  C   UNL     1      -6.229  44.151  20.618  0.00  0.00    +0.000 C 
ATOM     39  C   UNL     1      -4.866  43.540  20.258  0.00  0.00    +0.000 C 
BRANCH  39  40
ATOM     40  C   UNL     1      -3.709  43.031  19.972  0.00  0.00    +0.000 C 
ATOM     41  C   UNL     1      -2.471  43.847  20.198  0.00  0.00    +0.000 C 
ATOM     42  C   UNL     1      -3.596  41.571  19.658  0.00  0.00    +0.000 C 
ENDBRANCH  39  40
ENDBRANCH  20  38
BRANCH  25  43
ATOM     43  C   UNL     1      -6.242  45.142  25.416  0.00  0.00    +0.000 C 
BRANCH  43  44
ATOM     44  C   UNL     1      -5.862  44.139  26.512  0.00  0.00    +0.000 C 
ATOM     45  C   UNL     1      -5.480  43.136  27.611  0.00  0.00    +0.000 C 
BRANCH  45  46
ATOM     46  C   UNL     1      -5.153  42.287  28.533  0.00  0.00    +0.000 C 
ATOM     47  C   UNL     1      -5.868  42.311  29.849  0.00  0.00    +0.000 C 
ATOM     48  C   UNL     1      -3.954  41.409  28.352  0.00  0.00    +0.000 C 
ENDBRANCH  45  46
ENDBRANCH  43  44
ENDBRANCH  25  43
TORSDOF 10
ENDMDL
MODEL 7
REMARK VINA RESULT:      -6.1      3.371      8.465
REMARK  Name = 9852185_GambogicAcid.pdbqt.pdb
REMARK  10 active torsions:
REMARK  status: ('A' for Active; 'I' for Inactive)
REMARK    1  A    between atoms: C_8  and  C_30
REMARK    2  A    between atoms: C_20  and  C_38
REMARK    3  A    between atoms: C_21  and  O_28
REMARK    4  A    between atoms: C_25  and  C_43
REMARK    5  A    between atoms: C_31  and  C_32
REMARK    6  A    between atoms: C_32  and  C_35
REMARK    7  A    between atoms: C_35  and  O_36
REMARK    8  A    between atoms: C_39  and  C_40
REMARK    9  A    between atoms: C_43  and  C_44
REMARK   10  A    between atoms: C_45  and  C_46
REMARK                            x       y       z     vdW  Elec       q    Type
REMARK                         _______ _______ _______ _____ _____    ______ ____
ROOT
ATOM      1  O   UNL     1      12.711  31.503  22.041  0.00  0.00    +0.000 OA
ATOM      2  O   UNL     1      11.480  33.404  20.261  0.00  0.00    +0.000 OA
ATOM      3  O   UNL     1      10.468  29.753  23.447  0.00  0.00    +0.000 OA
ATOM      4  O   UNL     1       7.555  34.478  20.890  0.00  0.00    +0.000 OA
ATOM      5  O   UNL     1      12.064  36.768  16.956  0.00  0.00    +0.000 OA
ATOM      6  C   UNL     1      10.871  32.912  21.447  0.00  0.00    +0.000 C 
ATOM      7  C   UNL     1      11.561  33.449  22.752  0.00  0.00    +0.000 C 
ATOM      8  C   UNL     1      11.308  31.422  21.746  0.00  0.00    +0.000 C 
ATOM      9  C   UNL     1      12.930  32.763  22.700  0.00  0.00    +0.000 C 
ATOM     10  C   UNL     1      10.677  33.114  23.869  0.00  0.00    +0.000 C 
ATOM     11  C   UNL     1       9.696  32.057  23.693  0.00  0.00    +0.000 C 
ATOM     12  C   UNL     1       9.339  33.055  21.472  0.00  0.00    +0.000 C 
ATOM     13  C   UNL     1      10.479  30.895  23.017  0.00  0.00    +0.000 C 
ATOM     14  C   UNL     1       8.788  32.526  22.679  0.00  0.00    +0.000 C 
ATOM     15  C   UNL     1      13.487  32.479  24.102  0.00  0.00    +0.000 C 
ATOM     16  C   UNL     1      13.919  33.615  21.888  0.00  0.00    +0.000 C 
ATOM     17  C   UNL     1       8.721  34.145  20.720  0.00  0.00    +0.000 C 
ATOM     18  C   UNL     1      10.906  34.445  19.584  0.00  0.00    +0.000 A 
ATOM     19  C   UNL     1       9.576  34.854  19.759  0.00  0.00    +0.000 A 
ATOM     20  C   UNL     1      11.723  35.092  18.631  0.00  0.00    +0.000 A 
ATOM     21  C   UNL     1       9.055  35.924  19.013  0.00  0.00    +0.000 A 
ATOM     22  C   UNL     1      11.212  36.155  17.879  0.00  0.00    +0.000 A 
ATOM     23  C   UNL     1       9.871  36.565  18.085  0.00  0.00    +0.000 A 
ATOM     24  C   UNL     1       9.471  37.646  17.260  0.00  0.00    +0.000 C 
ATOM     25  C   UNL     1      11.564  37.851  16.075  0.00  0.00    +0.000 C 
ATOM     26  C   UNL     1      10.179  38.150  16.445  0.00  0.00    +0.000 C 
ATOM     27  C   UNL     1      11.679  37.331  14.621  0.00  0.00    +0.000 C 
ENDROOT
BRANCH  21  28
ATOM     28  O   UNL     1       7.768  36.370  19.155  0.00  0.00    +0.000 OA
ATOM     29  H   UNL     1       7.764  37.231  19.631  0.00  0.00    +0.000 HD
ENDBRANCH  21  28
BRANCH   8  30
ATOM     30  C   UNL     1      11.102  30.535  20.593  0.00  0.00    +0.000 C 
ATOM     31  C   UNL     1      10.898  29.564  19.420  0.00  0.00    +0.000 C 
BRANCH  31  32
ATOM     32  C   UNL     1      10.758  28.704  18.451  0.00  0.00    +0.000 C 
ATOM     33  C   UNL     1       9.858  29.161  17.318  0.00  0.00    +0.000 C 
BRANCH  32  35
ATOM     34  O   UNL     1      12.442  27.138  19.188  0.00  0.00    +0.000 OA
ATOM     35  C   UNL     1      11.465  27.396  18.501  0.00  0.00    +0.000 C 
BRANCH  35  36
ATOM     36  O   UNL     1      10.937  26.448  17.697  0.00  0.00    +0.000 OA
ATOM     37  H   UNL     1       9.998  26.704  17.581  0.00  0.00    +0.000 HD
ENDBRANCH  35  36
ENDBRANCH  32  35
ENDBRANCH  31  32
ENDBRANCH   8  30
BRANCH  20  38
ATOM     38  C   UNL     1      13.077  34.661  18.438  0.00  0.00    +0.000 C 
ATOM     39  C   UNL     1      14.522  34.176  18.252  0.00  0.00    +0.000 C 
BRANCH  39  40
ATOM     40  C   UNL     1      15.738  33.749  18.105  0.00  0.00    +0.000 C 
ATOM     41  C   UNL     1      16.004  32.274  18.105  0.00  0.00    +0.000 C 
ATOM     42  C   UNL     1      16.817  34.705  17.696  0.00  0.00    +0.000 C 
ENDBRANCH  39  40
ENDBRANCH  20  38
BRANCH  25  43
ATOM     43  C   UNL     1      12.446  39.015  16.281  0.00  0.00    +0.000 C 
BRANCH  43  44
ATOM     44  C   UNL     1      13.361  40.226  16.503  0.00  0.00    +0.000 C 
ATOM     45  C   UNL     1      14.277  41.437  16.728  0.00  0.00    +0.000 C 
BRANCH  45  46
ATOM     46  C   UNL     1      15.045  42.464  16.920  0.00  0.00    +0.000 C 
ATOM     47  C   UNL     1      14.450  43.753  17.399  0.00  0.00    +0.000 C 
ATOM     48  C   UNL     1      16.480  42.416  16.498  0.00  0.00    +0.000 C 
ENDBRANCH  45  46
ENDBRANCH  43  44
ENDBRANCH  25  43
TORSDOF 10
ENDMDL
MODEL 8
REMARK VINA RESULT:      -6.1     33.593     37.529
REMARK  Name = 9852185_GambogicAcid.pdbqt.pdb
REMARK  10 active torsions:
REMARK  status: ('A' for Active; 'I' for Inactive)
REMARK    1  A    between atoms: C_8  and  C_30
REMARK    2  A    between atoms: C_20  and  C_38
REMARK    3  A    between atoms: C_21  and  O_28
REMARK    4  A    between atoms: C_25  and  C_43
REMARK    5  A    between atoms: C_31  and  C_32
REMARK    6  A    between atoms: C_32  and  C_35
REMARK    7  A    between atoms: C_35  and  O_36
REMARK    8  A    between atoms: C_39  and  C_40
REMARK    9  A    between atoms: C_43  and  C_44
REMARK   10  A    between atoms: C_45  and  C_46
REMARK                            x       y       z     vdW  Elec       q    Type
REMARK                         _______ _______ _______ _____ _____    ______ ____
ROOT
ATOM      1  O   UNL     1       8.541  59.312  -8.524  0.00  0.00    +0.000 OA
ATOM      2  O   UNL     1       5.774  58.538  -8.329  0.00  0.00    +0.000 OA
ATOM      3  O   UNL     1      10.307  56.777  -9.252  0.00  0.00    +0.000 OA
ATOM      4  O   UNL     1       4.851  54.596  -7.574  0.00  0.00    +0.000 OA
ATOM      5  O   UNL     1       1.257  59.898  -7.751  0.00  0.00    +0.000 OA
ATOM      6  C   UNL     1       6.865  57.676  -8.034  0.00  0.00    +0.000 C 
ATOM      7  C   UNL     1       7.621  58.083  -6.719  0.00  0.00    +0.000 C 
ATOM      8  C   UNL     1       8.120  58.003  -8.938  0.00  0.00    +0.000 C 
ATOM      9  C   UNL     1       8.268  59.415  -7.116  0.00  0.00    +0.000 C 
ATOM     10  C   UNL     1       8.511  56.973  -6.379  0.00  0.00    +0.000 C 
ATOM     11  C   UNL     1       8.879  56.027  -7.418  0.00  0.00    +0.000 C 
ATOM     12  C   UNL     1       6.517  56.179  -8.090  0.00  0.00    +0.000 C 
ATOM     13  C   UNL     1       9.258  56.908  -8.643  0.00  0.00    +0.000 C 
ATOM     14  C   UNL     1       7.658  55.369  -7.803  0.00  0.00    +0.000 C 
ATOM     15  C   UNL     1       9.598  59.652  -6.386  0.00  0.00    +0.000 C 
ATOM     16  C   UNL     1       7.294  60.575  -6.854  0.00  0.00    +0.000 C 
ATOM     17  C   UNL     1       5.146  55.763  -7.799  0.00  0.00    +0.000 C 
ATOM     18  C   UNL     1       4.498  58.147  -8.022  0.00  0.00    +0.000 A 
ATOM     19  C   UNL     1       4.129  56.821  -7.756  0.00  0.00    +0.000 A 
ATOM     20  C   UNL     1       3.519  59.165  -8.027  0.00  0.00    +0.000 A 
ATOM     21  C   UNL     1       2.793  56.499  -7.465  0.00  0.00    +0.000 A 
ATOM     22  C   UNL     1       2.185  58.853  -7.744  0.00  0.00    +0.000 A 
ATOM     23  C   UNL     1       1.836  57.509  -7.459  0.00  0.00    +0.000 A 
ATOM     24  C   UNL     1       0.456  57.322  -7.194  0.00  0.00    +0.000 C 
ATOM     25  C   UNL     1      -0.183  59.624  -7.533  0.00  0.00    +0.000 C 
ATOM     26  C   UNL     1      -0.348  58.201  -7.235  0.00  0.00    +0.000 C 
ATOM     27  C   UNL     1      -0.917  60.036  -8.833  0.00  0.00    +0.000 C 
ENDROOT
BRANCH  21  28
ATOM     28  O   UNL     1       2.382  55.222  -7.186  0.00  0.00    +0.000 OA
ATOM     29  H   UNL     1       1.420  55.133  -7.372  0.00  0.00    +0.000 HD
ENDBRANCH  21  28
BRANCH   8  30
ATOM     30  C   UNL     1       7.788  58.028 -10.370  0.00  0.00    +0.000 C 
ATOM     31  C   UNL     1       7.393  58.074 -11.854  0.00  0.00    +0.000 C 
BRANCH  31  32
ATOM     32  C   UNL     1       7.003  58.110 -13.097  0.00  0.00    +0.000 C 
ATOM     33  C   UNL     1       7.989  58.751 -14.056  0.00  0.00    +0.000 C 
BRANCH  32  35
ATOM     34  O   UNL     1       4.838  58.096 -14.165  0.00  0.00    +0.000 OA
ATOM     35  C   UNL     1       5.687  57.536 -13.488  0.00  0.00    +0.000 C 
BRANCH  35  36
ATOM     36  O   UNL     1       5.468  56.286 -13.028  0.00  0.00    +0.000 OA
ATOM     37  H   UNL     1       6.297  55.796 -13.212  0.00  0.00    +0.000 HD
ENDBRANCH  35  36
ENDBRANCH  32  35
ENDBRANCH  31  32
ENDBRANCH   8  30
BRANCH  20  38
ATOM     38  C   UNL     1       3.894  60.518  -8.319  0.00  0.00    +0.000 C 
ATOM     39  C   UNL     1       4.321  61.964  -8.613  0.00  0.00    +0.000 C 
BRANCH  39  40
ATOM     40  C   UNL     1       4.700  63.180  -8.853  0.00  0.00    +0.000 C 
ATOM     41  C   UNL     1       4.289  63.839 -10.135  0.00  0.00    +0.000 C 
ATOM     42  C   UNL     1       5.327  63.993  -7.762  0.00  0.00    +0.000 C 
ENDBRANCH  39  40
ENDBRANCH  20  38
BRANCH  25  43
ATOM     43  C   UNL     1      -0.615  60.470  -6.404  0.00  0.00    +0.000 C 
BRANCH  43  44
ATOM     44  C   UNL     1      -1.059  61.355  -5.233  0.00  0.00    +0.000 C 
ATOM     45  C   UNL     1      -1.504  62.243  -4.062  0.00  0.00    +0.000 C 
BRANCH  45  46
ATOM     46  C   UNL     1      -1.874  62.997  -3.074  0.00  0.00    +0.000 C 
ATOM     47  C   UNL     1      -3.328  63.107  -2.731  0.00  0.00    +0.000 C 
ATOM     48  C   UNL     1      -0.878  63.888  -2.398  0.00  0.00    +0.000 C 
ENDBRANCH  45  46
ENDBRANCH  43  44
ENDBRANCH  25  43
TORSDOF 10
ENDMDL
MODEL 9
REMARK VINA RESULT:      -6.1     17.233     21.013
REMARK  Name = 9852185_GambogicAcid.pdbqt.pdb
REMARK  10 active torsions:
REMARK  status: ('A' for Active; 'I' for Inactive)
REMARK    1  A    between atoms: C_8  and  C_30
REMARK    2  A    between atoms: C_20  and  C_38
REMARK    3  A    between atoms: C_21  and  O_28
REMARK    4  A    between atoms: C_25  and  C_43
REMARK    5  A    between atoms: C_31  and  C_32
REMARK    6  A    between atoms: C_32  and  C_35
REMARK    7  A    between atoms: C_35  and  O_36
REMARK    8  A    between atoms: C_39  and  C_40
REMARK    9  A    between atoms: C_43  and  C_44
REMARK   10  A    between atoms: C_45  and  C_46
REMARK                            x       y       z     vdW  Elec       q    Type
REMARK                         _______ _______ _______ _____ _____    ______ ____
ROOT
ATOM      1  O   UNL     1       5.387  17.002   8.556  0.00  0.00    +0.000 OA
ATOM      2  O   UNL     1       3.154  18.217   7.202  0.00  0.00    +0.000 OA
ATOM      3  O   UNL     1       4.692  16.623  11.629  0.00  0.00    +0.000 OA
ATOM      4  O   UNL     1       0.432  20.392   9.396  0.00  0.00    +0.000 OA
ATOM      5  O   UNL     1       1.234  19.618   3.087  0.00  0.00    +0.000 OA
ATOM      6  C   UNL     1       3.473  18.437   8.569  0.00  0.00    +0.000 C 
ATOM      7  C   UNL     1       4.783  19.284   8.758  0.00  0.00    +0.000 C 
ATOM      8  C   UNL     1       4.126  17.155   9.225  0.00  0.00    +0.000 C 
ATOM      9  C   UNL     1       5.865  18.324   8.251  0.00  0.00    +0.000 C 
ATOM     10  C   UNL     1       4.834  19.681  10.165  0.00  0.00    +0.000 C 
ATOM     11  C   UNL     1       4.056  18.928  11.134  0.00  0.00    +0.000 C 
ATOM     12  C   UNL     1       2.296  18.953   9.415  0.00  0.00    +0.000 C 
ATOM     13  C   UNL     1       4.332  17.436  10.793  0.00  0.00    +0.000 C 
ATOM     14  C   UNL     1       2.676  19.136  10.779  0.00  0.00    +0.000 C 
ATOM     15  C   UNL     1       7.203  18.528   8.975  0.00  0.00    +0.000 C 
ATOM     16  C   UNL     1       6.043  18.481   6.733  0.00  0.00    +0.000 C 
ATOM     17  C   UNL     1       1.251  19.741   8.762  0.00  0.00    +0.000 C 
ATOM     18  C   UNL     1       2.195  18.983   6.596  0.00  0.00    +0.000 A 
ATOM     19  C   UNL     1       1.245  19.743   7.293  0.00  0.00    +0.000 A 
ATOM     20  C   UNL     1       2.169  18.944   5.185  0.00  0.00    +0.000 A 
ATOM     21  C   UNL     1       0.282  20.492   6.597  0.00  0.00    +0.000 A 
ATOM     22  C   UNL     1       1.211  19.682   4.482  0.00  0.00    +0.000 A 
ATOM     23  C   UNL     1       0.271  20.459   5.206  0.00  0.00    +0.000 A 
ATOM     24  C   UNL     1      -0.649  21.154   4.382  0.00  0.00    +0.000 C 
ATOM     25  C   UNL     1       0.201  20.315   2.285  0.00  0.00    +0.000 C 
ATOM     26  C   UNL     1      -0.660  21.076   3.193  0.00  0.00    +0.000 C 
ATOM     27  C   UNL     1      -0.583  19.221   1.519  0.00  0.00    +0.000 C 
ENDROOT
BRANCH  21  28
ATOM     28  O   UNL     1      -0.659  21.260   7.230  0.00  0.00    +0.000 OA
ATOM     29  H   UNL     1      -1.366  21.513   6.594  0.00  0.00    +0.000 HD
ENDBRANCH  21  28
BRANCH   8  30
ATOM     30  C   UNL     1       3.315  15.946   9.020  0.00  0.00    +0.000 C 
ATOM     31  C   UNL     1       2.428  14.714   8.785  0.00  0.00    +0.000 C 
BRANCH  31  32
ATOM     32  C   UNL     1       1.630  13.703   8.588  0.00  0.00    +0.000 C 
ATOM     33  C   UNL     1       2.277  12.340   8.751  0.00  0.00    +0.000 C 
BRANCH  32  35
ATOM     34  O   UNL     1      -0.217  14.689   7.386  0.00  0.00    +0.000 OA
ATOM     35  C   UNL     1       0.200  13.930   8.249  0.00  0.00    +0.000 C 
BRANCH  35  36
ATOM     36  O   UNL     1      -0.668  13.207   8.988  0.00  0.00    +0.000 OA
ATOM     37  H   UNL     1      -0.227  12.343   9.129  0.00  0.00    +0.000 HD
ENDBRANCH  35  36
ENDBRANCH  32  35
ENDBRANCH  31  32
ENDBRANCH   8  30
BRANCH  20  38
ATOM     38  C   UNL     1       3.129  18.151   4.473  0.00  0.00    +0.000 C 
ATOM     39  C   UNL     1       4.164  17.287   3.737  0.00  0.00    +0.000 C 
BRANCH  39  40
ATOM     40  C   UNL     1       5.040  16.546   3.133  0.00  0.00    +0.000 C 
ATOM     41  C   UNL     1       6.498  16.770   3.396  0.00  0.00    +0.000 C 
ATOM     42  C   UNL     1       4.592  15.330   2.382  0.00  0.00    +0.000 C 
ENDBRANCH  39  40
ENDBRANCH  20  38
BRANCH  25  43
ATOM     43  C   UNL     1       0.912  21.199   1.342  0.00  0.00    +0.000 C 
BRANCH  43  44
ATOM     44  C   UNL     1       1.659  22.117   0.366  0.00  0.00    +0.000 C 
ATOM     45  C   UNL     1       2.405  23.035  -0.612  0.00  0.00    +0.000 C 
BRANCH  45  46
ATOM     46  C   UNL     1       3.036  23.805  -1.443  0.00  0.00    +0.000 C 
ATOM     47  C   UNL     1       4.282  23.308  -2.111  0.00  0.00    +0.000 C 
ATOM     48  C   UNL     1       2.627  25.236  -1.598  0.00  0.00    +0.000 C 
ENDBRANCH  45  46
ENDBRANCH  43  44
ENDBRANCH  25  43
TORSDOF 10
ENDMDL
