MODEL 1
REMARK VINA RESULT:      -9.4      0.000      0.000
REMARK  Name = AFLATOXIN.pdbqt.pdb
REMARK  1 active torsions:
REMARK  status: ('A' for Active; 'I' for Inactive)
REMARK    1  A    between atoms: C_15  and  O_23
REMARK                            x       y       z     vdW  Elec       q    Type
REMARK                         _______ _______ _______ _____ _____    ______ ____
ROOT
ATOM      1  O   UNL     1      -0.269  30.858  15.716  0.00  0.00    +0.000 OA
ATOM      2  O   UNL     1      -1.145  33.106  15.182  0.00  0.00    +0.000 OA
ATOM      3  O   UNL     1       4.053  32.693  16.070  0.00  0.00    +0.000 OA
ATOM      4  O   UNL     1       8.336  30.222  15.418  0.00  0.00    +0.000 OA
ATOM      5  O   UNL     1       6.038  33.691  16.446  0.00  0.00    +0.000 OA
ATOM      6  O   UNL     1       8.308  32.426  15.866  0.00  0.00    +0.000 OA
ATOM      7  C   UNL     1       0.996  32.788  16.083  0.00  0.00    +0.000 C 
ATOM      8  C   UNL     1       1.906  31.674  15.908  0.00  0.00    +0.000 A 
ATOM      9  C   UNL     1      -0.373  32.229  15.968  0.00  0.00    +0.000 C 
ATOM     10  C   UNL     1       1.084  30.556  15.728  0.00  0.00    +0.000 A 
ATOM     11  C   UNL     1       3.281  31.546  15.870  0.00  0.00    +0.000 A 
ATOM     12  C   UNL     1       3.873  30.302  15.659  0.00  0.00    +0.000 A 
ATOM     13  C   UNL     1       0.969  34.029  15.395  0.00  0.00    +0.000 C 
ATOM     14  C   UNL     1       5.344  30.278  15.584  0.00  0.00    +0.000 A 
ATOM     15  C   UNL     1       3.013  29.175  15.521  0.00  0.00    +0.000 A 
ATOM     16  C   UNL     1       1.610  29.301  15.524  0.00  0.00    +0.000 A 
ATOM     17  C   UNL     1       6.055  29.099  15.264  0.00  0.00    +0.000 A 
ATOM     18  C   UNL     1       6.112  31.386  15.796  0.00  0.00    +0.000 A 
ATOM     19  C   UNL     1      -0.172  34.006  15.039  0.00  0.00    +0.000 C 
ATOM     20  C   UNL     1       7.527  29.208  15.223  0.00  0.00    +0.000 A 
ATOM     21  C   UNL     1       5.441  32.671  16.131  0.00  0.00    +0.000 A 
ATOM     22  C   UNL     1       7.658  31.400  15.706  0.00  0.00    +0.000 A 
ENDROOT
BRANCH  15  23
ATOM     23  O   UNL     1       3.527  27.917  15.290  0.00  0.00    +0.000 OA
ATOM     24  C   UNL     1       3.093  27.422  14.048  0.00  0.00    +0.000 C 
ENDBRANCH  15  23
TORSDOF 1
ENDMDL
MODEL 2
REMARK VINA RESULT:      -9.0      1.381      5.881
REMARK  Name = AFLATOXIN.pdbqt.pdb
REMARK  1 active torsions:
REMARK  status: ('A' for Active; 'I' for Inactive)
REMARK    1  A    between atoms: C_15  and  O_23
REMARK                            x       y       z     vdW  Elec       q    Type
REMARK                         _______ _______ _______ _____ _____    ______ ____
ROOT
ATOM      1  O   UNL     1       8.065  30.465  16.073  0.00  0.00    +0.000 OA
ATOM      2  O   UNL     1       9.266  32.364  17.103  0.00  0.00    +0.000 OA
ATOM      3  O   UNL     1       4.331  33.259  15.423  0.00  0.00    +0.000 OA
ATOM      4  O   UNL     1      -0.407  31.755  15.026  0.00  0.00    +0.000 OA
ATOM      5  O   UNL     1       2.685  34.721  14.943  0.00  0.00    +0.000 OA
ATOM      6  O   UNL     1       0.141  33.935  14.968  0.00  0.00    +0.000 OA
ATOM      7  C   UNL     1       7.298  32.663  15.864  0.00  0.00    +0.000 C 
ATOM      8  C   UNL     1       6.167  31.769  15.715  0.00  0.00    +0.000 A 
ATOM      9  C   UNL     1       8.485  31.799  16.077  0.00  0.00    +0.000 C 
ATOM     10  C   UNL     1       6.703  30.481  15.818  0.00  0.00    +0.000 A 
ATOM     11  C   UNL     1       4.809  31.952  15.533  0.00  0.00    +0.000 A 
ATOM     12  C   UNL     1       3.952  30.856  15.443  0.00  0.00    +0.000 A 
ATOM     13  C   UNL     1       7.452  33.761  16.750  0.00  0.00    +0.000 C 
ATOM     14  C   UNL     1       2.516  31.155  15.301  0.00  0.00    +0.000 A 
ATOM     15  C   UNL     1       4.530  29.556  15.508  0.00  0.00    +0.000 A 
ATOM     16  C   UNL     1       5.908  29.362  15.727  0.00  0.00    +0.000 A 
ATOM     17  C   UNL     1       1.539  30.135  15.311  0.00  0.00    +0.000 A 
ATOM     18  C   UNL     1       2.036  32.427  15.173  0.00  0.00    +0.000 A 
ATOM     19  C   UNL     1       8.484  33.433  17.256  0.00  0.00    +0.000 C 
ATOM     20  C   UNL     1       0.135  30.567  15.159  0.00  0.00    +0.000 A 
ATOM     21  C   UNL     1       3.000  33.560  15.161  0.00  0.00    +0.000 A 
ATOM     22  C   UNL     1       0.534  32.777  15.043  0.00  0.00    +0.000 A 
ENDROOT
BRANCH  15  23
ATOM     23  O   UNL     1       3.742  28.428  15.446  0.00  0.00    +0.000 OA
ATOM     24  C   UNL     1       4.139  27.600  14.382  0.00  0.00    +0.000 C 
ENDBRANCH  15  23
TORSDOF 1
ENDMDL
MODEL 3
REMARK VINA RESULT:      -8.8      1.550      7.159
REMARK  Name = AFLATOXIN.pdbqt.pdb
REMARK  1 active torsions:
REMARK  status: ('A' for Active; 'I' for Inactive)
REMARK    1  A    between atoms: C_15  and  O_23
REMARK                            x       y       z     vdW  Elec       q    Type
REMARK                         _______ _______ _______ _____ _____    ______ ____
ROOT
ATOM      1  O   UNL     1       9.589  30.431  15.738  0.00  0.00    +0.000 OA
ATOM      2  O   UNL     1      10.134  28.246  14.720  0.00  0.00    +0.000 OA
ATOM      3  O   UNL     1       5.041  29.211  15.773  0.00  0.00    +0.000 OA
ATOM      4  O   UNL     1       1.174  32.359  15.743  0.00  0.00    +0.000 OA
ATOM      5  O   UNL     1       2.927  28.455  15.965  0.00  0.00    +0.000 OA
ATOM      6  O   UNL     1       0.873  30.131  15.711  0.00  0.00    +0.000 OA
ATOM      7  C   UNL     1       8.051  28.672  15.708  0.00  0.00    +0.000 C 
ATOM      8  C   UNL     1       7.316  29.918  15.792  0.00  0.00    +0.000 A 
ATOM      9  C   UNL     1       9.489  29.037  15.689  0.00  0.00    +0.000 C 
ATOM     10  C   UNL     1       8.295  30.916  15.839  0.00  0.00    +0.000 A 
ATOM     11  C   UNL     1       5.974  30.249  15.808  0.00  0.00    +0.000 A 
ATOM     12  C   UNL     1       5.574  31.583  15.878  0.00  0.00    +0.000 A 
ATOM     13  C   UNL     1       7.905  27.616  14.771  0.00  0.00    +0.000 C 
ATOM     14  C   UNL     1       4.123  31.835  15.838  0.00  0.00    +0.000 A 
ATOM     15  C   UNL     1       6.591  32.575  15.968  0.00  0.00    +0.000 A 
ATOM     16  C   UNL     1       7.960  32.249  15.917  0.00  0.00    +0.000 A 
ATOM     17  C   UNL     1       3.597  33.146  15.790  0.00  0.00    +0.000 A 
ATOM     18  C   UNL     1       3.199  30.831  15.823  0.00  0.00    +0.000 A 
ATOM     19  C   UNL     1       9.042  27.548  14.407  0.00  0.00    +0.000 C 
ATOM     20  C   UNL     1       2.125  33.263  15.754  0.00  0.00    +0.000 A 
ATOM     21  C   UNL     1       3.670  29.420  15.864  0.00  0.00    +0.000 A 
ATOM     22  C   UNL     1       1.669  31.061  15.761  0.00  0.00    +0.000 A 
ENDROOT
BRANCH  15  23
ATOM     23  O   UNL     1       6.269  33.914  16.020  0.00  0.00    +0.000 OA
ATOM     24  C   UNL     1       7.365  34.673  16.467  0.00  0.00    +0.000 C 
ENDBRANCH  15  23
TORSDOF 1
ENDMDL
MODEL 4
REMARK VINA RESULT:      -8.7      1.493      4.011
REMARK  Name = AFLATOXIN.pdbqt.pdb
REMARK  1 active torsions:
REMARK  status: ('A' for Active; 'I' for Inactive)
REMARK    1  A    between atoms: C_15  and  O_23
REMARK                            x       y       z     vdW  Elec       q    Type
REMARK                         _______ _______ _______ _____ _____    ______ ____
ROOT
ATOM      1  O   UNL     1       2.407  33.558  15.928  0.00  0.00    +0.000 OA
ATOM      2  O   UNL     1       0.360  32.296  16.495  0.00  0.00    +0.000 OA
ATOM      3  O   UNL     1       4.607  29.484  15.070  0.00  0.00    +0.000 OA
ATOM      4  O   UNL     1       9.527  28.714  15.325  0.00  0.00    +0.000 OA
ATOM      5  O   UNL     1       5.506  27.510  14.460  0.00  0.00    +0.000 OA
ATOM      6  O   UNL     1       8.102  27.047  14.827  0.00  0.00    +0.000 OA
ATOM      7  C   UNL     1       2.165  31.299  15.380  0.00  0.00    +0.000 C 
ATOM      8  C   UNL     1       3.580  31.593  15.486  0.00  0.00    +0.000 A 
ATOM      9  C   UNL     1       1.454  32.572  15.654  0.00  0.00    +0.000 C 
ATOM     10  C   UNL     1       3.648  32.959  15.781  0.00  0.00    +0.000 A 
ATOM     11  C   UNL     1       4.733  30.840  15.380  0.00  0.00    +0.000 A 
ATOM     12  C   UNL     1       5.984  31.430  15.559  0.00  0.00    +0.000 A 
ATOM     13  C   UNL     1       1.417  30.287  16.035  0.00  0.00    +0.000 C 
ATOM     14  C   UNL     1       7.150  30.533  15.477  0.00  0.00    +0.000 A 
ATOM     15  C   UNL     1       6.025  32.830  15.815  0.00  0.00    +0.000 A 
ATOM     16  C   UNL     1       4.854  33.597  15.959  0.00  0.00    +0.000 A 
ATOM     17  C   UNL     1       8.460  30.988  15.750  0.00  0.00    +0.000 A 
ATOM     18  C   UNL     1       7.044  29.210  15.156  0.00  0.00    +0.000 A 
ATOM     19  C   UNL     1       0.566  30.979  16.511  0.00  0.00    +0.000 C 
ATOM     20  C   UNL     1       9.542  29.990  15.631  0.00  0.00    +0.000 A 
ATOM     21  C   UNL     1       5.698  28.649  14.862  0.00  0.00    +0.000 A 
ATOM     22  C   UNL     1       8.245  28.237  15.081  0.00  0.00    +0.000 A 
ENDROOT
BRANCH  15  23
ATOM     23  O   UNL     1       7.225  33.475  16.023  0.00  0.00    +0.000 OA
ATOM     24  C   UNL     1       7.266  34.051  17.304  0.00  0.00    +0.000 C 
ENDBRANCH  15  23
TORSDOF 1
ENDMDL
MODEL 5
REMARK VINA RESULT:      -7.8      1.694      3.388
REMARK  Name = AFLATOXIN.pdbqt.pdb
REMARK  1 active torsions:
REMARK  status: ('A' for Active; 'I' for Inactive)
REMARK    1  A    between atoms: C_15  and  O_23
REMARK                            x       y       z     vdW  Elec       q    Type
REMARK                         _______ _______ _______ _____ _____    ______ ____
ROOT
ATOM      1  O   UNL     1       3.236  29.232  15.488  0.00  0.00    +0.000 OA
ATOM      2  O   UNL     1       1.264  30.720  15.550  0.00  0.00    +0.000 OA
ATOM      3  O   UNL     1       5.971  32.912  16.561  0.00  0.00    +0.000 OA
ATOM      4  O   UNL     1      10.818  33.361  15.477  0.00  0.00    +0.000 OA
ATOM      5  O   UNL     1       7.168  34.672  17.301  0.00  0.00    +0.000 OA
ATOM      6  O   UNL     1       9.690  35.007  16.514  0.00  0.00    +0.000 OA
ATOM      7  C   UNL     1       3.336  31.365  16.439  0.00  0.00    +0.000 C 
ATOM      8  C   UNL     1       4.669  30.993  16.011  0.00  0.00    +0.000 A 
ATOM      9  C   UNL     1       2.457  30.217  16.103  0.00  0.00    +0.000 C 
ATOM     10  C   UNL     1       4.540  29.703  15.487  0.00  0.00    +0.000 A 
ATOM     11  C   UNL     1       5.896  31.630  16.012  0.00  0.00    +0.000 A 
ATOM     12  C   UNL     1       7.025  30.995  15.497  0.00  0.00    +0.000 A 
ATOM     13  C   UNL     1       2.593  32.531  16.120  0.00  0.00    +0.000 C 
ATOM     14  C   UNL     1       8.275  31.775  15.496  0.00  0.00    +0.000 A 
ATOM     15  C   UNL     1       6.872  29.666  15.009  0.00  0.00    +0.000 A 
ATOM     16  C   UNL     1       5.620  29.023  14.973  0.00  0.00    +0.000 A 
ATOM     17  C   UNL     1       9.459  31.285  14.900  0.00  0.00    +0.000 A 
ATOM     18  C   UNL     1       8.367  33.022  16.045  0.00  0.00    +0.000 A 
ATOM     19  C   UNL     1       1.602  32.000  15.713  0.00  0.00    +0.000 C 
ATOM     20  C   UNL     1      10.643  32.164  14.968  0.00  0.00    +0.000 A 
ATOM     21  C   UNL     1       7.163  33.615  16.686  0.00  0.00    +0.000 A 
ATOM     22  C   UNL     1       9.659  33.876  16.044  0.00  0.00    +0.000 A 
ENDROOT
BRANCH  15  23
ATOM     23  O   UNL     1       7.940  28.984  14.467  0.00  0.00    +0.000 OA
ATOM     24  C   UNL     1       7.991  27.668  14.955  0.00  0.00    +0.000 C 
ENDBRANCH  15  23
TORSDOF 1
ENDMDL
MODEL 6
REMARK VINA RESULT:      -7.3     28.217     31.446
REMARK  Name = AFLATOXIN.pdbqt.pdb
REMARK  1 active torsions:
REMARK  status: ('A' for Active; 'I' for Inactive)
REMARK    1  A    between atoms: C_15  and  O_23
REMARK                            x       y       z     vdW  Elec       q    Type
REMARK                         _______ _______ _______ _____ _____    ______ ____
ROOT
ATOM      1  O   UNL     1      -3.644  59.745  13.912  0.00  0.00    +0.000 OA
ATOM      2  O   UNL     1      -4.400  57.505  13.193  0.00  0.00    +0.000 OA
ATOM      3  O   UNL     1      -2.766  60.824   9.413  0.00  0.00    +0.000 OA
ATOM      4  O   UNL     1       0.506  64.230   7.813  0.00  0.00    +0.000 OA
ATOM      5  O   UNL     1      -2.596  61.332   7.225  0.00  0.00    +0.000 OA
ATOM      6  O   UNL     1      -0.685  62.979   6.373  0.00  0.00    +0.000 OA
ATOM      7  C   UNL     1      -4.115  59.266  11.673  0.00  0.00    +0.000 C 
ATOM      8  C   UNL     1      -3.174  60.367  11.716  0.00  0.00    +0.000 A 
ATOM      9  C   UNL     1      -4.400  58.908  13.085  0.00  0.00    +0.000 C 
ATOM     10  C   UNL     1      -2.966  60.618  13.076  0.00  0.00    +0.000 A 
ATOM     11  C   UNL     1      -2.510  61.108  10.756  0.00  0.00    +0.000 A 
ATOM     12  C   UNL     1      -1.626  62.120  11.128  0.00  0.00    +0.000 A 
ATOM     13  C   UNL     1      -4.013  58.037  10.972  0.00  0.00    +0.000 C 
ATOM     14  C   UNL     1      -0.928  62.817  10.033  0.00  0.00    +0.000 A 
ATOM     15  C   UNL     1      -1.466  62.381  12.518  0.00  0.00    +0.000 A 
ATOM     16  C   UNL     1      -2.113  61.610  13.503  0.00  0.00    +0.000 A 
ATOM     17  C   UNL     1       0.072  63.783  10.284  0.00  0.00    +0.000 A 
ATOM     18  C   UNL     1      -1.182  62.564   8.716  0.00  0.00    +0.000 A 
ATOM     19  C   UNL     1      -4.198  57.296  11.892  0.00  0.00    +0.000 C 
ATOM     20  C   UNL     1       0.694  64.409   9.099  0.00  0.00    +0.000 A 
ATOM     21  C   UNL     1      -2.217  61.553   8.366  0.00  0.00    +0.000 A 
ATOM     22  C   UNL     1      -0.454  63.263   7.542  0.00  0.00    +0.000 A 
ENDROOT
BRANCH  15  23
ATOM     23  O   UNL     1      -0.594  63.354  12.959  0.00  0.00    +0.000 OA
ATOM     24  C   UNL     1       0.337  62.815  13.863  0.00  0.00    +0.000 C 
ENDBRANCH  15  23
TORSDOF 1
ENDMDL
MODEL 7
REMARK VINA RESULT:      -7.0      3.684      6.155
REMARK  Name = AFLATOXIN.pdbqt.pdb
REMARK  1 active torsions:
REMARK  status: ('A' for Active; 'I' for Inactive)
REMARK    1  A    between atoms: C_15  and  O_23
REMARK                            x       y       z     vdW  Elec       q    Type
REMARK                         _______ _______ _______ _____ _____    ______ ____
ROOT
ATOM      1  O   UNL     1       7.355  27.411  14.869  0.00  0.00    +0.000 OA
ATOM      2  O   UNL     1       4.990  27.362  14.156  0.00  0.00    +0.000 OA
ATOM      3  O   UNL     1       6.861  31.958  15.989  0.00  0.00    +0.000 OA
ATOM      4  O   UNL     1      10.526  35.335  16.164  0.00  0.00    +0.000 OA
ATOM      5  O   UNL     1       6.472  34.056  16.710  0.00  0.00    +0.000 OA
ATOM      6  O   UNL     1       8.388  35.901  16.573  0.00  0.00    +0.000 OA
ATOM      7  C   UNL     1       5.865  29.119  15.438  0.00  0.00    +0.000 C 
ATOM      8  C   UNL     1       7.208  29.663  15.447  0.00  0.00    +0.000 A 
ATOM      9  C   UNL     1       6.000  27.685  15.081  0.00  0.00    +0.000 C 
ATOM     10  C   UNL     1       8.042  28.585  15.133  0.00  0.00    +0.000 A 
ATOM     11  C   UNL     1       7.739  30.921  15.664  0.00  0.00    +0.000 A 
ATOM     12  C   UNL     1       9.114  31.134  15.581  0.00  0.00    +0.000 A 
ATOM     13  C   UNL     1       4.721  29.587  14.742  0.00  0.00    +0.000 C 
ATOM     14  C   UNL     1       9.577  32.519  15.778  0.00  0.00    +0.000 A 
ATOM     15  C   UNL     1       9.942  30.010  15.301  0.00  0.00    +0.000 A 
ATOM     16  C   UNL     1       9.407  28.733  15.044  0.00  0.00    +0.000 A 
ATOM     17  C   UNL     1      10.932  32.882  15.608  0.00  0.00    +0.000 A 
ATOM     18  C   UNL     1       8.734  33.539  16.114  0.00  0.00    +0.000 A 
ATOM     19  C   UNL     1       4.429  28.572  14.183  0.00  0.00    +0.000 C 
ATOM     20  C   UNL     1      11.266  34.303  15.837  0.00  0.00    +0.000 A 
ATOM     21  C   UNL     1       7.288  33.242  16.304  0.00  0.00    +0.000 A 
ATOM     22  C   UNL     1       9.184  35.007  16.309  0.00  0.00    +0.000 A 
ENDROOT
BRANCH  15  23
ATOM     23  O   UNL     1      11.308  30.150  15.183  0.00  0.00    +0.000 OA
ATOM     24  C   UNL     1      11.974  29.351  16.128  0.00  0.00    +0.000 C 
ENDBRANCH  15  23
TORSDOF 1
ENDMDL
MODEL 8
REMARK VINA RESULT:      -6.7     15.368     18.534
REMARK  Name = AFLATOXIN.pdbqt.pdb
REMARK  1 active torsions:
REMARK  status: ('A' for Active; 'I' for Inactive)
REMARK    1  A    between atoms: C_15  and  O_23
REMARK                            x       y       z     vdW  Elec       q    Type
REMARK                         _______ _______ _______ _____ _____    ______ ____
ROOT
ATOM      1  O   UNL     1     -15.454  39.311   9.757  0.00  0.00    +0.000 OA
ATOM      2  O   UNL     1     -15.187  38.181   7.575  0.00  0.00    +0.000 OA
ATOM      3  O   UNL     1     -10.783  39.876   9.966  0.00  0.00    +0.000 OA
ATOM      4  O   UNL     1      -8.090  40.398  14.130  0.00  0.00    +0.000 OA
ATOM      5  O   UNL     1      -8.574  40.307   9.873  0.00  0.00    +0.000 OA
ATOM      6  O   UNL     1      -7.119  40.348  12.102  0.00  0.00    +0.000 OA
ATOM      7  C   UNL     1     -13.456  39.427   8.549  0.00  0.00    +0.000 C 
ATOM      8  C   UNL     1     -13.154  39.631   9.951  0.00  0.00    +0.000 A 
ATOM      9  C   UNL     1     -14.926  39.241   8.463  0.00  0.00    +0.000 C 
ATOM     10  C   UNL     1     -14.390  39.582  10.603  0.00  0.00    +0.000 A 
ATOM     11  C   UNL     1     -11.989  39.821  10.670  0.00  0.00    +0.000 A 
ATOM     12  C   UNL     1     -12.027  39.972  12.055  0.00  0.00    +0.000 A 
ATOM     13  C   UNL     1     -12.892  38.490   7.645  0.00  0.00    +0.000 C 
ATOM     14  C   UNL     1     -10.728  40.117  12.736  0.00  0.00    +0.000 A 
ATOM     15  C   UNL     1     -13.303  39.960  12.687  0.00  0.00    +0.000 A 
ATOM     16  C   UNL     1     -14.491  39.733  11.967  0.00  0.00    +0.000 A 
ATOM     17  C   UNL     1     -10.627  40.165  14.145  0.00  0.00    +0.000 A 
ATOM     18  C   UNL     1      -9.544  40.191  12.060  0.00  0.00    +0.000 A 
ATOM     19  C   UNL     1     -13.906  37.988   7.260  0.00  0.00    +0.000 C 
ATOM     20  C   UNL     1      -9.268  40.314  14.703  0.00  0.00    +0.000 A 
ATOM     21  C   UNL     1      -9.562  40.139  10.573  0.00  0.00    +0.000 A 
ATOM     22  C   UNL     1      -8.162  40.323  12.745  0.00  0.00    +0.000 A 
ENDROOT
BRANCH  15  23
ATOM     23  O   UNL     1     -13.415  40.084  14.055  0.00  0.00    +0.000 OA
ATOM     24  C   UNL     1     -14.227  39.065  14.582  0.00  0.00    +0.000 C 
ENDBRANCH  15  23
TORSDOF 1
ENDMDL
MODEL 9
REMARK VINA RESULT:      -6.6     30.345     32.863
REMARK  Name = AFLATOXIN.pdbqt.pdb
REMARK  1 active torsions:
REMARK  status: ('A' for Active; 'I' for Inactive)
REMARK    1  A    between atoms: C_15  and  O_23
REMARK                            x       y       z     vdW  Elec       q    Type
REMARK                         _______ _______ _______ _____ _____    ______ ____
ROOT
ATOM      1  O   UNL     1      -0.737  62.695  14.593  0.00  0.00    +0.000 OA
ATOM      2  O   UNL     1       0.416  64.701  15.460  0.00  0.00    +0.000 OA
ATOM      3  O   UNL     1       0.523  63.931  10.228  0.00  0.00    +0.000 OA
ATOM      4  O   UNL     1      -1.839  62.637   6.031  0.00  0.00    +0.000 OA
ATOM      5  O   UNL     1       1.364  64.471   8.209  0.00  0.00    +0.000 OA
ATOM      6  O   UNL     1      -0.032  63.975   5.996  0.00  0.00    +0.000 OA
ATOM      7  C   UNL     1       0.758  63.917  13.277  0.00  0.00    +0.000 C 
ATOM      8  C   UNL     1      -0.165  63.228  12.398  0.00  0.00    +0.000 A 
ATOM      9  C   UNL     1       0.372  63.543  14.661  0.00  0.00    +0.000 C 
ATOM     10  C   UNL     1      -1.002  62.497  13.247  0.00  0.00    +0.000 A 
ATOM     11  C   UNL     1      -0.351  63.192  11.029  0.00  0.00    +0.000 A 
ATOM     12  C   UNL     1      -1.371  62.423  10.472  0.00  0.00    +0.000 A 
ATOM     13  C   UNL     1       1.079  65.298  13.322  0.00  0.00    +0.000 C 
ATOM     14  C   UNL     1      -1.520  62.492   9.007  0.00  0.00    +0.000 A 
ATOM     15  C   UNL     1      -2.181  61.656  11.357  0.00  0.00    +0.000 A 
ATOM     16  C   UNL     1      -2.020  61.713  12.755  0.00  0.00    +0.000 A 
ATOM     17  C   UNL     1      -2.584  61.847   8.336  0.00  0.00    +0.000 A 
ATOM     18  C   UNL     1      -0.662  63.194   8.210  0.00  0.00    +0.000 A 
ATOM     19  C   UNL     1       0.861  65.490  14.481  0.00  0.00    +0.000 C 
ATOM     20  C   UNL     1      -2.619  61.993   6.867  0.00  0.00    +0.000 A 
ATOM     21  C   UNL     1       0.481  63.908   8.839  0.00  0.00    +0.000 A 
ATOM     22  C   UNL     1      -0.802  63.303   6.672  0.00  0.00    +0.000 A 
ENDROOT
BRANCH  15  23
ATOM     23  O   UNL     1      -3.220  60.889  10.878  0.00  0.00    +0.000 OA
ATOM     24  C   UNL     1      -3.584  59.904  11.812  0.00  0.00    +0.000 C 
ENDBRANCH  15  23
TORSDOF 1
ENDMDL
