MODEL 1
REMARK VINA RESULT:      -7.4      0.000      0.000
REMARK  Name = AZD4547.pdbqt.pdb
REMARK  6 active torsions:
REMARK  status: ('A' for Active; 'I' for Inactive)
REMARK    1  A    between atoms: C_3  and  C_23
REMARK    2  A    between atoms: C_8  and  C_11
REMARK    3  A    between atoms: C_12  and  C_13
REMARK    4  A    between atoms: C_15  and  O_19
REMARK    5  A    between atoms: C_17  and  O_21
REMARK    6  A    between atoms: C_26  and  N_29
REMARK                            x       y       z     vdW  Elec       q    Type
REMARK                         _______ _______ _______ _____ _____    ______ ____
ROOT
ATOM      1  O   UNL     1      -4.867  41.062  14.041  0.00  0.00    +0.000 OA
ATOM      2  N   UNL     1      -2.777  42.025  14.298  0.00  0.00    +0.000 N 
ATOM      3  C   UNL     1      -4.136  42.046  14.078  0.00  0.00    +0.000 C 
ATOM      4  H   UNL     1      -2.215  42.862  14.316  0.00  0.00    +0.000 HD
ATOM      5  C   UNL     1      -2.043  40.884  14.515  0.00  0.00    +0.000 A 
ATOM      6  N   UNL     1      -0.725  40.994  14.714  0.00  0.00    +0.000 NA
ATOM      7  N   UNL     1      -0.323  39.721  14.890  0.00  0.00    +0.000 N 
ATOM      8  C   UNL     1      -1.333  38.811  14.812  0.00  0.00    +0.000 A 
ATOM      9  H   UNL     1       0.661  39.543  15.062  0.00  0.00    +0.000 HD
ATOM     10  C   UNL     1      -2.473  39.535  14.566  0.00  0.00    +0.000 A 
ENDROOT
BRANCH   3  11
ATOM     11  C   UNL     1      -4.739  43.386  13.869  0.00  0.00    +0.000 A 
ATOM     12  C   UNL     1      -5.584  43.573  12.776  0.00  0.00    +0.000 A 
ATOM     13  C   UNL     1      -6.167  44.817  12.548  0.00  0.00    +0.000 A 
ATOM     14  C   UNL     1      -5.912  45.904  13.393  0.00  0.00    +0.000 A 
ATOM     15  C   UNL     1      -5.075  45.693  14.498  0.00  0.00    +0.000 A 
ATOM     16  C   UNL     1      -4.487  44.450  14.732  0.00  0.00    +0.000 A 
BRANCH  14  17
ATOM     17  N   UNL     1      -6.540  47.154  13.186  0.00  0.00    +0.000 N 
ATOM     18  C   UNL     1      -7.149  47.833  14.343  0.00  0.00    +0.000 C 
ATOM     19  C   UNL     1      -8.421  48.409  14.631  0.00  0.00    +0.000 C 
ATOM     20  N   UNL     1      -9.399  48.350  13.591  0.00  0.00    +0.000 N 
ATOM     21  C   UNL     1      -8.751  49.014  15.948  0.00  0.00    +0.000 C 
ATOM     22  C   UNL     1      -9.029  47.726  12.362  0.00  0.00    +0.000 C 
ATOM     23  H   UNL     1     -10.328  48.716  13.732  0.00  0.00    +0.000 HD
ATOM     24  C   UNL     1      -7.701  47.213  12.281  0.00  0.00    +0.000 C 
ATOM     25  C   UNL     1     -10.010  47.590  11.254  0.00  0.00    +0.000 C 
ENDBRANCH  14  17
ENDBRANCH   3  11
BRANCH   8  26
ATOM     26  C   UNL     1      -1.187  37.411  14.961  0.00  0.00    +0.000 C 
ATOM     27  C   UNL     1      -1.028  35.895  15.119  0.00  0.00    +0.000 C 
BRANCH  27  28
ATOM     28  C   UNL     1      -0.879  34.485  15.256  0.00  0.00    +0.000 A 
ATOM     29  C   UNL     1      -1.854  33.631  14.748  0.00  0.00    +0.000 A 
ATOM     30  C   UNL     1      -1.710  32.248  14.875  0.00  0.00    +0.000 A 
ATOM     31  C   UNL     1      -0.579  31.732  15.513  0.00  0.00    +0.000 A 
ATOM     32  C   UNL     1       0.398  32.585  16.029  0.00  0.00    +0.000 A 
ATOM     33  C   UNL     1       0.243  33.966  15.895  0.00  0.00    +0.000 A 
BRANCH  30  34
ATOM     34  O   UNL     1      -2.604  31.316  14.405  0.00  0.00    +0.000 OA
ATOM     35  C   UNL     1      -3.953  31.669  14.517  0.00  0.00    +0.000 C 
ENDBRANCH  30  34
BRANCH  32  36
ATOM     36  O   UNL     1       1.465  31.967  16.634  0.00  0.00    +0.000 OA
ATOM     37  C   UNL     1       2.494  32.820  17.055  0.00  0.00    +0.000 C 
ENDBRANCH  32  36
ENDBRANCH  27  28
ENDBRANCH   8  26
TORSDOF 6
ENDMDL
MODEL 2
REMARK VINA RESULT:      -7.4      0.600      2.224
REMARK  Name = AZD4547.pdbqt.pdb
REMARK  6 active torsions:
REMARK  status: ('A' for Active; 'I' for Inactive)
REMARK    1  A    between atoms: C_3  and  C_23
REMARK    2  A    between atoms: C_8  and  C_11
REMARK    3  A    between atoms: C_12  and  C_13
REMARK    4  A    between atoms: C_15  and  O_19
REMARK    5  A    between atoms: C_17  and  O_21
REMARK    6  A    between atoms: C_26  and  N_29
REMARK                            x       y       z     vdW  Elec       q    Type
REMARK                         _______ _______ _______ _____ _____    ______ ____
ROOT
ATOM      1  O   UNL     1      -5.005  41.285  13.888  0.00  0.00    +0.000 OA
ATOM      2  N   UNL     1      -2.950  42.343  14.031  0.00  0.00    +0.000 N 
ATOM      3  C   UNL     1      -4.316  42.299  13.862  0.00  0.00    +0.000 C 
ATOM      4  H   UNL     1      -2.425  43.203  13.998  0.00  0.00    +0.000 HD
ATOM      5  C   UNL     1      -2.160  41.243  14.262  0.00  0.00    +0.000 A 
ATOM      6  N   UNL     1      -0.842  41.416  14.408  0.00  0.00    +0.000 NA
ATOM      7  N   UNL     1      -0.379  40.169  14.616  0.00  0.00    +0.000 N 
ATOM      8  C   UNL     1      -1.351  39.215  14.608  0.00  0.00    +0.000 A 
ATOM      9  H   UNL     1       0.618  40.039  14.757  0.00  0.00    +0.000 HD
ATOM     10  C   UNL     1      -2.529  39.880  14.379  0.00  0.00    +0.000 A 
ENDROOT
BRANCH   3  11
ATOM     11  C   UNL     1      -4.984  43.603  13.626  0.00  0.00    +0.000 A 
ATOM     12  C   UNL     1      -5.392  43.918  12.331  0.00  0.00    +0.000 A 
ATOM     13  C   UNL     1      -6.022  45.133  12.072  0.00  0.00    +0.000 A 
ATOM     14  C   UNL     1      -6.244  46.066  13.093  0.00  0.00    +0.000 A 
ATOM     15  C   UNL     1      -5.844  45.725  14.392  0.00  0.00    +0.000 A 
ATOM     16  C   UNL     1      -5.213  44.510  14.658  0.00  0.00    +0.000 A 
BRANCH  14  17
ATOM     17  N   UNL     1      -6.924  47.281  12.837  0.00  0.00    +0.000 N 
ATOM     18  C   UNL     1      -7.507  48.011  13.976  0.00  0.00    +0.000 C 
ATOM     19  C   UNL     1      -8.786  48.563  14.283  0.00  0.00    +0.000 C 
ATOM     20  N   UNL     1      -9.803  48.408  13.292  0.00  0.00    +0.000 N 
ATOM     21  C   UNL     1      -9.082  49.239  15.574  0.00  0.00    +0.000 C 
ATOM     22  C   UNL     1      -9.462  47.720  12.088  0.00  0.00    +0.000 C 
ATOM     23  H   UNL     1     -10.737  48.752  13.450  0.00  0.00    +0.000 HD
ATOM     24  C   UNL     1      -8.122  47.246  11.981  0.00  0.00    +0.000 C 
ATOM     25  C   UNL     1     -10.483  47.484  11.034  0.00  0.00    +0.000 C 
ENDBRANCH  14  17
ENDBRANCH   3  11
BRANCH   8  26
ATOM     26  C   UNL     1      -1.139  37.829  14.804  0.00  0.00    +0.000 C 
ATOM     27  C   UNL     1      -0.911  36.328  15.012  0.00  0.00    +0.000 C 
BRANCH  27  28
ATOM     28  C   UNL     1      -0.703  34.931  15.196  0.00  0.00    +0.000 A 
ATOM     29  C   UNL     1       0.589  34.435  15.346  0.00  0.00    +0.000 A 
ATOM     30  C   UNL     1       0.798  33.067  15.532  0.00  0.00    +0.000 A 
ATOM     31  C   UNL     1      -0.300  32.205  15.572  0.00  0.00    +0.000 A 
ATOM     32  C   UNL     1      -1.597  32.697  15.417  0.00  0.00    +0.000 A 
ATOM     33  C   UNL     1      -1.793  34.066  15.231  0.00  0.00    +0.000 A 
BRANCH  30  34
ATOM     34  O   UNL     1       2.025  32.473  15.698  0.00  0.00    +0.000 OA
ATOM     35  C   UNL     1       2.653  32.721  16.924  0.00  0.00    +0.000 C 
ENDBRANCH  30  34
BRANCH  32  36
ATOM     36  O   UNL     1      -2.598  31.758  15.473  0.00  0.00    +0.000 OA
ATOM     37  C   UNL     1      -3.724  32.031  14.684  0.00  0.00    +0.000 C 
ENDBRANCH  32  36
ENDBRANCH  27  28
ENDBRANCH   8  26
TORSDOF 6
ENDMDL
MODEL 3
REMARK VINA RESULT:      -7.4     10.737     13.295
REMARK  Name = AZD4547.pdbqt.pdb
REMARK  6 active torsions:
REMARK  status: ('A' for Active; 'I' for Inactive)
REMARK    1  A    between atoms: C_3  and  C_23
REMARK    2  A    between atoms: C_8  and  C_11
REMARK    3  A    between atoms: C_12  and  C_13
REMARK    4  A    between atoms: C_15  and  O_19
REMARK    5  A    between atoms: C_17  and  O_21
REMARK    6  A    between atoms: C_26  and  N_29
REMARK                            x       y       z     vdW  Elec       q    Type
REMARK                         _______ _______ _______ _____ _____    ______ ____
ROOT
ATOM      1  O   UNL     1     -11.059  39.248  10.031  0.00  0.00    +0.000 OA
ATOM      2  N   UNL     1     -11.555  40.758   8.347  0.00  0.00    +0.000 N 
ATOM      3  C   UNL     1     -10.864  40.310   9.450  0.00  0.00    +0.000 C 
ATOM      4  H   UNL     1     -11.360  41.643   7.904  0.00  0.00    +0.000 HD
ATOM      5  C   UNL     1     -12.571  40.065   7.733  0.00  0.00    +0.000 A 
ATOM      6  N   UNL     1     -13.169  40.608   6.667  0.00  0.00    +0.000 NA
ATOM      7  N   UNL     1     -14.092  39.693   6.319  0.00  0.00    +0.000 N 
ATOM      8  C   UNL     1     -14.102  38.591   7.121  0.00  0.00    +0.000 A 
ATOM      9  H   UNL     1     -14.686  39.883   5.519  0.00  0.00    +0.000 HD
ATOM     10  C   UNL     1     -13.120  38.801   8.058  0.00  0.00    +0.000 A 
ENDROOT
BRANCH   3  11
ATOM     11  C   UNL     1      -9.799  41.210   9.959  0.00  0.00    +0.000 A 
ATOM     12  C   UNL     1      -8.519  40.689  10.144  0.00  0.00    +0.000 A 
ATOM     13  C   UNL     1      -7.495  41.505  10.620  0.00  0.00    +0.000 A 
ATOM     14  C   UNL     1      -7.725  42.850  10.935  0.00  0.00    +0.000 A 
ATOM     15  C   UNL     1      -9.014  43.361  10.725  0.00  0.00    +0.000 A 
ATOM     16  C   UNL     1     -10.044  42.550  10.249  0.00  0.00    +0.000 A 
BRANCH  14  17
ATOM     17  N   UNL     1      -6.674  43.688  11.376  0.00  0.00    +0.000 N 
ATOM     18  C   UNL     1      -7.020  44.969  12.014  0.00  0.00    +0.000 C 
ATOM     19  C   UNL     1      -6.640  46.332  11.832  0.00  0.00    +0.000 C 
ATOM     20  N   UNL     1      -5.698  46.599  10.792  0.00  0.00    +0.000 N 
ATOM     21  C   UNL     1      -7.207  47.441  12.645  0.00  0.00    +0.000 C 
ATOM     22  C   UNL     1      -5.218  45.494  10.027  0.00  0.00    +0.000 C 
ATOM     23  H   UNL     1      -5.401  47.541  10.591  0.00  0.00    +0.000 HD
ATOM     24  C   UNL     1      -5.727  44.207  10.375  0.00  0.00    +0.000 C 
ATOM     25  C   UNL     1      -4.270  45.704   8.902  0.00  0.00    +0.000 C 
ENDBRANCH  14  17
ENDBRANCH   3  11
BRANCH   8  26
ATOM     26  C   UNL     1     -14.967  37.481   6.977  0.00  0.00    +0.000 C 
ATOM     27  C   UNL     1     -15.905  36.279   6.824  0.00  0.00    +0.000 C 
BRANCH  27  28
ATOM     28  C   UNL     1     -16.779  35.161   6.692  0.00  0.00    +0.000 A 
ATOM     29  C   UNL     1     -16.587  34.250   5.658  0.00  0.00    +0.000 A 
ATOM     30  C   UNL     1     -17.438  33.149   5.526  0.00  0.00    +0.000 A 
ATOM     31  C   UNL     1     -18.476  32.972   6.444  0.00  0.00    +0.000 A 
ATOM     32  C   UNL     1     -18.675  33.887   7.479  0.00  0.00    +0.000 A 
ATOM     33  C   UNL     1     -17.818  34.983   7.600  0.00  0.00    +0.000 A 
BRANCH  30  34
ATOM     34  O   UNL     1     -17.335  32.187   4.552  0.00  0.00    +0.000 OA
ATOM     35  C   UNL     1     -16.047  31.685   4.336  0.00  0.00    +0.000 C 
ENDBRANCH  30  34
BRANCH  32  36
ATOM     36  O   UNL     1     -19.725  33.612   8.320  0.00  0.00    +0.000 OA
ATOM     37  C   UNL     1     -19.660  32.378   8.981  0.00  0.00    +0.000 C 
ENDBRANCH  32  36
ENDBRANCH  27  28
ENDBRANCH   8  26
TORSDOF 6
ENDMDL
MODEL 4
REMARK VINA RESULT:      -7.3      6.530     11.344
REMARK  Name = AZD4547.pdbqt.pdb
REMARK  6 active torsions:
REMARK  status: ('A' for Active; 'I' for Inactive)
REMARK    1  A    between atoms: C_3  and  C_23
REMARK    2  A    between atoms: C_8  and  C_11
REMARK    3  A    between atoms: C_12  and  C_13
REMARK    4  A    between atoms: C_15  and  O_19
REMARK    5  A    between atoms: C_17  and  O_21
REMARK    6  A    between atoms: C_26  and  N_29
REMARK                            x       y       z     vdW  Elec       q    Type
REMARK                         _______ _______ _______ _____ _____    ______ ____
ROOT
ATOM      1  O   UNL     1      -5.899  40.824  14.416  0.00  0.00    +0.000 OA
ATOM      2  N   UNL     1      -4.815  41.145  12.395  0.00  0.00    +0.000 N 
ATOM      3  C   UNL     1      -4.883  41.050  13.767  0.00  0.00    +0.000 C 
ATOM      4  H   UNL     1      -3.954  41.336  11.904  0.00  0.00    +0.000 HD
ATOM      5  C   UNL     1      -5.888  40.992  11.551  0.00  0.00    +0.000 A 
ATOM      6  N   UNL     1      -5.694  41.110  10.233  0.00  0.00    +0.000 NA
ATOM      7  N   UNL     1      -6.919  40.908   9.712  0.00  0.00    +0.000 N 
ATOM      8  C   UNL     1      -7.880  40.666  10.647  0.00  0.00    +0.000 A 
ATOM      9  H   UNL     1      -7.030  40.949   8.705  0.00  0.00    +0.000 HD
ATOM     10  C   UNL     1      -7.242  40.715  11.862  0.00  0.00    +0.000 A 
ENDROOT
BRANCH   3  11
ATOM     11  C   UNL     1      -3.605  41.245  14.496  0.00  0.00    +0.000 A 
ATOM     12  C   UNL     1      -2.409  41.043  13.808  0.00  0.00    +0.000 A 
ATOM     13  C   UNL     1      -1.190  41.216  14.460  0.00  0.00    +0.000 A 
ATOM     14  C   UNL     1      -1.136  41.578  15.812  0.00  0.00    +0.000 A 
ATOM     15  C   UNL     1      -2.347  41.795  16.483  0.00  0.00    +0.000 A 
ATOM     16  C   UNL     1      -3.571  41.623  15.836  0.00  0.00    +0.000 A 
BRANCH  14  17
ATOM     17  N   UNL     1       0.103  41.797  16.460  0.00  0.00    +0.000 N 
ATOM     18  C   UNL     1       0.092  42.180  17.883  0.00  0.00    +0.000 C 
ATOM     19  C   UNL     1       0.679  43.221  18.660  0.00  0.00    +0.000 C 
ATOM     20  N   UNL     1       1.492  44.162  17.958  0.00  0.00    +0.000 N 
ATOM     21  C   UNL     1       0.448  43.362  20.122  0.00  0.00    +0.000 C 
ATOM     22  C   UNL     1       1.647  43.990  16.550  0.00  0.00    +0.000 C 
ATOM     23  H   UNL     1       1.921  44.938  18.439  0.00  0.00    +0.000 HD
ATOM     24  C   UNL     1       0.971  42.879  15.964  0.00  0.00    +0.000 C 
ATOM     25  C   UNL     1       2.441  44.958  15.749  0.00  0.00    +0.000 C 
ENDBRANCH  14  17
ENDBRANCH   3  11
BRANCH   8  26
ATOM     26  C   UNL     1      -9.246  40.419  10.372  0.00  0.00    +0.000 C 
ATOM     27  C   UNL     1     -10.726  40.154  10.077  0.00  0.00    +0.000 C 
BRANCH  27  28
ATOM     28  C   UNL     1     -12.105  39.911   9.811  0.00  0.00    +0.000 A 
ATOM     29  C   UNL     1     -12.995  39.739  10.867  0.00  0.00    +0.000 A 
ATOM     30  C   UNL     1     -14.349  39.506  10.613  0.00  0.00    +0.000 A 
ATOM     31  C   UNL     1     -14.797  39.453   9.291  0.00  0.00    +0.000 A 
ATOM     32  C   UNL     1     -13.907  39.620   8.229  0.00  0.00    +0.000 A 
ATOM     33  C   UNL     1     -12.557  39.852   8.497  0.00  0.00    +0.000 A 
BRANCH  30  34
ATOM     34  O   UNL     1     -15.312  39.331  11.575  0.00  0.00    +0.000 OA
ATOM     35  C   UNL     1     -14.844  38.904  12.823  0.00  0.00    +0.000 C 
ENDBRANCH  30  34
BRANCH  32  36
ATOM     36  O   UNL     1     -14.460  39.548   6.974  0.00  0.00    +0.000 OA
ATOM     37  C   UNL     1     -14.938  38.285   6.599  0.00  0.00    +0.000 C 
ENDBRANCH  32  36
ENDBRANCH  27  28
ENDBRANCH   8  26
TORSDOF 6
ENDMDL
MODEL 5
REMARK VINA RESULT:      -7.2      7.462     10.079
REMARK  Name = AZD4547.pdbqt.pdb
REMARK  6 active torsions:
REMARK  status: ('A' for Active; 'I' for Inactive)
REMARK    1  A    between atoms: C_3  and  C_23
REMARK    2  A    between atoms: C_8  and  C_11
REMARK    3  A    between atoms: C_12  and  C_13
REMARK    4  A    between atoms: C_15  and  O_19
REMARK    5  A    between atoms: C_17  and  O_21
REMARK    6  A    between atoms: C_26  and  N_29
REMARK                            x       y       z     vdW  Elec       q    Type
REMARK                         _______ _______ _______ _____ _____    ______ ____
ROOT
ATOM      1  O   UNL     1     -10.106  40.661  14.929  0.00  0.00    +0.000 OA
ATOM      2  N   UNL     1      -9.763  40.039  12.725  0.00  0.00    +0.000 N 
ATOM      3  C   UNL     1     -10.523  40.240  13.855  0.00  0.00    +0.000 C 
ATOM      4  H   UNL     1     -10.151  39.686  11.863  0.00  0.00    +0.000 HD
ATOM      5  C   UNL     1      -8.415  40.291  12.640  0.00  0.00    +0.000 A 
ATOM      6  N   UNL     1      -7.786  40.052  11.485  0.00  0.00    +0.000 NA
ATOM      7  N   UNL     1      -6.510  40.398  11.739  0.00  0.00    +0.000 N 
ATOM      8  C   UNL     1      -6.307  40.848  13.010  0.00  0.00    +0.000 A 
ATOM      9  H   UNL     1      -5.825  40.304  10.998  0.00  0.00    +0.000 HD
ATOM     10  C   UNL     1      -7.531  40.790  13.629  0.00  0.00    +0.000 A 
ENDROOT
BRANCH   3  11
ATOM     11  C   UNL     1     -11.965  39.907  13.736  0.00  0.00    +0.000 A 
ATOM     12  C   UNL     1     -12.421  39.344  12.545  0.00  0.00    +0.000 A 
ATOM     13  C   UNL     1     -13.768  39.019  12.397  0.00  0.00    +0.000 A 
ATOM     14  C   UNL     1     -14.690  39.262  13.423  0.00  0.00    +0.000 A 
ATOM     15  C   UNL     1     -14.210  39.813  14.619  0.00  0.00    +0.000 A 
ATOM     16  C   UNL     1     -12.863  40.140  14.775  0.00  0.00    +0.000 A 
BRANCH  14  17
ATOM     17  N   UNL     1     -16.049  38.891  13.287  0.00  0.00    +0.000 N 
ATOM     18  C   UNL     1     -16.533  38.479  11.958  0.00  0.00    +0.000 C 
ATOM     19  C   UNL     1     -17.623  38.844  11.115  0.00  0.00    +0.000 C 
ATOM     20  N   UNL     1     -18.505  39.852  11.611  0.00  0.00    +0.000 N 
ATOM     21  C   UNL     1     -17.835  38.248   9.770  0.00  0.00    +0.000 C 
ATOM     22  C   UNL     1     -18.227  40.408  12.896  0.00  0.00    +0.000 C 
ATOM     23  H   UNL     1     -19.284  40.177  11.060  0.00  0.00    +0.000 HD
ATOM     24  C   UNL     1     -17.082  39.900  13.578  0.00  0.00    +0.000 C 
ATOM     25  C   UNL     1     -19.077  41.492  13.455  0.00  0.00    +0.000 C 
ENDBRANCH  14  17
ENDBRANCH   3  11
BRANCH   8  26
ATOM     26  C   UNL     1      -5.066  41.277  13.537  0.00  0.00    +0.000 C 
ATOM     27  C   UNL     1      -3.720  41.738  14.107  0.00  0.00    +0.000 C 
BRANCH  27  28
ATOM     28  C   UNL     1      -2.465  42.159  14.633  0.00  0.00    +0.000 A 
ATOM     29  C   UNL     1      -1.411  41.254  14.722  0.00  0.00    +0.000 A 
ATOM     30  C   UNL     1      -0.177  41.663  15.232  0.00  0.00    +0.000 A 
ATOM     31  C   UNL     1      -0.011  42.987  15.646  0.00  0.00    +0.000 A 
ATOM     32  C   UNL     1      -1.066  43.896  15.563  0.00  0.00    +0.000 A 
ATOM     33  C   UNL     1      -2.295  43.475  15.051  0.00  0.00    +0.000 A 
BRANCH  30  34
ATOM     34  O   UNL     1       0.929  40.858  15.358  0.00  0.00    +0.000 OA
ATOM     35  C   UNL     1       1.729  41.107  16.479  0.00  0.00    +0.000 C 
ENDBRANCH  30  34
BRANCH  32  36
ATOM     36  O   UNL     1      -0.788  45.169  15.997  0.00  0.00    +0.000 OA
ATOM     37  C   UNL     1      -0.089  45.976  15.089  0.00  0.00    +0.000 C 
ENDBRANCH  32  36
ENDBRANCH  27  28
ENDBRANCH   8  26
TORSDOF 6
ENDMDL
MODEL 6
REMARK VINA RESULT:      -7.2      7.439     10.052
REMARK  Name = AZD4547.pdbqt.pdb
REMARK  6 active torsions:
REMARK  status: ('A' for Active; 'I' for Inactive)
REMARK    1  A    between atoms: C_3  and  C_23
REMARK    2  A    between atoms: C_8  and  C_11
REMARK    3  A    between atoms: C_12  and  C_13
REMARK    4  A    between atoms: C_15  and  O_19
REMARK    5  A    between atoms: C_17  and  O_21
REMARK    6  A    between atoms: C_26  and  N_29
REMARK                            x       y       z     vdW  Elec       q    Type
REMARK                         _______ _______ _______ _____ _____    ______ ____
ROOT
ATOM      1  O   UNL     1     -10.120  40.637  14.890  0.00  0.00    +0.000 OA
ATOM      2  N   UNL     1      -9.773  40.045  12.679  0.00  0.00    +0.000 N 
ATOM      3  C   UNL     1     -10.534  40.228  13.811  0.00  0.00    +0.000 C 
ATOM      4  H   UNL     1     -10.158  39.702  11.812  0.00  0.00    +0.000 HD
ATOM      5  C   UNL     1      -8.426  40.305  12.598  0.00  0.00    +0.000 A 
ATOM      6  N   UNL     1      -7.795  40.085  11.439  0.00  0.00    +0.000 NA
ATOM      7  N   UNL     1      -6.522  40.434  11.699  0.00  0.00    +0.000 N 
ATOM      8  C   UNL     1      -6.321  40.868  12.975  0.00  0.00    +0.000 A 
ATOM      9  H   UNL     1      -5.835  40.352  10.956  0.00  0.00    +0.000 HD
ATOM     10  C   UNL     1      -7.545  40.796  13.592  0.00  0.00    +0.000 A 
ENDROOT
BRANCH   3  11
ATOM     11  C   UNL     1     -11.974  39.890  13.687  0.00  0.00    +0.000 A 
ATOM     12  C   UNL     1     -12.488  39.624  12.418  0.00  0.00    +0.000 A 
ATOM     13  C   UNL     1     -13.835  39.304  12.263  0.00  0.00    +0.000 A 
ATOM     14  C   UNL     1     -14.701  39.256  13.363  0.00  0.00    +0.000 A 
ATOM     15  C   UNL     1     -14.162  39.508  14.633  0.00  0.00    +0.000 A 
ATOM     16  C   UNL     1     -12.815  39.829  14.795  0.00  0.00    +0.000 A 
BRANCH  14  17
ATOM     17  N   UNL     1     -16.058  38.887  13.210  0.00  0.00    +0.000 N 
ATOM     18  C   UNL     1     -16.529  38.489  11.872  0.00  0.00    +0.000 C 
ATOM     19  C   UNL     1     -17.609  38.863  11.020  0.00  0.00    +0.000 C 
ATOM     20  N   UNL     1     -18.496  39.866  11.517  0.00  0.00    +0.000 N 
ATOM     21  C   UNL     1     -17.807  38.280   9.667  0.00  0.00    +0.000 C 
ATOM     22  C   UNL     1     -18.232  40.409  12.810  0.00  0.00    +0.000 C 
ATOM     23  H   UNL     1     -19.269  40.198  10.961  0.00  0.00    +0.000 HD
ATOM     24  C   UNL     1     -17.094  39.893  13.499  0.00  0.00    +0.000 C 
ATOM     25  C   UNL     1     -19.087  41.488  13.371  0.00  0.00    +0.000 C 
ENDBRANCH  14  17
ENDBRANCH   3  11
BRANCH   8  26
ATOM     26  C   UNL     1      -5.082  41.296  13.508  0.00  0.00    +0.000 C 
ATOM     27  C   UNL     1      -3.740  41.762  14.082  0.00  0.00    +0.000 C 
BRANCH  27  28
ATOM     28  C   UNL     1      -2.489  42.198  14.607  0.00  0.00    +0.000 A 
ATOM     29  C   UNL     1      -2.343  43.509  15.052  0.00  0.00    +0.000 A 
ATOM     30  C   UNL     1      -1.121  43.941  15.573  0.00  0.00    +0.000 A 
ATOM     31  C   UNL     1      -0.053  43.045  15.646  0.00  0.00    +0.000 A 
ATOM     32  C   UNL     1      -0.193  41.731  15.196  0.00  0.00    +0.000 A 
ATOM     33  C   UNL     1      -1.419  41.311  14.677  0.00  0.00    +0.000 A 
BRANCH  30  34
ATOM     34  O   UNL     1      -0.869  45.205  16.046  0.00  0.00    +0.000 OA
ATOM     35  C   UNL     1      -1.493  46.244  15.345  0.00  0.00    +0.000 C 
ENDBRANCH  30  34
BRANCH  32  36
ATOM     36  O   UNL     1       0.923  40.940  15.316  0.00  0.00    +0.000 OA
ATOM     37  C   UNL     1       1.463  40.854  16.607  0.00  0.00    +0.000 C 
ENDBRANCH  32  36
ENDBRANCH  27  28
ENDBRANCH   8  26
TORSDOF 6
ENDMDL
MODEL 7
REMARK VINA RESULT:      -7.1      6.433     11.494
REMARK  Name = AZD4547.pdbqt.pdb
REMARK  6 active torsions:
REMARK  status: ('A' for Active; 'I' for Inactive)
REMARK    1  A    between atoms: C_3  and  C_23
REMARK    2  A    between atoms: C_8  and  C_11
REMARK    3  A    between atoms: C_12  and  C_13
REMARK    4  A    between atoms: C_15  and  O_19
REMARK    5  A    between atoms: C_17  and  O_21
REMARK    6  A    between atoms: C_26  and  N_29
REMARK                            x       y       z     vdW  Elec       q    Type
REMARK                         _______ _______ _______ _____ _____    ______ ____
ROOT
ATOM      1  O   UNL     1      -6.269  41.906  14.205  0.00  0.00    +0.000 OA
ATOM      2  N   UNL     1      -5.054  41.694  12.245  0.00  0.00    +0.000 N 
ATOM      3  C   UNL     1      -5.210  41.954  13.588  0.00  0.00    +0.000 C 
ATOM      4  H   UNL     1      -4.161  41.750  11.779  0.00  0.00    +0.000 HD
ATOM      5  C   UNL     1      -6.076  41.333  11.400  0.00  0.00    +0.000 A 
ATOM      6  N   UNL     1      -5.797  41.108  10.111  0.00  0.00    +0.000 NA
ATOM      7  N   UNL     1      -6.990  40.784   9.580  0.00  0.00    +0.000 N 
ATOM      8  C   UNL     1      -8.013  40.793  10.481  0.00  0.00    +0.000 A 
ATOM      9  H   UNL     1      -7.037  40.565   8.590  0.00  0.00    +0.000 HD
ATOM     10  C   UNL     1      -7.452  41.149  11.682  0.00  0.00    +0.000 A 
ENDROOT
BRANCH   3  11
ATOM     11  C   UNL     1      -3.976  42.325  14.325  0.00  0.00    +0.000 A 
ATOM     12  C   UNL     1      -2.967  41.372  14.456  0.00  0.00    +0.000 A 
ATOM     13  C   UNL     1      -1.795  41.684  15.141  0.00  0.00    +0.000 A 
ATOM     14  C   UNL     1      -1.609  42.945  15.723  0.00  0.00    +0.000 A 
ATOM     15  C   UNL     1      -2.626  43.896  15.566  0.00  0.00    +0.000 A 
ATOM     16  C   UNL     1      -3.802  43.590  14.881  0.00  0.00    +0.000 A 
BRANCH  14  17
ATOM     17  N   UNL     1      -0.400  43.275  16.380  0.00  0.00    +0.000 N 
ATOM     18  C   UNL     1       0.775  42.414  16.159  0.00  0.00    +0.000 C 
ATOM     19  C   UNL     1       1.713  41.739  16.994  0.00  0.00    +0.000 C 
ATOM     20  N   UNL     1       1.533  41.884  18.404  0.00  0.00    +0.000 N 
ATOM     21  C   UNL     1       2.810  40.894  16.453  0.00  0.00    +0.000 C 
ATOM     22  C   UNL     1       0.441  42.682  18.858  0.00  0.00    +0.000 C 
ATOM     23  H   UNL     1       2.144  41.417  19.055  0.00  0.00    +0.000 HD
ATOM     24  C   UNL     1      -0.381  43.272  17.853  0.00  0.00    +0.000 C 
ATOM     25  C   UNL     1       0.168  42.839  20.311  0.00  0.00    +0.000 C 
ENDBRANCH  14  17
ENDBRANCH   3  11
BRANCH   8  26
ATOM     26  C   UNL     1      -9.364  40.488  10.188  0.00  0.00    +0.000 C 
ATOM     27  C   UNL     1     -10.826  40.162   9.869  0.00  0.00    +0.000 C 
BRANCH  27  28
ATOM     28  C   UNL     1     -12.186  39.865   9.566  0.00  0.00    +0.000 A 
ATOM     29  C   UNL     1     -12.523  39.352   8.316  0.00  0.00    +0.000 A 
ATOM     30  C   UNL     1     -13.854  39.055   8.015  0.00  0.00    +0.000 A 
ATOM     31  C   UNL     1     -14.839  39.272   8.980  0.00  0.00    +0.000 A 
ATOM     32  C   UNL     1     -14.507  39.790  10.233  0.00  0.00    +0.000 A 
ATOM     33  C   UNL     1     -13.173  40.084  10.522  0.00  0.00    +0.000 A 
BRANCH  30  34
ATOM     34  O   UNL     1     -14.295  38.540   6.821  0.00  0.00    +0.000 OA
ATOM     35  C   UNL     1     -15.480  37.799   6.887  0.00  0.00    +0.000 C 
ENDBRANCH  30  34
BRANCH  32  36
ATOM     36  O   UNL     1     -15.557  39.962  11.102  0.00  0.00    +0.000 OA
ATOM     37  C   UNL     1     -15.757  38.919  12.017  0.00  0.00    +0.000 C 
ENDBRANCH  32  36
ENDBRANCH  27  28
ENDBRANCH   8  26
TORSDOF 6
ENDMDL
MODEL 8
REMARK VINA RESULT:      -7.0     21.044     22.422
REMARK  Name = AZD4547.pdbqt.pdb
REMARK  6 active torsions:
REMARK  status: ('A' for Active; 'I' for Inactive)
REMARK    1  A    between atoms: C_3  and  C_23
REMARK    2  A    between atoms: C_8  and  C_11
REMARK    3  A    between atoms: C_12  and  C_13
REMARK    4  A    between atoms: C_15  and  O_19
REMARK    5  A    between atoms: C_17  and  O_21
REMARK    6  A    between atoms: C_26  and  N_29
REMARK                            x       y       z     vdW  Elec       q    Type
REMARK                         _______ _______ _______ _____ _____    ______ ____
ROOT
ATOM      1  O   UNL     1      -2.454  27.482  32.660  0.00  0.00    +0.000 OA
ATOM      2  N   UNL     1      -1.559  28.359  30.713  0.00  0.00    +0.000 N 
ATOM      3  C   UNL     1      -2.193  28.434  31.932  0.00  0.00    +0.000 C 
ATOM      4  H   UNL     1      -1.368  29.171  30.146  0.00  0.00    +0.000 HD
ATOM      5  C   UNL     1      -1.120  27.191  30.136  0.00  0.00    +0.000 A 
ATOM      6  N   UNL     1      -0.518  27.248  28.943  0.00  0.00    +0.000 NA
ATOM      7  N   UNL     1      -0.222  25.962  28.675  0.00  0.00    +0.000 N 
ATOM      8  C   UNL     1      -0.610  25.095  29.652  0.00  0.00    +0.000 A 
ATOM      9  H   UNL     1       0.250  25.745  27.804  0.00  0.00    +0.000 HD
ATOM     10  C   UNL     1      -1.203  25.863  30.623  0.00  0.00    +0.000 A 
ENDROOT
BRANCH   3  11
ATOM     11  C   UNL     1      -2.585  29.795  32.377  0.00  0.00    +0.000 A 
ATOM     12  C   UNL     1      -1.578  30.706  32.697  0.00  0.00    +0.000 A 
ATOM     13  C   UNL     1      -1.908  31.992  33.119  0.00  0.00    +0.000 A 
ATOM     14  C   UNL     1      -3.244  32.394  33.245  0.00  0.00    +0.000 A 
ATOM     15  C   UNL     1      -4.242  31.471  32.902  0.00  0.00    +0.000 A 
ATOM     16  C   UNL     1      -3.919  30.182  32.479  0.00  0.00    +0.000 A 
BRANCH  14  17
ATOM     17  N   UNL     1      -3.577  33.714  33.631  0.00  0.00    +0.000 N 
ATOM     18  C   UNL     1      -2.697  34.407  34.588  0.00  0.00    +0.000 C 
ATOM     19  C   UNL     1      -2.883  35.108  35.816  0.00  0.00    +0.000 C 
ATOM     20  N   UNL     1      -4.223  35.201  36.302  0.00  0.00    +0.000 N 
ATOM     21  C   UNL     1      -1.754  35.690  36.588  0.00  0.00    +0.000 C 
ATOM     22  C   UNL     1      -5.257  34.592  35.530  0.00  0.00    +0.000 C 
ATOM     23  H   UNL     1      -4.427  35.662  37.175  0.00  0.00    +0.000 HD
ATOM     24  C   UNL     1      -4.855  33.939  34.327  0.00  0.00    +0.000 C 
ATOM     25  C   UNL     1      -6.667  34.613  35.998  0.00  0.00    +0.000 C 
ENDBRANCH  14  17
ENDBRANCH   3  11
BRANCH   8  26
ATOM     26  C   UNL     1      -0.418  23.693  29.625  0.00  0.00    +0.000 C 
ATOM     27  C   UNL     1      -0.206  22.175  29.595  0.00  0.00    +0.000 C 
BRANCH  27  28
ATOM     28  C   UNL     1       0.000  20.766  29.567  0.00  0.00    +0.000 A 
ATOM     29  C   UNL     1      -1.070  19.903  29.784  0.00  0.00    +0.000 A 
ATOM     30  C   UNL     1      -0.875  18.521  29.754  0.00  0.00    +0.000 A 
ATOM     31  C   UNL     1       0.402  18.015  29.498  0.00  0.00    +0.000 A 
ATOM     32  C   UNL     1       1.479  18.876  29.285  0.00  0.00    +0.000 A 
ATOM     33  C   UNL     1       1.271  20.257  29.319  0.00  0.00    +0.000 A 
BRANCH  30  34
ATOM     34  O   UNL     1      -1.858  17.582  29.946  0.00  0.00    +0.000 OA
ATOM     35  C   UNL     1      -1.867  16.524  29.029  0.00  0.00    +0.000 C 
ENDBRANCH  30  34
BRANCH  32  36
ATOM     36  O   UNL     1       2.686  18.268  29.043  0.00  0.00    +0.000 OA
ATOM     37  C   UNL     1       2.613  16.941  28.600  0.00  0.00    +0.000 C 
ENDBRANCH  32  36
ENDBRANCH  27  28
ENDBRANCH   8  26
TORSDOF 6
ENDMDL
MODEL 9
REMARK VINA RESULT:      -6.8     17.073     18.419
REMARK  Name = AZD4547.pdbqt.pdb
REMARK  6 active torsions:
REMARK  status: ('A' for Active; 'I' for Inactive)
REMARK    1  A    between atoms: C_3  and  C_23
REMARK    2  A    between atoms: C_8  and  C_11
REMARK    3  A    between atoms: C_12  and  C_13
REMARK    4  A    between atoms: C_15  and  O_19
REMARK    5  A    between atoms: C_17  and  O_21
REMARK    6  A    between atoms: C_26  and  N_29
REMARK                            x       y       z     vdW  Elec       q    Type
REMARK                         _______ _______ _______ _____ _____    ______ ____
ROOT
ATOM      1  O   UNL     1     -18.243  36.259  26.158  0.00  0.00    +0.000 OA
ATOM      2  N   UNL     1     -16.003  36.828  26.018  0.00  0.00    +0.000 N 
ATOM      3  C   UNL     1     -17.307  37.005  26.423  0.00  0.00    +0.000 C 
ATOM      4  H   UNL     1     -15.265  37.473  26.259  0.00  0.00    +0.000 HD
ATOM      5  C   UNL     1     -15.563  35.773  25.255  0.00  0.00    +0.000 A 
ATOM      6  N   UNL     1     -14.269  35.713  24.924  0.00  0.00    +0.000 NA
ATOM      7  N   UNL     1     -14.179  34.586  24.195  0.00  0.00    +0.000 N 
ATOM      8  C   UNL     1     -15.364  33.928  24.054  0.00  0.00    +0.000 A 
ATOM      9  H   UNL     1     -13.273  34.320  23.823  0.00  0.00    +0.000 HD
ATOM     10  C   UNL     1     -16.292  34.677  24.733  0.00  0.00    +0.000 A 
ENDROOT
BRANCH   3  11
ATOM     11  C   UNL     1     -17.573  38.211  27.246  0.00  0.00    +0.000 A 
ATOM     12  C   UNL     1     -17.118  38.232  28.564  0.00  0.00    +0.000 A 
ATOM     13  C   UNL     1     -17.349  39.347  29.366  0.00  0.00    +0.000 A 
ATOM     14  C   UNL     1     -18.052  40.457  28.880  0.00  0.00    +0.000 A 
ATOM     15  C   UNL     1     -18.486  40.426  27.547  0.00  0.00    +0.000 A 
ATOM     16  C   UNL     1     -18.257  39.313  26.739  0.00  0.00    +0.000 A 
BRANCH  14  17
ATOM     17  N   UNL     1     -18.247  41.606  29.682  0.00  0.00    +0.000 N 
ATOM     18  C   UNL     1     -19.333  42.535  29.323  0.00  0.00    +0.000 C 
ATOM     19  C   UNL     1     -19.440  43.940  29.104  0.00  0.00    +0.000 C 
ATOM     20  N   UNL     1     -18.240  44.701  29.249  0.00  0.00    +0.000 N 
ATOM     21  C   UNL     1     -20.713  44.599  28.711  0.00  0.00    +0.000 C 
ATOM     22  C   UNL     1     -17.045  44.003  29.595  0.00  0.00    +0.000 C 
ATOM     23  H   UNL     1     -18.235  45.696  29.087  0.00  0.00    +0.000 HD
ATOM     24  C   UNL     1     -17.157  42.592  29.770  0.00  0.00    +0.000 C 
ATOM     25  C   UNL     1     -15.751  44.726  29.718  0.00  0.00    +0.000 C 
ENDBRANCH  14  17
ENDBRANCH   3  11
BRANCH   8  26
ATOM     26  C   UNL     1     -15.549  32.719  23.341  0.00  0.00    +0.000 C 
ATOM     27  C   UNL     1     -15.746  31.412  22.567  0.00  0.00    +0.000 C 
BRANCH  27  28
ATOM     28  C   UNL     1     -15.921  30.197  21.842  0.00  0.00    +0.000 A 
ATOM     29  C   UNL     1     -16.691  29.172  22.383  0.00  0.00    +0.000 A 
ATOM     30  C   UNL     1     -16.871  27.981  21.675  0.00  0.00    +0.000 A 
ATOM     31  C   UNL     1     -16.274  27.834  20.421  0.00  0.00    +0.000 A 
ATOM     32  C   UNL     1     -15.497  28.857  19.877  0.00  0.00    +0.000 A 
ATOM     33  C   UNL     1     -15.325  30.043  20.595  0.00  0.00    +0.000 A 
BRANCH  30  34
ATOM     34  O   UNL     1     -17.614  26.911  22.109  0.00  0.00    +0.000 OA
ATOM     35  C   UNL     1     -17.464  25.734  21.366  0.00  0.00    +0.000 C 
ENDBRANCH  30  34
BRANCH  32  36
ATOM     36  O   UNL     1     -14.961  28.602  18.639  0.00  0.00    +0.000 OA
ATOM     37  C   UNL     1     -15.835  28.775  17.557  0.00  0.00    +0.000 C 
ENDBRANCH  32  36
ENDBRANCH  27  28
ENDBRANCH   8  26
TORSDOF 6
ENDMDL
