MODEL 1
REMARK VINA RESULT:      -8.8      0.000      0.000
REMARK  Name = Belinostat.pdbqt.pdb
REMARK  6 active torsions:
REMARK  status: ('A' for Active; 'I' for Inactive)
REMARK    1  A    between atoms: C_1  and  S_7
REMARK    2  A    between atoms: C_3  and  C_18
REMARK    3  A    between atoms: S_7  and  N_10
REMARK    4  A    between atoms: N_10  and  C_12
REMARK    5  A    between atoms: C_19  and  C_20
REMARK    6  A    between atoms: N_22  and  O_24
REMARK                            x       y       z     vdW  Elec       q    Type
REMARK                         _______ _______ _______ _____ _____    ______ ____
ROOT
ATOM      1  C   UNL     1       3.157  30.266  15.424  0.00  0.00    +0.000 A 
ATOM      2  C   UNL     1       4.511  29.950  15.421  0.00  0.00    +0.000 A 
ATOM      3  C   UNL     1       4.908  28.684  15.002  0.00  0.00    +0.000 A 
ATOM      4  C   UNL     1       2.198  29.356  14.990  0.00  0.00    +0.000 A 
ATOM      5  C   UNL     1       3.958  27.755  14.579  0.00  0.00    +0.000 A 
ATOM      6  C   UNL     1       2.604  28.093  14.571  0.00  0.00    +0.000 A 
ENDROOT
BRANCH   1   7
ATOM      7  S   UNL     1       2.648  31.874  15.912  0.00  0.00    +0.000 S 
ATOM      8  O   UNL     1       2.520  32.663  14.705  0.00  0.00    +0.000 OA
ATOM      9  O   UNL     1       3.497  32.306  17.001  0.00  0.00    +0.000 OA
BRANCH   7  10
ATOM     10  N   UNL     1       1.094  31.631  16.486  0.00  0.00    +0.000 N 
ATOM     11  H   UNL     1       1.045  31.339  17.461  0.00  0.00    +0.000 HD
BRANCH  10  12
ATOM     12  C   UNL     1      -0.065  32.165  15.855  0.00  0.00    +0.000 A 
ATOM     13  C   UNL     1      -0.475  33.486  16.022  0.00  0.00    +0.000 A 
ATOM     14  C   UNL     1      -1.569  33.980  15.316  0.00  0.00    +0.000 A 
ATOM     15  C   UNL     1      -2.244  33.159  14.417  0.00  0.00    +0.000 A 
ATOM     16  C   UNL     1      -1.817  31.848  14.218  0.00  0.00    +0.000 A 
ATOM     17  C   UNL     1      -0.723  31.358  14.926  0.00  0.00    +0.000 A 
ENDBRANCH  10  12
ENDBRANCH   7  10
ENDBRANCH   1   7
BRANCH   3  18
ATOM     18  C   UNL     1       6.292  28.337  15.006  0.00  0.00    +0.000 C 
ATOM     19  C   UNL     1       7.457  28.045  15.006  0.00  0.00    +0.000 C 
BRANCH  19  20
ATOM     20  C   UNL     1       8.855  27.694  15.006  0.00  0.00    +0.000 C 
ATOM     21  O   UNL     1       9.668  28.377  15.618  0.00  0.00    +0.000 OA
ATOM     22  N   UNL     1       9.190  26.572  14.300  0.00  0.00    +0.000 N 
ATOM     23  H   UNL     1       8.524  25.965  13.837  0.00  0.00    +0.000 HD
BRANCH  22  24
ATOM     24  O   UNL     1      10.544  26.170  14.317  0.00  0.00    +0.000 OA
ATOM     25  H   UNL     1      10.652  25.740  13.441  0.00  0.00    +0.000 HD
ENDBRANCH  22  24
ENDBRANCH  19  20
ENDBRANCH   3  18
TORSDOF 6
ENDMDL
MODEL 2
REMARK VINA RESULT:      -7.9      2.618      8.786
REMARK  Name = Belinostat.pdbqt.pdb
REMARK  6 active torsions:
REMARK  status: ('A' for Active; 'I' for Inactive)
REMARK    1  A    between atoms: C_1  and  S_7
REMARK    2  A    between atoms: C_3  and  C_18
REMARK    3  A    between atoms: S_7  and  N_10
REMARK    4  A    between atoms: N_10  and  C_12
REMARK    5  A    between atoms: C_19  and  C_20
REMARK    6  A    between atoms: N_22  and  O_24
REMARK                            x       y       z     vdW  Elec       q    Type
REMARK                         _______ _______ _______ _____ _____    ______ ____
ROOT
ATOM      1  C   UNL     1       4.788  30.429  15.498  0.00  0.00    +0.000 A 
ATOM      2  C   UNL     1       3.681  31.269  15.513  0.00  0.00    +0.000 A 
ATOM      3  C   UNL     1       2.408  30.710  15.467  0.00  0.00    +0.000 A 
ATOM      4  C   UNL     1       4.649  29.045  15.470  0.00  0.00    +0.000 A 
ATOM      5  C   UNL     1       2.251  29.325  15.423  0.00  0.00    +0.000 A 
ATOM      6  C   UNL     1       3.372  28.493  15.426  0.00  0.00    +0.000 A 
ENDROOT
BRANCH   1   7
ATOM      7  S   UNL     1       6.398  31.122  15.596  0.00  0.00    +0.000 S 
ATOM      8  O   UNL     1       6.308  32.284  16.454  0.00  0.00    +0.000 OA
ATOM      9  O   UNL     1       6.930  31.223  14.255  0.00  0.00    +0.000 OA
BRANCH   7  10
ATOM     10  N   UNL     1       7.266  29.970  16.448  0.00  0.00    +0.000 N 
ATOM     11  H   UNL     1       6.828  29.669  17.318  0.00  0.00    +0.000 HD
BRANCH  10  12
ATOM     12  C   UNL     1       8.285  29.169  15.862  0.00  0.00    +0.000 A 
ATOM     13  C   UNL     1       8.010  28.037  15.098  0.00  0.00    +0.000 A 
ATOM     14  C   UNL     1       9.041  27.335  14.479  0.00  0.00    +0.000 A 
ATOM     15  C   UNL     1      10.354  27.780  14.600  0.00  0.00    +0.000 A 
ATOM     16  C   UNL     1      10.633  28.931  15.331  0.00  0.00    +0.000 A 
ATOM     17  C   UNL     1       9.599  29.630  15.949  0.00  0.00    +0.000 A 
ENDBRANCH  10  12
ENDBRANCH   7  10
ENDBRANCH   1   7
BRANCH   3  18
ATOM     18  C   UNL     1       1.260  31.558  15.467  0.00  0.00    +0.000 C 
ATOM     19  C   UNL     1       0.292  32.269  15.468  0.00  0.00    +0.000 C 
BRANCH  19  20
ATOM     20  C   UNL     1      -0.870  33.122  15.469  0.00  0.00    +0.000 C 
ATOM     21  O   UNL     1      -1.303  33.581  16.519  0.00  0.00    +0.000 OA
ATOM     22  N   UNL     1      -1.427  33.376  14.247  0.00  0.00    +0.000 N 
ATOM     23  H   UNL     1      -1.048  33.051  13.365  0.00  0.00    +0.000 HD
BRANCH  22  24
ATOM     24  O   UNL     1      -2.538  34.246  14.203  0.00  0.00    +0.000 OA
ATOM     25  H   UNL     1      -2.129  35.126  14.354  0.00  0.00    +0.000 HD
ENDBRANCH  22  24
ENDBRANCH  19  20
ENDBRANCH   3  18
TORSDOF 6
ENDMDL
MODEL 3
REMARK VINA RESULT:      -7.1      5.799      7.817
REMARK  Name = Belinostat.pdbqt.pdb
REMARK  6 active torsions:
REMARK  status: ('A' for Active; 'I' for Inactive)
REMARK    1  A    between atoms: C_1  and  S_7
REMARK    2  A    between atoms: C_3  and  C_18
REMARK    3  A    between atoms: S_7  and  N_10
REMARK    4  A    between atoms: N_10  and  C_12
REMARK    5  A    between atoms: C_19  and  C_20
REMARK    6  A    between atoms: N_22  and  O_24
REMARK                            x       y       z     vdW  Elec       q    Type
REMARK                         _______ _______ _______ _____ _____    ______ ____
ROOT
ATOM      1  C   UNL     1       7.083  32.705  16.027  0.00  0.00    +0.000 A 
ATOM      2  C   UNL     1       7.376  34.028  16.337  0.00  0.00    +0.000 A 
ATOM      3  C   UNL     1       8.664  34.504  16.113  0.00  0.00    +0.000 A 
ATOM      4  C   UNL     1       8.038  31.859  15.473  0.00  0.00    +0.000 A 
ATOM      5  C   UNL     1       9.638  33.665  15.572  0.00  0.00    +0.000 A 
ATOM      6  C   UNL     1       9.324  32.344  15.251  0.00  0.00    +0.000 A 
ENDROOT
BRANCH   1   7
ATOM      7  S   UNL     1       5.450  32.105  16.267  0.00  0.00    +0.000 S 
ATOM      8  O   UNL     1       4.738  32.304  15.024  0.00  0.00    +0.000 OA
ATOM      9  O   UNL     1       4.948  32.645  17.512  0.00  0.00    +0.000 OA
BRANCH   7  10
ATOM     10  N   UNL     1       5.664  30.451  16.431  0.00  0.00    +0.000 N 
ATOM     11  H   UNL     1       6.204  30.174  17.249  0.00  0.00    +0.000 HD
BRANCH  10  12
ATOM     12  C   UNL     1       4.852  29.489  15.768  0.00  0.00    +0.000 A 
ATOM     13  C   UNL     1       3.508  29.291  16.080  0.00  0.00    +0.000 A 
ATOM     14  C   UNL     1       2.737  28.394  15.345  0.00  0.00    +0.000 A 
ATOM     15  C   UNL     1       3.302  27.709  14.273  0.00  0.00    +0.000 A 
ATOM     16  C   UNL     1       4.634  27.929  13.933  0.00  0.00    +0.000 A 
ATOM     17  C   UNL     1       5.402  28.826  14.671  0.00  0.00    +0.000 A 
ENDBRANCH  10  12
ENDBRANCH   7  10
ENDBRANCH   1   7
BRANCH   3  18
ATOM     18  C   UNL     1       8.987  35.855  16.438  0.00  0.00    +0.000 C 
ATOM     19  C   UNL     1       9.260  36.991  16.715  0.00  0.00    +0.000 C 
BRANCH  19  20
ATOM     20  C   UNL     1       9.588  38.355  17.048  0.00  0.00    +0.000 C 
ATOM     21  O   UNL     1       9.817  39.173  16.164  0.00  0.00    +0.000 OA
ATOM     22  N   UNL     1       9.613  38.656  18.381  0.00  0.00    +0.000 N 
ATOM     23  H   UNL     1       9.370  38.007  19.121  0.00  0.00    +0.000 HD
BRANCH  22  24
ATOM     24  O   UNL     1       9.883  39.994  18.743  0.00  0.00    +0.000 OA
ATOM     25  H   UNL     1      10.828  40.098  18.498  0.00  0.00    +0.000 HD
ENDBRANCH  22  24
ENDBRANCH  19  20
ENDBRANCH   3  18
TORSDOF 6
ENDMDL
MODEL 4
REMARK VINA RESULT:      -7.1      4.252      8.091
REMARK  Name = Belinostat.pdbqt.pdb
REMARK  6 active torsions:
REMARK  status: ('A' for Active; 'I' for Inactive)
REMARK    1  A    between atoms: C_1  and  S_7
REMARK    2  A    between atoms: C_3  and  C_18
REMARK    3  A    between atoms: S_7  and  N_10
REMARK    4  A    between atoms: N_10  and  C_12
REMARK    5  A    between atoms: C_19  and  C_20
REMARK    6  A    between atoms: N_22  and  O_24
REMARK                            x       y       z     vdW  Elec       q    Type
REMARK                         _______ _______ _______ _____ _____    ______ ____
ROOT
ATOM      1  C   UNL     1       6.318  30.310  15.442  0.00  0.00    +0.000 A 
ATOM      2  C   UNL     1       5.214  31.118  15.688  0.00  0.00    +0.000 A 
ATOM      3  C   UNL     1       3.940  30.572  15.575  0.00  0.00    +0.000 A 
ATOM      4  C   UNL     1       6.177  28.965  15.116  0.00  0.00    +0.000 A 
ATOM      5  C   UNL     1       3.780  29.229  15.233  0.00  0.00    +0.000 A 
ATOM      6  C   UNL     1       4.898  28.427  15.006  0.00  0.00    +0.000 A 
ENDROOT
BRANCH   1   7
ATOM      7  S   UNL     1       7.932  30.979  15.621  0.00  0.00    +0.000 S 
ATOM      8  O   UNL     1       8.322  31.499  14.328  0.00  0.00    +0.000 OA
ATOM      9  O   UNL     1       8.750  30.006  16.313  0.00  0.00    +0.000 OA
BRANCH   7  10
ATOM     10  N   UNL     1       7.695  32.306  16.614  0.00  0.00    +0.000 N 
ATOM     11  H   UNL     1       7.419  32.076  17.568  0.00  0.00    +0.000 HD
BRANCH  10  12
ATOM     12  C   UNL     1       8.214  33.600  16.327  0.00  0.00    +0.000 A 
ATOM     13  C   UNL     1       7.435  34.754  16.378  0.00  0.00    +0.000 A 
ATOM     14  C   UNL     1       8.011  36.005  16.168  0.00  0.00    +0.000 A 
ATOM     15  C   UNL     1       9.379  36.108  15.933  0.00  0.00    +0.000 A 
ATOM     16  C   UNL     1      10.169  34.962  15.916  0.00  0.00    +0.000 A 
ATOM     17  C   UNL     1       9.589  33.714  16.126  0.00  0.00    +0.000 A 
ENDBRANCH  10  12
ENDBRANCH   7  10
ENDBRANCH   1   7
BRANCH   3  18
ATOM     18  C   UNL     1       2.794  31.389  15.809  0.00  0.00    +0.000 C 
ATOM     19  C   UNL     1       1.828  32.075  16.006  0.00  0.00    +0.000 C 
BRANCH  19  20
ATOM     20  C   UNL     1       0.668  32.898  16.242  0.00  0.00    +0.000 C 
ATOM     21  O   UNL     1       0.793  34.049  16.643  0.00  0.00    +0.000 OA
ATOM     22  N   UNL     1      -0.541  32.315  15.982  0.00  0.00    +0.000 N 
ATOM     23  H   UNL     1      -0.659  31.386  15.595  0.00  0.00    +0.000 HD
BRANCH  22  24
ATOM     24  O   UNL     1      -1.698  33.107  16.155  0.00  0.00    +0.000 OA
ATOM     25  H   UNL     1      -1.368  33.856  16.697  0.00  0.00    +0.000 HD
ENDBRANCH  22  24
ENDBRANCH  19  20
ENDBRANCH   3  18
TORSDOF 6
ENDMDL
MODEL 5
REMARK VINA RESULT:      -7.0      3.010      8.928
REMARK  Name = Belinostat.pdbqt.pdb
REMARK  6 active torsions:
REMARK  status: ('A' for Active; 'I' for Inactive)
REMARK    1  A    between atoms: C_1  and  S_7
REMARK    2  A    between atoms: C_3  and  C_18
REMARK    3  A    between atoms: S_7  and  N_10
REMARK    4  A    between atoms: N_10  and  C_12
REMARK    5  A    between atoms: C_19  and  C_20
REMARK    6  A    between atoms: N_22  and  O_24
REMARK                            x       y       z     vdW  Elec       q    Type
REMARK                         _______ _______ _______ _____ _____    ______ ____
ROOT
ATOM      1  C   UNL     1       6.314  30.426  15.427  0.00  0.00    +0.000 A 
ATOM      2  C   UNL     1       5.040  30.860  15.774  0.00  0.00    +0.000 A 
ATOM      3  C   UNL     1       3.962  29.998  15.597  0.00  0.00    +0.000 A 
ATOM      4  C   UNL     1       6.537  29.144  14.936  0.00  0.00    +0.000 A 
ATOM      5  C   UNL     1       4.166  28.714  15.091  0.00  0.00    +0.000 A 
ATOM      6  C   UNL     1       5.454  28.288  14.763  0.00  0.00    +0.000 A 
ENDROOT
BRANCH   1   7
ATOM      7  S   UNL     1       7.687  31.491  15.685  0.00  0.00    +0.000 S 
ATOM      8  O   UNL     1       7.181  32.691  16.315  0.00  0.00    +0.000 OA
ATOM      9  O   UNL     1       8.446  31.556  14.455  0.00  0.00    +0.000 OA
BRANCH   7  10
ATOM     10  N   UNL     1       8.588  30.689  16.847  0.00  0.00    +0.000 N 
ATOM     11  H   UNL     1       8.058  30.404  17.670  0.00  0.00    +0.000 HD
BRANCH  10  12
ATOM     12  C   UNL     1       9.847  30.082  16.579  0.00  0.00    +0.000 A 
ATOM     13  C   UNL     1      11.050  30.783  16.633  0.00  0.00    +0.000 A 
ATOM     14  C   UNL     1      12.261  30.122  16.443  0.00  0.00    +0.000 A 
ATOM     15  C   UNL     1      12.275  28.748  16.223  0.00  0.00    +0.000 A 
ATOM     16  C   UNL     1      11.079  28.035  16.203  0.00  0.00    +0.000 A 
ATOM     17  C   UNL     1       9.871  28.699  16.394  0.00  0.00    +0.000 A 
ENDBRANCH  10  12
ENDBRANCH   7  10
ENDBRANCH   1   7
BRANCH   3  18
ATOM     18  C   UNL     1       2.645  30.431  15.934  0.00  0.00    +0.000 C 
ATOM     19  C   UNL     1       1.537  30.797  16.216  0.00  0.00    +0.000 C 
BRANCH  19  20
ATOM     20  C   UNL     1       0.206  31.237  16.553  0.00  0.00    +0.000 C 
ATOM     21  O   UNL     1      -0.469  30.613  17.364  0.00  0.00    +0.000 OA
ATOM     22  N   UNL     1      -0.225  32.373  15.926  0.00  0.00    +0.000 N 
ATOM     23  H   UNL     1       0.340  32.932  15.298  0.00  0.00    +0.000 HD
BRANCH  22  24
ATOM     24  O   UNL     1      -1.506  32.861  16.268  0.00  0.00    +0.000 OA
ATOM     25  H   UNL     1      -1.422  33.824  16.094  0.00  0.00    +0.000 HD
ENDBRANCH  22  24
ENDBRANCH  19  20
ENDBRANCH   3  18
TORSDOF 6
ENDMDL
MODEL 6
REMARK VINA RESULT:      -6.9      3.635      5.369
REMARK  Name = Belinostat.pdbqt.pdb
REMARK  6 active torsions:
REMARK  status: ('A' for Active; 'I' for Inactive)
REMARK    1  A    between atoms: C_1  and  S_7
REMARK    2  A    between atoms: C_3  and  C_18
REMARK    3  A    between atoms: S_7  and  N_10
REMARK    4  A    between atoms: N_10  and  C_12
REMARK    5  A    between atoms: C_19  and  C_20
REMARK    6  A    between atoms: N_22  and  O_24
REMARK                            x       y       z     vdW  Elec       q    Type
REMARK                         _______ _______ _______ _____ _____    ______ ____
ROOT
ATOM      1  C   UNL     1       5.695  28.916  15.135  0.00  0.00    +0.000 A 
ATOM      2  C   UNL     1       5.838  30.250  15.500  0.00  0.00    +0.000 A 
ATOM      3  C   UNL     1       7.113  30.750  15.744  0.00  0.00    +0.000 A 
ATOM      4  C   UNL     1       6.798  28.083  14.980  0.00  0.00    +0.000 A 
ATOM      5  C   UNL     1       8.228  29.924  15.609  0.00  0.00    +0.000 A 
ATOM      6  C   UNL     1       8.070  28.592  15.225  0.00  0.00    +0.000 A 
ENDROOT
BRANCH   1   7
ATOM      7  S   UNL     1       4.094  28.285  14.785  0.00  0.00    +0.000 S 
ATOM      8  O   UNL     1       4.163  26.847  14.935  0.00  0.00    +0.000 OA
ATOM      9  O   UNL     1       3.630  28.887  13.555  0.00  0.00    +0.000 OA
BRANCH   7  10
ATOM     10  N   UNL     1       3.167  28.850  16.060  0.00  0.00    +0.000 N 
ATOM     11  H   UNL     1       3.530  28.617  16.983  0.00  0.00    +0.000 HD
BRANCH  10  12
ATOM     12  C   UNL     1       2.209  29.895  15.927  0.00  0.00    +0.000 A 
ATOM     13  C   UNL     1       0.890  29.665  15.542  0.00  0.00    +0.000 A 
ATOM     14  C   UNL     1      -0.028  30.712  15.507  0.00  0.00    +0.000 A 
ATOM     15  C   UNL     1       0.365  31.992  15.885  0.00  0.00    +0.000 A 
ATOM     16  C   UNL     1       1.672  32.222  16.305  0.00  0.00    +0.000 A 
ATOM     17  C   UNL     1       2.587  31.173  16.338  0.00  0.00    +0.000 A 
ENDBRANCH  10  12
ENDBRANCH   7  10
ENDBRANCH   1   7
BRANCH   3  18
ATOM     18  C   UNL     1       7.278  32.113  16.134  0.00  0.00    +0.000 C 
ATOM     19  C   UNL     1       7.413  33.260  16.462  0.00  0.00    +0.000 C 
BRANCH  19  20
ATOM     20  C   UNL     1       7.575  34.637  16.857  0.00  0.00    +0.000 C 
ATOM     21  O   UNL     1       7.651  35.521  16.012  0.00  0.00    +0.000 OA
ATOM     22  N   UNL     1       7.628  34.871  18.203  0.00  0.00    +0.000 N 
ATOM     23  H   UNL     1       7.509  34.159  18.914  0.00  0.00    +0.000 HD
BRANCH  22  24
ATOM     24  O   UNL     1       7.737  36.213  18.628  0.00  0.00    +0.000 OA
ATOM     25  H   UNL     1       7.750  36.129  19.607  0.00  0.00    +0.000 HD
ENDBRANCH  22  24
ENDBRANCH  19  20
ENDBRANCH   3  18
TORSDOF 6
ENDMDL
MODEL 7
REMARK VINA RESULT:      -6.8      2.096      2.629
REMARK  Name = Belinostat.pdbqt.pdb
REMARK  6 active torsions:
REMARK  status: ('A' for Active; 'I' for Inactive)
REMARK    1  A    between atoms: C_1  and  S_7
REMARK    2  A    between atoms: C_3  and  C_18
REMARK    3  A    between atoms: S_7  and  N_10
REMARK    4  A    between atoms: N_10  and  C_12
REMARK    5  A    between atoms: C_19  and  C_20
REMARK    6  A    between atoms: N_22  and  O_24
REMARK                            x       y       z     vdW  Elec       q    Type
REMARK                         _______ _______ _______ _____ _____    ______ ____
ROOT
ATOM      1  C   UNL     1       5.131  30.104  15.526  0.00  0.00    +0.000 A 
ATOM      2  C   UNL     1       6.449  30.211  15.955  0.00  0.00    +0.000 A 
ATOM      3  C   UNL     1       7.329  29.164  15.700  0.00  0.00    +0.000 A 
ATOM      4  C   UNL     1       4.683  28.990  14.823  0.00  0.00    +0.000 A 
ATOM      5  C   UNL     1       6.893  28.033  15.010  0.00  0.00    +0.000 A 
ATOM      6  C   UNL     1       5.571  27.947  14.571  0.00  0.00    +0.000 A 
ENDROOT
BRANCH   1   7
ATOM      7  S   UNL     1       4.022  31.436  15.806  0.00  0.00    +0.000 S 
ATOM      8  O   UNL     1       4.387  32.493  14.887  0.00  0.00    +0.000 OA
ATOM      9  O   UNL     1       3.954  31.675  17.231  0.00  0.00    +0.000 OA
BRANCH   7  10
ATOM     10  N   UNL     1       2.551  30.835  15.276  0.00  0.00    +0.000 N 
ATOM     11  H   UNL     1       2.544  29.832  15.100  0.00  0.00    +0.000 HD
BRANCH  10  12
ATOM     12  C   UNL     1       1.319  31.527  15.443  0.00  0.00    +0.000 A 
ATOM     13  C   UNL     1       0.914  32.561  14.601  0.00  0.00    +0.000 A 
ATOM     14  C   UNL     1      -0.339  33.150  14.758  0.00  0.00    +0.000 A 
ATOM     15  C   UNL     1      -1.205  32.686  15.744  0.00  0.00    +0.000 A 
ATOM     16  C   UNL     1      -0.822  31.629  16.565  0.00  0.00    +0.000 A 
ATOM     17  C   UNL     1       0.432  31.044  16.405  0.00  0.00    +0.000 A 
ENDBRANCH  10  12
ENDBRANCH   7  10
ENDBRANCH   1   7
BRANCH   3  18
ATOM     18  C   UNL     1       8.681  29.250  16.146  0.00  0.00    +0.000 C 
ATOM     19  C   UNL     1       9.821  29.322  16.518  0.00  0.00    +0.000 C 
BRANCH  19  20
ATOM     20  C   UNL     1      11.189  29.408  16.964  0.00  0.00    +0.000 C 
ATOM     21  O   UNL     1      11.454  29.852  18.075  0.00  0.00    +0.000 OA
ATOM     22  N   UNL     1      12.135  28.963  16.083  0.00  0.00    +0.000 N 
ATOM     23  H   UNL     1      11.929  28.540  15.185  0.00  0.00    +0.000 HD
BRANCH  22  24
ATOM     24  O   UNL     1      13.483  28.987  16.504  0.00  0.00    +0.000 OA
ATOM     25  H   UNL     1      13.424  29.402  17.392  0.00  0.00    +0.000 HD
ENDBRANCH  22  24
ENDBRANCH  19  20
ENDBRANCH   3  18
TORSDOF 6
ENDMDL
MODEL 8
REMARK VINA RESULT:      -6.7      5.121      7.722
REMARK  Name = Belinostat.pdbqt.pdb
REMARK  6 active torsions:
REMARK  status: ('A' for Active; 'I' for Inactive)
REMARK    1  A    between atoms: C_1  and  S_7
REMARK    2  A    between atoms: C_3  and  C_18
REMARK    3  A    between atoms: S_7  and  N_10
REMARK    4  A    between atoms: N_10  and  C_12
REMARK    5  A    between atoms: C_19  and  C_20
REMARK    6  A    between atoms: N_22  and  O_24
REMARK                            x       y       z     vdW  Elec       q    Type
REMARK                         _______ _______ _______ _____ _____    ______ ____
ROOT
ATOM      1  C   UNL     1       8.524  30.928  16.101  0.00  0.00    +0.000 A 
ATOM      2  C   UNL     1       8.321  32.257  15.747  0.00  0.00    +0.000 A 
ATOM      3  C   UNL     1       9.036  33.249  16.410  0.00  0.00    +0.000 A 
ATOM      4  C   UNL     1       9.445  30.569  17.080  0.00  0.00    +0.000 A 
ATOM      5  C   UNL     1       9.952  32.908  17.405  0.00  0.00    +0.000 A 
ATOM      6  C   UNL     1      10.157  31.568  17.738  0.00  0.00    +0.000 A 
ENDROOT
BRANCH   1   7
ATOM      7  S   UNL     1       7.657  29.665  15.243  0.00  0.00    +0.000 S 
ATOM      8  O   UNL     1       8.386  28.432  15.453  0.00  0.00    +0.000 OA
ATOM      9  O   UNL     1       7.366  30.143  13.909  0.00  0.00    +0.000 OA
BRANCH   7  10
ATOM     10  N   UNL     1       6.227  29.522  16.103  0.00  0.00    +0.000 N 
ATOM     11  H   UNL     1       6.211  30.035  16.983  0.00  0.00    +0.000 HD
BRANCH  10  12
ATOM     12  C   UNL     1       5.002  29.096  15.517  0.00  0.00    +0.000 A 
ATOM     13  C   UNL     1       4.924  28.029  14.624  0.00  0.00    +0.000 A 
ATOM     14  C   UNL     1       3.689  27.600  14.144  0.00  0.00    +0.000 A 
ATOM     15  C   UNL     1       2.521  28.222  14.577  0.00  0.00    +0.000 A 
ATOM     16  C   UNL     1       2.590  29.265  15.496  0.00  0.00    +0.000 A 
ATOM     17  C   UNL     1       3.826  29.691  15.973  0.00  0.00    +0.000 A 
ENDBRANCH  10  12
ENDBRANCH   7  10
ENDBRANCH   1   7
BRANCH   3  18
ATOM     18  C   UNL     1       8.831  34.619  16.070  0.00  0.00    +0.000 C 
ATOM     19  C   UNL     1       8.655  35.772  15.782  0.00  0.00    +0.000 C 
BRANCH  19  20
ATOM     20  C   UNL     1       8.444  37.155  15.435  0.00  0.00    +0.000 C 
ATOM     21  O   UNL     1       8.591  37.536  14.280  0.00  0.00    +0.000 OA
ATOM     22  N   UNL     1       8.070  37.978  16.461  0.00  0.00    +0.000 N 
ATOM     23  H   UNL     1       7.888  37.668  17.408  0.00  0.00    +0.000 HD
BRANCH  22  24
ATOM     24  O   UNL     1       7.807  39.330  16.150  0.00  0.00    +0.000 OA
ATOM     25  H   UNL     1       6.826  39.360  16.129  0.00  0.00    +0.000 HD
ENDBRANCH  22  24
ENDBRANCH  19  20
ENDBRANCH   3  18
TORSDOF 6
ENDMDL
MODEL 9
REMARK VINA RESULT:      -6.5      8.963     12.721
REMARK  Name = Belinostat.pdbqt.pdb
REMARK  6 active torsions:
REMARK  status: ('A' for Active; 'I' for Inactive)
REMARK    1  A    between atoms: C_1  and  S_7
REMARK    2  A    between atoms: C_3  and  C_18
REMARK    3  A    between atoms: S_7  and  N_10
REMARK    4  A    between atoms: N_10  and  C_12
REMARK    5  A    between atoms: C_19  and  C_20
REMARK    6  A    between atoms: N_22  and  O_24
REMARK                            x       y       z     vdW  Elec       q    Type
REMARK                         _______ _______ _______ _____ _____    ______ ____
ROOT
ATOM      1  C   UNL     1       0.510  41.354  16.064  0.00  0.00    +0.000 A 
ATOM      2  C   UNL     1       0.266  39.997  16.244  0.00  0.00    +0.000 A 
ATOM      3  C   UNL     1      -0.723  39.382  15.484  0.00  0.00    +0.000 A 
ATOM      4  C   UNL     1      -0.191  42.099  15.122  0.00  0.00    +0.000 A 
ATOM      5  C   UNL     1      -1.446  40.118  14.545  0.00  0.00    +0.000 A 
ATOM      6  C   UNL     1      -1.178  41.476  14.364  0.00  0.00    +0.000 A 
ENDROOT
BRANCH   1   7
ATOM      7  S   UNL     1       1.784  42.131  16.990  0.00  0.00    +0.000 S 
ATOM      8  O   UNL     1       2.813  42.522  16.051  0.00  0.00    +0.000 OA
ATOM      9  O   UNL     1       2.090  41.294  18.130  0.00  0.00    +0.000 OA
BRANCH   7  10
ATOM     10  N   UNL     1       1.067  43.548  17.523  0.00  0.00    +0.000 N 
ATOM     11  H   UNL     1       0.093  43.659  17.244  0.00  0.00    +0.000 HD
BRANCH  10  12
ATOM     12  C   UNL     1       1.584  44.331  18.593  0.00  0.00    +0.000 A 
ATOM     13  C   UNL     1       2.513  45.351  18.401  0.00  0.00    +0.000 A 
ATOM     14  C   UNL     1       2.925  46.142  19.471  0.00  0.00    +0.000 A 
ATOM     15  C   UNL     1       2.386  45.932  20.737  0.00  0.00    +0.000 A 
ATOM     16  C   UNL     1       1.430  44.938  20.929  0.00  0.00    +0.000 A 
ATOM     17  C   UNL     1       1.022  44.150  19.857  0.00  0.00    +0.000 A 
ENDBRANCH  10  12
ENDBRANCH   7  10
ENDBRANCH   1   7
BRANCH   3  18
ATOM     18  C   UNL     1      -0.996  37.993  15.665  0.00  0.00    +0.000 C 
ATOM     19  C   UNL     1      -1.230  36.825  15.819  0.00  0.00    +0.000 C 
BRANCH  19  20
ATOM     20  C   UNL     1      -1.510  35.423  16.004  0.00  0.00    +0.000 C 
ATOM     21  O   UNL     1      -1.297  34.884  17.084  0.00  0.00    +0.000 OA
ATOM     22  N   UNL     1      -2.023  34.768  14.920  0.00  0.00    +0.000 N 
ATOM     23  H   UNL     1      -2.259  35.212  14.040  0.00  0.00    +0.000 HD
BRANCH  22  24
ATOM     24  O   UNL     1      -2.356  33.405  15.078  0.00  0.00    +0.000 OA
ATOM     25  H   UNL     1      -2.235  33.047  14.172  0.00  0.00    +0.000 HD
ENDBRANCH  22  24
ENDBRANCH  19  20
ENDBRANCH   3  18
TORSDOF 6
ENDMDL
