MODEL 1
REMARK VINA RESULT:     -11.2      0.000      0.000
REMARK  Name = Benzo[a]pyrene.pdbqt.pdb
REMARK  0 active torsions:
REMARK  status: ('A' for Active; 'I' for Inactive)
REMARK                            x       y       z     vdW  Elec       q    Type
REMARK                         _______ _______ _______ _____ _____    ______ ____
ROOT
ATOM      1  C   UNL     1       4.106  29.541  15.441  0.00  0.00    +0.000 A 
ATOM      2  C   UNL     1       2.828  30.104  15.652  0.00  0.00    +0.000 A 
ATOM      3  C   UNL     1       5.263  30.195  15.922  0.00  0.00    +0.000 A 
ATOM      4  C   UNL     1       4.212  28.318  14.745  0.00  0.00    +0.000 A 
ATOM      5  C   UNL     1       6.532  29.608  15.696  0.00  0.00    +0.000 A 
ATOM      6  C   UNL     1       2.699  31.324  16.345  0.00  0.00    +0.000 A 
ATOM      7  C   UNL     1       1.676  29.447  15.170  0.00  0.00    +0.000 A 
ATOM      8  C   UNL     1       6.617  28.382  14.996  0.00  0.00    +0.000 A 
ATOM      9  C   UNL     1       5.465  27.754  14.531  0.00  0.00    +0.000 A 
ATOM     10  C   UNL     1       5.098  31.410  16.608  0.00  0.00    +0.000 A 
ATOM     11  C   UNL     1       3.065  27.681  14.275  0.00  0.00    +0.000 A 
ATOM     12  C   UNL     1       3.838  31.969  16.818  0.00  0.00    +0.000 A 
ATOM     13  C   UNL     1       1.805  28.240  14.485  0.00  0.00    +0.000 A 
ATOM     14  C   UNL     1       1.433  31.873  16.548  0.00  0.00    +0.000 A 
ATOM     15  C   UNL     1       0.419  30.012  15.384  0.00  0.00    +0.000 A 
ATOM     16  C   UNL     1       7.729  30.195  16.141  0.00  0.00    +0.000 A 
ATOM     17  C   UNL     1       7.856  27.786  14.763  0.00  0.00    +0.000 A 
ATOM     18  C   UNL     1       0.298  31.219  16.070  0.00  0.00    +0.000 A 
ATOM     19  C   UNL     1       8.963  29.594  15.905  0.00  0.00    +0.000 A 
ATOM     20  C   UNL     1       9.027  28.389  15.216  0.00  0.00    +0.000 A 
ENDROOT
TORSDOF 0
ENDMDL
MODEL 2
REMARK VINA RESULT:     -11.1      0.970      5.580
REMARK  Name = Benzo[a]pyrene.pdbqt.pdb
REMARK  0 active torsions:
REMARK  status: ('A' for Active; 'I' for Inactive)
REMARK                            x       y       z     vdW  Elec       q    Type
REMARK                         _______ _______ _______ _____ _____    ______ ____
ROOT
ATOM      1  C   UNL     1       3.414  30.145  15.453  0.00  0.00    +0.000 A 
ATOM      2  C   UNL     1       4.756  29.708  15.405  0.00  0.00    +0.000 A 
ATOM      3  C   UNL     1       3.100  31.441  15.919  0.00  0.00    +0.000 A 
ATOM      4  C   UNL     1       2.391  29.269  15.031  0.00  0.00    +0.000 A 
ATOM      5  C   UNL     1       1.745  31.853  15.956  0.00  0.00    +0.000 A 
ATOM      6  C   UNL     1       5.793  30.567  15.822  0.00  0.00    +0.000 A 
ATOM      7  C   UNL     1       5.064  28.412  14.940  0.00  0.00    +0.000 A 
ATOM      8  C   UNL     1       0.735  30.960  15.528  0.00  0.00    +0.000 A 
ATOM      9  C   UNL     1       1.065  29.687  15.073  0.00  0.00    +0.000 A 
ATOM     10  C   UNL     1       4.159  32.271  16.327  0.00  0.00    +0.000 A 
ATOM     11  C   UNL     1       2.711  27.991  14.573  0.00  0.00    +0.000 A 
ATOM     12  C   UNL     1       5.485  31.844  16.281  0.00  0.00    +0.000 A 
ATOM     13  C   UNL     1       4.037  27.565  14.527  0.00  0.00    +0.000 A 
ATOM     14  C   UNL     1       7.116  30.127  15.771  0.00  0.00    +0.000 A 
ATOM     15  C   UNL     1       6.393  27.992  14.896  0.00  0.00    +0.000 A 
ATOM     16  C   UNL     1       1.351  33.125  16.405  0.00  0.00    +0.000 A 
ATOM     17  C   UNL     1      -0.605  31.344  15.557  0.00  0.00    +0.000 A 
ATOM     18  C   UNL     1       7.415  28.846  15.311  0.00  0.00    +0.000 A 
ATOM     19  C   UNL     1       0.011  33.502  16.431  0.00  0.00    +0.000 A 
ATOM     20  C   UNL     1      -0.968  32.611  16.007  0.00  0.00    +0.000 A 
ENDROOT
TORSDOF 0
ENDMDL
MODEL 3
REMARK VINA RESULT:     -11.0      1.151      6.337
REMARK  Name = Benzo[a]pyrene.pdbqt.pdb
REMARK  0 active torsions:
REMARK  status: ('A' for Active; 'I' for Inactive)
REMARK                            x       y       z     vdW  Elec       q    Type
REMARK                         _______ _______ _______ _____ _____    ______ ____
ROOT
ATOM      1  C   UNL     1       3.376  30.820  15.574  0.00  0.00    +0.000 A 
ATOM      2  C   UNL     1       4.407  29.886  15.329  0.00  0.00    +0.000 A 
ATOM      3  C   UNL     1       2.023  30.456  15.390  0.00  0.00    +0.000 A 
ATOM      4  C   UNL     1       3.715  32.120  16.004  0.00  0.00    +0.000 A 
ATOM      5  C   UNL     1       1.010  31.413  15.644  0.00  0.00    +0.000 A 
ATOM      6  C   UNL     1       4.091  28.582  14.899  0.00  0.00    +0.000 A 
ATOM      7  C   UNL     1       5.756  30.254  15.514  0.00  0.00    +0.000 A 
ATOM      8  C   UNL     1       1.371  32.710  16.074  0.00  0.00    +0.000 A 
ATOM      9  C   UNL     1       2.710  33.049  16.248  0.00  0.00    +0.000 A 
ATOM     10  C   UNL     1       1.744  29.147  14.961  0.00  0.00    +0.000 A 
ATOM     11  C   UNL     1       5.053  32.470  16.182  0.00  0.00    +0.000 A 
ATOM     12  C   UNL     1       2.758  28.222  14.718  0.00  0.00    +0.000 A 
ATOM     13  C   UNL     1       6.068  31.545  15.939  0.00  0.00    +0.000 A 
ATOM     14  C   UNL     1       5.115  27.666  14.659  0.00  0.00    +0.000 A 
ATOM     15  C   UNL     1       6.766  29.324  15.269  0.00  0.00    +0.000 A 
ATOM     16  C   UNL     1      -0.357  31.129  15.485  0.00  0.00    +0.000 A 
ATOM     17  C   UNL     1       0.390  33.668  16.329  0.00  0.00    +0.000 A 
ATOM     18  C   UNL     1       6.447  28.035  14.843  0.00  0.00    +0.000 A 
ATOM     19  C   UNL     1      -1.332  32.090  15.741  0.00  0.00    +0.000 A 
ATOM     20  C   UNL     1      -0.958  33.360  16.163  0.00  0.00    +0.000 A 
ENDROOT
TORSDOF 0
ENDMDL
MODEL 4
REMARK VINA RESULT:     -10.7      0.760      2.979
REMARK  Name = Benzo[a]pyrene.pdbqt.pdb
REMARK  0 active torsions:
REMARK  status: ('A' for Active; 'I' for Inactive)
REMARK                            x       y       z     vdW  Elec       q    Type
REMARK                         _______ _______ _______ _____ _____    ______ ____
ROOT
ATOM      1  C   UNL     1       4.842  29.682  15.531  0.00  0.00    +0.000 A 
ATOM      2  C   UNL     1       3.430  29.677  15.481  0.00  0.00    +0.000 A 
ATOM      3  C   UNL     1       5.579  28.594  15.012  0.00  0.00    +0.000 A 
ATOM      4  C   UNL     1       5.505  30.788  16.105  0.00  0.00    +0.000 A 
ATOM      5  C   UNL     1       6.994  28.626  15.075  0.00  0.00    +0.000 A 
ATOM      6  C   UNL     1       2.748  28.583  14.913  0.00  0.00    +0.000 A 
ATOM      7  C   UNL     1       2.698  30.766  16.001  0.00  0.00    +0.000 A 
ATOM      8  C   UNL     1       7.639  29.743  15.654  0.00  0.00    +0.000 A 
ATOM      9  C   UNL     1       6.894  30.805  16.159  0.00  0.00    +0.000 A 
ATOM     10  C   UNL     1       4.867  27.520  14.453  0.00  0.00    +0.000 A 
ATOM     11  C   UNL     1       4.768  31.857  16.614  0.00  0.00    +0.000 A 
ATOM     12  C   UNL     1       3.473  27.510  14.402  0.00  0.00    +0.000 A 
ATOM     13  C   UNL     1       3.375  31.847  16.563  0.00  0.00    +0.000 A 
ATOM     14  C   UNL     1       1.354  28.586  14.868  0.00  0.00    +0.000 A 
ATOM     15  C   UNL     1       1.305  30.750  15.946  0.00  0.00    +0.000 A 
ATOM     16  C   UNL     1       7.799  27.585  14.582  0.00  0.00    +0.000 A 
ATOM     17  C   UNL     1       9.031  29.796  15.726  0.00  0.00    +0.000 A 
ATOM     18  C   UNL     1       0.636  29.664  15.383  0.00  0.00    +0.000 A 
ATOM     19  C   UNL     1       9.188  27.643  14.657  0.00  0.00    +0.000 A 
ATOM     20  C   UNL     1       9.805  28.750  15.230  0.00  0.00    +0.000 A 
ENDROOT
TORSDOF 0
ENDMDL
MODEL 5
REMARK VINA RESULT:     -10.1      1.423      2.256
REMARK  Name = Benzo[a]pyrene.pdbqt.pdb
REMARK  0 active torsions:
REMARK  status: ('A' for Active; 'I' for Inactive)
REMARK                            x       y       z     vdW  Elec       q    Type
REMARK                         _______ _______ _______ _____ _____    ______ ____
ROOT
ATOM      1  C   UNL     1       4.602  30.335  15.469  0.00  0.00    +0.000 A 
ATOM      2  C   UNL     1       3.230  29.999  15.512  0.00  0.00    +0.000 A 
ATOM      3  C   UNL     1       5.048  31.584  15.956  0.00  0.00    +0.000 A 
ATOM      4  C   UNL     1       5.520  29.407  14.933  0.00  0.00    +0.000 A 
ATOM      5  C   UNL     1       6.429  31.894  15.900  0.00  0.00    +0.000 A 
ATOM      6  C   UNL     1       2.297  30.911  16.043  0.00  0.00    +0.000 A 
ATOM      7  C   UNL     1       2.791  28.750  15.024  0.00  0.00    +0.000 A 
ATOM      8  C   UNL     1       7.332  30.951  15.360  0.00  0.00    +0.000 A 
ATOM      9  C   UNL     1       6.873  29.725  14.885  0.00  0.00    +0.000 A 
ATOM     10  C   UNL     1       4.089  32.469  16.479  0.00  0.00    +0.000 A 
ATOM     11  C   UNL     1       5.071  28.176  14.455  0.00  0.00    +0.000 A 
ATOM     12  C   UNL     1       2.734  32.142  16.523  0.00  0.00    +0.000 A 
ATOM     13  C   UNL     1       3.716  27.849  14.500  0.00  0.00    +0.000 A 
ATOM     14  C   UNL     1       0.945  30.571  16.082  0.00  0.00    +0.000 A 
ATOM     15  C   UNL     1       1.434  28.429  15.072  0.00  0.00    +0.000 A 
ATOM     16  C   UNL     1       6.950  33.114  16.364  0.00  0.00    +0.000 A 
ATOM     17  C   UNL     1       8.696  31.235  15.295  0.00  0.00    +0.000 A 
ATOM     18  C   UNL     1       0.515  29.336  15.598  0.00  0.00    +0.000 A 
ATOM     19  C   UNL     1       8.314  33.392  16.297  0.00  0.00    +0.000 A 
ATOM     20  C   UNL     1       9.187  32.452  15.762  0.00  0.00    +0.000 A 
ENDROOT
TORSDOF 0
ENDMDL
MODEL 6
REMARK VINA RESULT:      -9.8      1.863      4.124
REMARK  Name = Benzo[a]pyrene.pdbqt.pdb
REMARK  0 active torsions:
REMARK  status: ('A' for Active; 'I' for Inactive)
REMARK                            x       y       z     vdW  Elec       q    Type
REMARK                         _______ _______ _______ _____ _____    ______ ____
ROOT
ATOM      1  C   UNL     1       5.235  30.821  15.565  0.00  0.00    +0.000 A 
ATOM      2  C   UNL     1       4.523  29.667  15.168  0.00  0.00    +0.000 A 
ATOM      3  C   UNL     1       6.645  30.858  15.472  0.00  0.00    +0.000 A 
ATOM      4  C   UNL     1       4.521  31.935  16.056  0.00  0.00    +0.000 A 
ATOM      5  C   UNL     1       7.333  32.028  15.878  0.00  0.00    +0.000 A 
ATOM      6  C   UNL     1       5.216  28.544  14.676  0.00  0.00    +0.000 A 
ATOM      7  C   UNL     1       3.115  29.636  15.263  0.00  0.00    +0.000 A 
ATOM      8  C   UNL     1       6.599  33.133  16.366  0.00  0.00    +0.000 A 
ATOM      9  C   UNL     1       5.210  33.076  16.450  0.00  0.00    +0.000 A 
ATOM     10  C   UNL     1       7.304  29.720  14.977  0.00  0.00    +0.000 A 
ATOM     11  C   UNL     1       3.130  31.889  16.144  0.00  0.00    +0.000 A 
ATOM     12  C   UNL     1       6.605  28.579  14.584  0.00  0.00    +0.000 A 
ATOM     13  C   UNL     1       2.431  30.748  15.751  0.00  0.00    +0.000 A 
ATOM     14  C   UNL     1       4.505  27.410  14.286  0.00  0.00    +0.000 A 
ATOM     15  C   UNL     1       2.422  28.492  14.869  0.00  0.00    +0.000 A 
ATOM     16  C   UNL     1       8.732  32.143  15.816  0.00  0.00    +0.000 A 
ATOM     17  C   UNL     1       7.256  34.294  16.771  0.00  0.00    +0.000 A 
ATOM     18  C   UNL     1       3.114  27.384  14.382  0.00  0.00    +0.000 A 
ATOM     19  C   UNL     1       9.383  33.306  16.222  0.00  0.00    +0.000 A 
ATOM     20  C   UNL     1       8.644  34.382  16.699  0.00  0.00    +0.000 A 
ENDROOT
TORSDOF 0
ENDMDL
MODEL 7
REMARK VINA RESULT:      -8.2     31.306     33.962
REMARK  Name = Benzo[a]pyrene.pdbqt.pdb
REMARK  0 active torsions:
REMARK  status: ('A' for Active; 'I' for Inactive)
REMARK                            x       y       z     vdW  Elec       q    Type
REMARK                         _______ _______ _______ _____ _____    ______ ____
ROOT
ATOM      1  C   UNL     1      -1.264  62.539  10.245  0.00  0.00    +0.000 A 
ATOM      2  C   UNL     1      -0.686  63.225   9.154  0.00  0.00    +0.000 A 
ATOM      3  C   UNL     1      -2.112  61.430  10.024  0.00  0.00    +0.000 A 
ATOM      4  C   UNL     1      -0.983  62.975  11.557  0.00  0.00    +0.000 A 
ATOM      5  C   UNL     1      -2.678  60.761  11.137  0.00  0.00    +0.000 A 
ATOM      6  C   UNL     1      -0.953  62.806   7.835  0.00  0.00    +0.000 A 
ATOM      7  C   UNL     1       0.160  64.331   9.380  0.00  0.00    +0.000 A 
ATOM      8  C   UNL     1      -2.383  61.213  12.444  0.00  0.00    +0.000 A 
ATOM      9  C   UNL     1      -1.545  62.307  12.640  0.00  0.00    +0.000 A 
ATOM     10  C   UNL     1      -2.357  61.040   8.696  0.00  0.00    +0.000 A 
ATOM     11  C   UNL     1      -0.144  64.069  11.765  0.00  0.00    +0.000 A 
ATOM     12  C   UNL     1      -1.789  61.714   7.616  0.00  0.00    +0.000 A 
ATOM     13  C   UNL     1       0.424  64.743  10.685  0.00  0.00    +0.000 A 
ATOM     14  C   UNL     1      -0.378  63.489   6.764  0.00  0.00    +0.000 A 
ATOM     15  C   UNL     1       0.725  65.001   8.295  0.00  0.00    +0.000 A 
ATOM     16  C   UNL     1      -3.530  59.652  11.002  0.00  0.00    +0.000 A 
ATOM     17  C   UNL     1      -2.929  60.569  13.554  0.00  0.00    +0.000 A 
ATOM     18  C   UNL     1       0.457  64.582   6.992  0.00  0.00    +0.000 A 
ATOM     19  C   UNL     1      -4.072  59.013  12.114  0.00  0.00    +0.000 A 
ATOM     20  C   UNL     1      -3.771  59.472  13.391  0.00  0.00    +0.000 A 
ENDROOT
TORSDOF 0
ENDMDL
MODEL 8
REMARK VINA RESULT:      -8.1     31.502     34.022
REMARK  Name = Benzo[a]pyrene.pdbqt.pdb
REMARK  0 active torsions:
REMARK  status: ('A' for Active; 'I' for Inactive)
REMARK                            x       y       z     vdW  Elec       q    Type
REMARK                         _______ _______ _______ _____ _____    ______ ____
ROOT
ATOM      1  C   UNL     1      -1.355  62.448   9.724  0.00  0.00    +0.000 A 
ATOM      2  C   UNL     1      -0.627  63.322   8.886  0.00  0.00    +0.000 A 
ATOM      3  C   UNL     1      -1.284  62.582  11.130  0.00  0.00    +0.000 A 
ATOM      4  C   UNL     1      -2.154  61.442   9.141  0.00  0.00    +0.000 A 
ATOM      5  C   UNL     1      -2.024  61.692  11.946  0.00  0.00    +0.000 A 
ATOM      6  C   UNL     1       0.176  64.334   9.448  0.00  0.00    +0.000 A 
ATOM      7  C   UNL     1      -0.702  63.184   7.484  0.00  0.00    +0.000 A 
ATOM      8  C   UNL     1      -2.818  60.691  11.342  0.00  0.00    +0.000 A 
ATOM      9  C   UNL     1      -2.875  60.576   9.955  0.00  0.00    +0.000 A 
ATOM     10  C   UNL     1      -0.473  63.602  11.656  0.00  0.00    +0.000 A 
ATOM     11  C   UNL     1      -2.217  61.318   7.753  0.00  0.00    +0.000 A 
ATOM     12  C   UNL     1       0.247  64.466  10.832  0.00  0.00    +0.000 A 
ATOM     13  C   UNL     1      -1.497  62.182   6.930  0.00  0.00    +0.000 A 
ATOM     14  C   UNL     1       0.892  65.191   8.613  0.00  0.00    +0.000 A 
ATOM     15  C   UNL     1       0.021  64.052   6.666  0.00  0.00    +0.000 A 
ATOM     16  C   UNL     1      -2.007  61.759  13.350  0.00  0.00    +0.000 A 
ATOM     17  C   UNL     1      -3.555  59.804  12.126  0.00  0.00    +0.000 A 
ATOM     18  C   UNL     1       0.814  65.051   7.228  0.00  0.00    +0.000 A 
ATOM     19  C   UNL     1      -2.745  60.871  14.128  0.00  0.00    +0.000 A 
ATOM     20  C   UNL     1      -3.520  59.893  13.516  0.00  0.00    +0.000 A 
ENDROOT
TORSDOF 0
ENDMDL
MODEL 9
REMARK VINA RESULT:      -7.9     18.743     22.342
REMARK  Name = Benzo[a]pyrene.pdbqt.pdb
REMARK  0 active torsions:
REMARK  status: ('A' for Active; 'I' for Inactive)
REMARK                            x       y       z     vdW  Elec       q    Type
REMARK                         _______ _______ _______ _____ _____    ______ ____
ROOT
ATOM      1  C   UNL     1     -17.786  28.110  18.655  0.00  0.00    +0.000 A 
ATOM      2  C   UNL     1     -18.685  28.083  17.566  0.00  0.00    +0.000 A 
ATOM      3  C   UNL     1     -16.418  28.396  18.447  0.00  0.00    +0.000 A 
ATOM      4  C   UNL     1     -18.273  27.847  19.954  0.00  0.00    +0.000 A 
ATOM      5  C   UNL     1     -15.540  28.417  19.558  0.00  0.00    +0.000 A 
ATOM      6  C   UNL     1     -18.220  28.343  16.261  0.00  0.00    +0.000 A 
ATOM      7  C   UNL     1     -20.049  27.796  17.779  0.00  0.00    +0.000 A 
ATOM      8  C   UNL     1     -16.047  28.150  20.851  0.00  0.00    +0.000 A 
ATOM      9  C   UNL     1     -17.398  27.870  21.035  0.00  0.00    +0.000 A 
ATOM     10  C   UNL     1     -15.989  28.651  17.133  0.00  0.00    +0.000 A 
ATOM     11  C   UNL     1     -19.624  27.565  20.149  0.00  0.00    +0.000 A 
ATOM     12  C   UNL     1     -16.873  28.626  16.055  0.00  0.00    +0.000 A 
ATOM     13  C   UNL     1     -20.507  27.539  19.071  0.00  0.00    +0.000 A 
ATOM     14  C   UNL     1     -19.114  28.315  15.191  0.00  0.00    +0.000 A 
ATOM     15  C   UNL     1     -20.928  27.773  16.696  0.00  0.00    +0.000 A 
ATOM     16  C   UNL     1     -14.168  28.693  19.434  0.00  0.00    +0.000 A 
ATOM     17  C   UNL     1     -15.200  28.165  21.959  0.00  0.00    +0.000 A 
ATOM     18  C   UNL     1     -20.462  28.031  15.408  0.00  0.00    +0.000 A 
ATOM     19  C   UNL     1     -13.327  28.706  20.545  0.00  0.00    +0.000 A 
ATOM     20  C   UNL     1     -13.844  28.442  21.808  0.00  0.00    +0.000 A 
ENDROOT
TORSDOF 0
ENDMDL
