MODEL 1
REMARK VINA RESULT:      -8.1      0.000      0.000
REMARK  Name = Bicalutamide.pdbqt.pdb
REMARK  8 active torsions:
REMARK  status: ('A' for Active; 'I' for Inactive)
REMARK    1  A    between atoms: C_2  and  N_13
REMARK    2  A    between atoms: C_5  and  C_9
REMARK    3  A    between atoms: C_6  and  C_8
REMARK    4  A    between atoms: C_14  and  C_17
REMARK    5  A    between atoms: C_17  and  O_19
REMARK    6  A    between atoms: C_17  and  C_21
REMARK    7  A    between atoms: C_21  and  S_22
REMARK    8  A    between atoms: S_22  and  C_25
REMARK                            x       y       z     vdW  Elec       q    Type
REMARK                         _______ _______ _______ _____ _____    ______ ____
ROOT
ATOM      1  N   UNL     1       6.794  32.245  16.340  0.00  0.00    +0.000 N 
ATOM      2  C   UNL     1       7.730  31.470  15.660  0.00  0.00    +0.000 C 
ATOM      3  O   UNL     1       7.515  30.883  14.595  0.00  0.00    +0.000 OA
ATOM      4  H   UNL     1       7.133  32.757  17.156  0.00  0.00    +0.000 HD
ENDROOT
BRANCH   1   5
ATOM      5  C   UNL     1       5.458  32.448  15.958  0.00  0.00    +0.000 A 
ATOM      6  C   UNL     1       4.562  31.396  16.142  0.00  0.00    +0.000 A 
ATOM      7  C   UNL     1       5.003  33.639  15.400  0.00  0.00    +0.000 A 
ATOM      8  C   UNL     1       3.215  31.516  15.778  0.00  0.00    +0.000 A 
ATOM      9  C   UNL     1       2.770  32.723  15.218  0.00  0.00    +0.000 A 
ATOM     10  C   UNL     1       3.667  33.776  15.032  0.00  0.00    +0.000 A 
BRANCH   8  11
ATOM     11  C   UNL     1       2.293  30.352  15.998  0.00  0.00    +0.000 C 
ATOM     12  F   UNL     1       1.696  29.917  14.855  0.00  0.00    +0.000 F 
ATOM     13  F   UNL     1       2.938  29.273  16.514  0.00  0.00    +0.000 F 
ATOM     14  F   UNL     1       1.282  30.646  16.856  0.00  0.00    +0.000 F 
ENDBRANCH   8  11
BRANCH   9  16
ATOM     15  N   UNL     1       0.303  33.087  14.513  0.00  0.00    +0.000 NA
ATOM     16  C   UNL     1       1.409  32.925  14.821  0.00  0.00    +0.000 C 
ENDBRANCH   9  16
ENDBRANCH   1   5
BRANCH   2  17
ATOM     17  C   UNL     1       9.138  31.335  16.371  0.00  0.00    +0.000 C 
ATOM     18  C   UNL     1      10.232  30.861  15.373  0.00  0.00    +0.000 C 
BRANCH  17  19
ATOM     19  O   UNL     1       9.074  30.371  17.410  0.00  0.00    +0.000 OA
ATOM     20  H   UNL     1       8.202  29.946  17.299  0.00  0.00    +0.000 HD
ENDBRANCH  17  19
BRANCH  17  21
ATOM     21  C   UNL     1       9.473  32.605  16.936  0.00  0.00    +0.000 C 
BRANCH  21  22
ATOM     22  S   UNL     1       9.675  34.133  17.711  0.00  0.00    +0.000 S 
ATOM     23  O   UNL     1      11.088  34.036  17.977  0.00  0.00    +0.000 OA
ATOM     24  O   UNL     1       8.623  33.967  18.683  0.00  0.00    +0.000 OA
BRANCH  22  25
ATOM     25  C   UNL     1       9.317  35.397  16.582  0.00  0.00    +0.000 A 
ATOM     26  C   UNL     1       7.983  35.736  16.380  0.00  0.00    +0.000 A 
ATOM     27  C   UNL     1       7.668  36.733  15.461  0.00  0.00    +0.000 A 
ATOM     28  C   UNL     1       8.692  37.365  14.760  0.00  0.00    +0.000 A 
ATOM     29  F   UNL     1       8.388  38.325  13.875  0.00  0.00    +0.000 F 
ATOM     30  C   UNL     1      10.025  37.017  14.960  0.00  0.00    +0.000 A 
ATOM     31  C   UNL     1      10.342  36.021  15.878  0.00  0.00    +0.000 A 
ENDBRANCH  22  25
ENDBRANCH  21  22
ENDBRANCH  17  21
ENDBRANCH   2  17
TORSDOF 8
ENDMDL
MODEL 2
REMARK VINA RESULT:      -8.1      2.116      2.886
REMARK  Name = Bicalutamide.pdbqt.pdb
REMARK  8 active torsions:
REMARK  status: ('A' for Active; 'I' for Inactive)
REMARK    1  A    between atoms: C_2  and  N_13
REMARK    2  A    between atoms: C_5  and  C_9
REMARK    3  A    between atoms: C_6  and  C_8
REMARK    4  A    between atoms: C_14  and  C_17
REMARK    5  A    between atoms: C_17  and  O_19
REMARK    6  A    between atoms: C_17  and  C_21
REMARK    7  A    between atoms: C_21  and  S_22
REMARK    8  A    between atoms: S_22  and  C_25
REMARK                            x       y       z     vdW  Elec       q    Type
REMARK                         _______ _______ _______ _____ _____    ______ ____
ROOT
ATOM      1  N   UNL     1       6.409  30.511  16.284  0.00  0.00    +0.000 N 
ATOM      2  C   UNL     1       7.362  29.971  15.424  0.00  0.00    +0.000 C 
ATOM      3  O   UNL     1       7.127  29.568  14.280  0.00  0.00    +0.000 OA
ATOM      4  H   UNL     1       6.757  30.899  17.163  0.00  0.00    +0.000 HD
ENDROOT
BRANCH   1   5
ATOM      5  C   UNL     1       5.037  30.645  16.017  0.00  0.00    +0.000 A 
ATOM      6  C   UNL     1       4.575  31.891  15.596  0.00  0.00    +0.000 A 
ATOM      7  C   UNL     1       4.131  29.599  16.167  0.00  0.00    +0.000 A 
ATOM      8  C   UNL     1       3.220  32.109  15.319  0.00  0.00    +0.000 A 
ATOM      9  C   UNL     1       2.319  31.045  15.471  0.00  0.00    +0.000 A 
ATOM     10  C   UNL     1       2.780  29.797  15.895  0.00  0.00    +0.000 A 
BRANCH   8  11
ATOM     11  C   UNL     1       2.777  33.470  14.868  0.00  0.00    +0.000 C 
ATOM     12  F   UNL     1       2.264  33.478  13.607  0.00  0.00    +0.000 F 
ATOM     13  F   UNL     1       1.807  33.988  15.666  0.00  0.00    +0.000 F 
ATOM     14  F   UNL     1       3.794  34.371  14.861  0.00  0.00    +0.000 F 
ENDBRANCH   8  11
BRANCH   9  16
ATOM     15  N   UNL     1      -0.217  31.288  15.000  0.00  0.00    +0.000 NA
ATOM     16  C   UNL     1       0.919  31.186  15.207  0.00  0.00    +0.000 C 
ENDBRANCH   9  16
ENDBRANCH   1   5
BRANCH   2  17
ATOM     17  C   UNL     1       8.822  29.853  16.023  0.00  0.00    +0.000 C 
ATOM     18  C   UNL     1       9.504  28.524  15.591  0.00  0.00    +0.000 C 
BRANCH  17  19
ATOM     19  O   UNL     1       8.774  29.857  17.440  0.00  0.00    +0.000 OA
ATOM     20  H   UNL     1       9.230  29.035  17.705  0.00  0.00    +0.000 HD
ENDBRANCH  17  19
BRANCH  17  21
ATOM     21  C   UNL     1       9.576  30.985  15.581  0.00  0.00    +0.000 C 
BRANCH  21  22
ATOM     22  S   UNL     1      10.566  32.360  15.256  0.00  0.00    +0.000 S 
ATOM     23  O   UNL     1      10.724  32.160  13.837  0.00  0.00    +0.000 OA
ATOM     24  O   UNL     1      11.565  32.087  16.260  0.00  0.00    +0.000 OA
BRANCH  22  25
ATOM     25  C   UNL     1       9.674  33.801  15.609  0.00  0.00    +0.000 A 
ATOM     26  C   UNL     1      10.263  35.026  15.313  0.00  0.00    +0.000 A 
ATOM     27  C   UNL     1       9.575  36.199  15.609  0.00  0.00    +0.000 A 
ATOM     28  C   UNL     1       8.317  36.124  16.199  0.00  0.00    +0.000 A 
ATOM     29  F   UNL     1       7.655  37.254  16.484  0.00  0.00    +0.000 F 
ATOM     30  C   UNL     1       7.733  34.896  16.500  0.00  0.00    +0.000 A 
ATOM     31  C   UNL     1       8.419  33.722  16.205  0.00  0.00    +0.000 A 
ENDBRANCH  22  25
ENDBRANCH  21  22
ENDBRANCH  17  21
ENDBRANCH   2  17
TORSDOF 8
ENDMDL
MODEL 3
REMARK VINA RESULT:      -8.1      3.307      5.037
REMARK  Name = Bicalutamide.pdbqt.pdb
REMARK  8 active torsions:
REMARK  status: ('A' for Active; 'I' for Inactive)
REMARK    1  A    between atoms: C_2  and  N_13
REMARK    2  A    between atoms: C_5  and  C_9
REMARK    3  A    between atoms: C_6  and  C_8
REMARK    4  A    between atoms: C_14  and  C_17
REMARK    5  A    between atoms: C_17  and  O_19
REMARK    6  A    between atoms: C_17  and  C_21
REMARK    7  A    between atoms: C_21  and  S_22
REMARK    8  A    between atoms: S_22  and  C_25
REMARK                            x       y       z     vdW  Elec       q    Type
REMARK                         _______ _______ _______ _____ _____    ______ ____
ROOT
ATOM      1  N   UNL     1       6.029  32.176  16.699  0.00  0.00    +0.000 N 
ATOM      2  C   UNL     1       6.313  33.443  16.196  0.00  0.00    +0.000 C 
ATOM      3  O   UNL     1       5.593  34.062  15.405  0.00  0.00    +0.000 OA
ATOM      4  H   UNL     1       6.658  31.822  17.422  0.00  0.00    +0.000 HD
ENDROOT
BRANCH   1   5
ATOM      5  C   UNL     1       4.919  31.384  16.364  0.00  0.00    +0.000 A 
ATOM      6  C   UNL     1       5.153  30.193  15.677  0.00  0.00    +0.000 A 
ATOM      7  C   UNL     1       3.611  31.744  16.675  0.00  0.00    +0.000 A 
ATOM      8  C   UNL     1       4.099  29.353  15.299  0.00  0.00    +0.000 A 
ATOM      9  C   UNL     1       2.786  29.727  15.621  0.00  0.00    +0.000 A 
ATOM     10  C   UNL     1       2.550  30.920  16.306  0.00  0.00    +0.000 A 
BRANCH   8  11
ATOM     11  C   UNL     1       4.408  28.083  14.562  0.00  0.00    +0.000 C 
ATOM     12  F   UNL     1       5.727  27.748  14.596  0.00  0.00    +0.000 F 
ATOM     13  F   UNL     1       3.742  27.014  15.074  0.00  0.00    +0.000 F 
ATOM     14  F   UNL     1       4.076  28.152  13.246  0.00  0.00    +0.000 F 
ENDBRANCH   8  11
BRANCH   9  16
ATOM     15  N   UNL     1       0.730  28.280  14.993  0.00  0.00    +0.000 NA
ATOM     16  C   UNL     1       1.655  28.923  15.270  0.00  0.00    +0.000 C 
ENDBRANCH   9  16
ENDBRANCH   1   5
BRANCH   2  17
ATOM     17  C   UNL     1       7.687  34.066  16.672  0.00  0.00    +0.000 C 
ATOM     18  C   UNL     1       7.789  34.092  18.224  0.00  0.00    +0.000 C 
BRANCH  17  19
ATOM     19  O   UNL     1       7.801  35.407  16.223  0.00  0.00    +0.000 OA
ATOM     20  H   UNL     1       7.672  35.355  15.257  0.00  0.00    +0.000 HD
ENDBRANCH  17  19
BRANCH  17  21
ATOM     21  C   UNL     1       8.747  33.294  16.101  0.00  0.00    +0.000 C 
BRANCH  21  22
ATOM     22  S   UNL     1      10.142  32.553  15.408  0.00  0.00    +0.000 S 
ATOM     23  O   UNL     1      11.105  32.987  16.387  0.00  0.00    +0.000 OA
ATOM     24  O   UNL     1       9.982  33.103  14.084  0.00  0.00    +0.000 OA
BRANCH  22  25
ATOM     25  C   UNL     1       9.939  30.833  15.420  0.00  0.00    +0.000 A 
ATOM     26  C   UNL     1      11.021  30.043  15.044  0.00  0.00    +0.000 A 
ATOM     27  C   UNL     1      10.876  28.659  15.024  0.00  0.00    +0.000 A 
ATOM     28  C   UNL     1       9.653  28.094  15.374  0.00  0.00    +0.000 A 
ATOM     29  F   UNL     1       9.514  26.761  15.355  0.00  0.00    +0.000 F 
ATOM     30  C   UNL     1       8.571  28.889  15.743  0.00  0.00    +0.000 A 
ATOM     31  C   UNL     1       8.713  30.272  15.763  0.00  0.00    +0.000 A 
ENDBRANCH  22  25
ENDBRANCH  21  22
ENDBRANCH  17  21
ENDBRANCH   2  17
TORSDOF 8
ENDMDL
MODEL 4
REMARK VINA RESULT:      -7.7      1.833      2.235
REMARK  Name = Bicalutamide.pdbqt.pdb
REMARK  8 active torsions:
REMARK  status: ('A' for Active; 'I' for Inactive)
REMARK    1  A    between atoms: C_2  and  N_13
REMARK    2  A    between atoms: C_5  and  C_9
REMARK    3  A    between atoms: C_6  and  C_8
REMARK    4  A    between atoms: C_14  and  C_17
REMARK    5  A    between atoms: C_17  and  O_19
REMARK    6  A    between atoms: C_17  and  C_21
REMARK    7  A    between atoms: C_21  and  S_22
REMARK    8  A    between atoms: S_22  and  C_25
REMARK                            x       y       z     vdW  Elec       q    Type
REMARK                         _______ _______ _______ _____ _____    ______ ____
ROOT
ATOM      1  N   UNL     1       6.039  30.513  16.646  0.00  0.00    +0.000 N 
ATOM      2  C   UNL     1       7.038  30.951  15.781  0.00  0.00    +0.000 C 
ATOM      3  O   UNL     1       6.868  31.761  14.864  0.00  0.00    +0.000 OA
ATOM      4  H   UNL     1       6.337  29.921  17.422  0.00  0.00    +0.000 HD
ENDROOT
BRANCH   1   5
ATOM      5  C   UNL     1       4.684  30.878  16.594  0.00  0.00    +0.000 A 
ATOM      6  C   UNL     1       3.787  29.968  16.036  0.00  0.00    +0.000 A 
ATOM      7  C   UNL     1       4.211  32.101  17.059  0.00  0.00    +0.000 A 
ATOM      8  C   UNL     1       2.421  30.260  15.939  0.00  0.00    +0.000 A 
ATOM      9  C   UNL     1       1.958  31.496  16.414  0.00  0.00    +0.000 A 
ATOM     10  C   UNL     1       2.856  32.409  16.970  0.00  0.00    +0.000 A 
BRANCH   8  11
ATOM     11  C   UNL     1       1.499  29.244  15.330  0.00  0.00    +0.000 C 
ATOM     12  F   UNL     1       0.557  28.785  16.199  0.00  0.00    +0.000 F 
ATOM     13  F   UNL     1       0.812  29.741  14.267  0.00  0.00    +0.000 F 
ATOM     14  F   UNL     1       2.161  28.144  14.884  0.00  0.00    +0.000 F 
ENDBRANCH   8  11
BRANCH   9  16
ATOM     15  N   UNL     1      -0.540  32.174  16.285  0.00  0.00    +0.000 NA
ATOM     16  C   UNL     1       0.577  31.869  16.351  0.00  0.00    +0.000 C 
ENDBRANCH   9  16
ENDBRANCH   1   5
BRANCH   2  17
ATOM     17  C   UNL     1       8.463  30.300  16.010  0.00  0.00    +0.000 C 
ATOM     18  C   UNL     1       8.687  29.084  15.069  0.00  0.00    +0.000 C 
BRANCH  17  19
ATOM     19  O   UNL     1       8.578  29.826  17.342  0.00  0.00    +0.000 OA
ATOM     20  H   UNL     1       7.735  30.076  17.767  0.00  0.00    +0.000 HD
ENDBRANCH  17  19
BRANCH  17  21
ATOM     21  C   UNL     1       9.453  31.309  15.791  0.00  0.00    +0.000 C 
BRANCH  21  22
ATOM     22  S   UNL     1      10.530  32.580  15.342  0.00  0.00    +0.000 S 
ATOM     23  O   UNL     1      10.566  32.319  13.925  0.00  0.00    +0.000 OA
ATOM     24  O   UNL     1      11.573  32.254  16.284  0.00  0.00    +0.000 OA
BRANCH  22  25
ATOM     25  C   UNL     1       9.793  34.105  15.699  0.00  0.00    +0.000 A 
ATOM     26  C   UNL     1       8.704  34.121  16.564  0.00  0.00    +0.000 A 
ATOM     27  C   UNL     1       8.080  35.332  16.848  0.00  0.00    +0.000 A 
ATOM     28  C   UNL     1       8.554  36.501  16.258  0.00  0.00    +0.000 A 
ATOM     29  F   UNL     1       7.952  37.667  16.532  0.00  0.00    +0.000 F 
ATOM     30  C   UNL     1       9.640  36.480  15.387  0.00  0.00    +0.000 A 
ATOM     31  C   UNL     1      10.264  35.270  15.102  0.00  0.00    +0.000 A 
ENDBRANCH  22  25
ENDBRANCH  21  22
ENDBRANCH  17  21
ENDBRANCH   2  17
TORSDOF 8
ENDMDL
MODEL 5
REMARK VINA RESULT:      -7.7      1.867      2.576
REMARK  Name = Bicalutamide.pdbqt.pdb
REMARK  8 active torsions:
REMARK  status: ('A' for Active; 'I' for Inactive)
REMARK    1  A    between atoms: C_2  and  N_13
REMARK    2  A    between atoms: C_5  and  C_9
REMARK    3  A    between atoms: C_6  and  C_8
REMARK    4  A    between atoms: C_14  and  C_17
REMARK    5  A    between atoms: C_17  and  O_19
REMARK    6  A    between atoms: C_17  and  C_21
REMARK    7  A    between atoms: C_21  and  S_22
REMARK    8  A    between atoms: S_22  and  C_25
REMARK                            x       y       z     vdW  Elec       q    Type
REMARK                         _______ _______ _______ _____ _____    ______ ____
ROOT
ATOM      1  N   UNL     1       6.552  31.114  16.278  0.00  0.00    +0.000 N 
ATOM      2  C   UNL     1       7.783  30.531  15.987  0.00  0.00    +0.000 C 
ATOM      3  O   UNL     1       7.928  29.439  15.428  0.00  0.00    +0.000 OA
ATOM      4  H   UNL     1       6.575  32.065  16.650  0.00  0.00    +0.000 HD
ENDROOT
BRANCH   1   5
ATOM      5  C   UNL     1       5.291  30.549  16.028  0.00  0.00    +0.000 A 
ATOM      6  C   UNL     1       4.165  31.316  16.322  0.00  0.00    +0.000 A 
ATOM      7  C   UNL     1       5.125  29.265  15.518  0.00  0.00    +0.000 A 
ATOM      8  C   UNL     1       2.873  30.822  16.110  0.00  0.00    +0.000 A 
ATOM      9  C   UNL     1       2.719  29.526  15.594  0.00  0.00    +0.000 A 
ATOM     10  C   UNL     1       3.847  28.756  15.301  0.00  0.00    +0.000 A 
BRANCH   8  11
ATOM     11  C   UNL     1       1.695  31.690  16.444  0.00  0.00    +0.000 C 
ATOM     12  F   UNL     1       0.970  32.055  15.350  0.00  0.00    +0.000 F 
ATOM     13  F   UNL     1       0.819  31.075  17.280  0.00  0.00    +0.000 F 
ATOM     14  F   UNL     1       2.060  32.850  17.050  0.00  0.00    +0.000 F 
ENDBRANCH   8  11
BRANCH   9  16
ATOM     15  N   UNL     1       0.387  28.484  15.165  0.00  0.00    +0.000 NA
ATOM     16  C   UNL     1       1.433  28.949  15.349  0.00  0.00    +0.000 C 
ENDBRANCH   9  16
ENDBRANCH   1   5
BRANCH   2  17
ATOM     17  C   UNL     1       9.048  31.351  16.468  0.00  0.00    +0.000 C 
ATOM     18  C   UNL     1      10.238  31.184  15.481  0.00  0.00    +0.000 C 
BRANCH  17  19
ATOM     19  O   UNL     1       9.485  30.884  17.734  0.00  0.00    +0.000 OA
ATOM     20  H   UNL     1      10.010  30.085  17.534  0.00  0.00    +0.000 HD
ENDBRANCH  17  19
BRANCH  17  21
ATOM     21  C   UNL     1       8.668  32.725  16.586  0.00  0.00    +0.000 C 
BRANCH  21  22
ATOM     22  S   UNL     1       8.306  34.376  16.931  0.00  0.00    +0.000 S 
ATOM     23  O   UNL     1       8.558  34.342  18.350  0.00  0.00    +0.000 OA
ATOM     24  O   UNL     1       7.004  34.394  16.309  0.00  0.00    +0.000 OA
BRANCH  22  25
ATOM     25  C   UNL     1       9.432  35.393  16.099  0.00  0.00    +0.000 A 
ATOM     26  C   UNL     1      10.775  35.030  16.109  0.00  0.00    +0.000 A 
ATOM     27  C   UNL     1      11.703  35.844  15.466  0.00  0.00    +0.000 A 
ATOM     28  C   UNL     1      11.271  37.006  14.832  0.00  0.00    +0.000 A 
ATOM     29  F   UNL     1      12.165  37.789  14.213  0.00  0.00    +0.000 F 
ATOM     30  C   UNL     1       9.927  37.369  14.831  0.00  0.00    +0.000 A 
ATOM     31  C   UNL     1       8.998  36.557  15.472  0.00  0.00    +0.000 A 
ENDBRANCH  22  25
ENDBRANCH  21  22
ENDBRANCH  17  21
ENDBRANCH   2  17
TORSDOF 8
ENDMDL
MODEL 6
REMARK VINA RESULT:      -7.7      2.264      2.708
REMARK  Name = Bicalutamide.pdbqt.pdb
REMARK  8 active torsions:
REMARK  status: ('A' for Active; 'I' for Inactive)
REMARK    1  A    between atoms: C_2  and  N_13
REMARK    2  A    between atoms: C_5  and  C_9
REMARK    3  A    between atoms: C_6  and  C_8
REMARK    4  A    between atoms: C_14  and  C_17
REMARK    5  A    between atoms: C_17  and  O_19
REMARK    6  A    between atoms: C_17  and  C_21
REMARK    7  A    between atoms: C_21  and  S_22
REMARK    8  A    between atoms: S_22  and  C_25
REMARK                            x       y       z     vdW  Elec       q    Type
REMARK                         _______ _______ _______ _____ _____    ______ ____
ROOT
ATOM      1  N   UNL     1       6.619  31.369  16.173  0.00  0.00    +0.000 N 
ATOM      2  C   UNL     1       7.822  30.673  16.257  0.00  0.00    +0.000 C 
ATOM      3  O   UNL     1       7.932  29.446  16.159  0.00  0.00    +0.000 OA
ATOM      4  H   UNL     1       6.682  32.388  16.170  0.00  0.00    +0.000 HD
ENDROOT
BRANCH   1   5
ATOM      5  C   UNL     1       5.346  30.800  16.010  0.00  0.00    +0.000 A 
ATOM      6  C   UNL     1       5.250  29.626  15.263  0.00  0.00    +0.000 A 
ATOM      7  C   UNL     1       4.191  31.361  16.546  0.00  0.00    +0.000 A 
ATOM      8  C   UNL     1       4.016  29.002  15.046  0.00  0.00    +0.000 A 
ATOM      9  C   UNL     1       2.860  29.577  15.595  0.00  0.00    +0.000 A 
ATOM     10  C   UNL     1       2.955  30.753  16.341  0.00  0.00    +0.000 A 
BRANCH   8  11
ATOM     11  C   UNL     1       3.969  27.740  14.234  0.00  0.00    +0.000 C 
ATOM     12  F   UNL     1       5.193  27.339  13.793  0.00  0.00    +0.000 F 
ATOM     13  F   UNL     1       3.467  26.691  14.938  0.00  0.00    +0.000 F 
ATOM     14  F   UNL     1       3.197  27.866  13.123  0.00  0.00    +0.000 F 
ENDBRANCH   8  11
BRANCH   9  16
ATOM     15  N   UNL     1       0.504  28.545  15.277  0.00  0.00    +0.000 NA
ATOM     16  C   UNL     1       1.562  29.000  15.418  0.00  0.00    +0.000 C 
ENDBRANCH   9  16
ENDBRANCH   1   5
BRANCH   2  17
ATOM     17  C   UNL     1       9.099  31.564  16.540  0.00  0.00    +0.000 C 
ATOM     18  C   UNL     1      10.144  31.434  15.397  0.00  0.00    +0.000 C 
BRANCH  17  19
ATOM     19  O   UNL     1       9.735  31.145  17.738  0.00  0.00    +0.000 OA
ATOM     20  H   UNL     1      10.420  30.514  17.446  0.00  0.00    +0.000 HD
ENDBRANCH  17  19
BRANCH  17  21
ATOM     21  C   UNL     1       8.670  32.920  16.693  0.00  0.00    +0.000 C 
BRANCH  21  22
ATOM     22  S   UNL     1       8.066  34.490  17.073  0.00  0.00    +0.000 S 
ATOM     23  O   UNL     1       8.066  34.361  18.508  0.00  0.00    +0.000 OA
ATOM     24  O   UNL     1       6.902  34.432  16.223  0.00  0.00    +0.000 OA
BRANCH  22  25
ATOM     25  C   UNL     1       9.200  35.683  16.532  0.00  0.00    +0.000 A 
ATOM     26  C   UNL     1       9.232  36.905  17.195  0.00  0.00    +0.000 A 
ATOM     27  C   UNL     1      10.118  37.888  16.765  0.00  0.00    +0.000 A 
ATOM     28  C   UNL     1      10.950  37.631  15.679  0.00  0.00    +0.000 A 
ATOM     29  F   UNL     1      11.803  38.577  15.264  0.00  0.00    +0.000 F 
ATOM     30  C   UNL     1      10.909  36.408  15.013  0.00  0.00    +0.000 A 
ATOM     31  C   UNL     1      10.024  35.425  15.442  0.00  0.00    +0.000 A 
ENDBRANCH  22  25
ENDBRANCH  21  22
ENDBRANCH  17  21
ENDBRANCH   2  17
TORSDOF 8
ENDMDL
MODEL 7
REMARK VINA RESULT:      -7.3      3.672      5.655
REMARK  Name = Bicalutamide.pdbqt.pdb
REMARK  8 active torsions:
REMARK  status: ('A' for Active; 'I' for Inactive)
REMARK    1  A    between atoms: C_2  and  N_13
REMARK    2  A    between atoms: C_5  and  C_9
REMARK    3  A    between atoms: C_6  and  C_8
REMARK    4  A    between atoms: C_14  and  C_17
REMARK    5  A    between atoms: C_17  and  O_19
REMARK    6  A    between atoms: C_17  and  C_21
REMARK    7  A    between atoms: C_21  and  S_22
REMARK    8  A    between atoms: S_22  and  C_25
REMARK                            x       y       z     vdW  Elec       q    Type
REMARK                         _______ _______ _______ _____ _____    ______ ____
ROOT
ATOM      1  N   UNL     1       6.812  31.070  16.369  0.00  0.00    +0.000 N 
ATOM      2  C   UNL     1       7.262  32.356  16.078  0.00  0.00    +0.000 C 
ATOM      3  O   UNL     1       6.553  33.264  15.633  0.00  0.00    +0.000 OA
ATOM      4  H   UNL     1       7.479  30.447  16.826  0.00  0.00    +0.000 HD
ENDROOT
BRANCH   1   5
ATOM      5  C   UNL     1       5.510  30.586  16.166  0.00  0.00    +0.000 A 
ATOM      6  C   UNL     1       5.355  29.452  15.370  0.00  0.00    +0.000 A 
ATOM      7  C   UNL     1       4.383  31.194  16.711  0.00  0.00    +0.000 A 
ATOM      8  C   UNL     1       4.089  28.912  15.113  0.00  0.00    +0.000 A 
ATOM      9  C   UNL     1       2.961  29.534  15.670  0.00  0.00    +0.000 A 
ATOM     10  C   UNL     1       3.116  30.672  16.465  0.00  0.00    +0.000 A 
BRANCH   8  11
ATOM     11  C   UNL     1       3.978  27.689  14.250  0.00  0.00    +0.000 C 
ATOM     12  F   UNL     1       3.422  26.626  14.893  0.00  0.00    +0.000 F 
ATOM     13  F   UNL     1       3.210  27.901  13.149  0.00  0.00    +0.000 F 
ATOM     14  F   UNL     1       5.187  27.260  13.801  0.00  0.00    +0.000 F 
ENDBRANCH   8  11
BRANCH   9  16
ATOM     15  N   UNL     1       0.553  28.660  15.284  0.00  0.00    +0.000 NA
ATOM     16  C   UNL     1       1.634  29.044  15.454  0.00  0.00    +0.000 C 
ENDBRANCH   9  16
ENDBRANCH   1   5
BRANCH   2  17
ATOM     17  C   UNL     1       8.808  32.600  16.316  0.00  0.00    +0.000 C 
ATOM     18  C   UNL     1       9.069  33.274  17.692  0.00  0.00    +0.000 C 
BRANCH  17  19
ATOM     19  O   UNL     1       9.328  33.465  15.320  0.00  0.00    +0.000 OA
ATOM     20  H   UNL     1       9.514  32.883  14.559  0.00  0.00    +0.000 HD
ENDBRANCH  17  19
BRANCH  17  21
ATOM     21  C   UNL     1       9.475  31.337  16.227  0.00  0.00    +0.000 C 
BRANCH  21  22
ATOM     22  S   UNL     1      10.168  29.786  15.930  0.00  0.00    +0.000 S 
ATOM     23  O   UNL     1      11.283  30.218  15.125  0.00  0.00    +0.000 OA
ATOM     24  O   UNL     1       8.967  29.159  15.434  0.00  0.00    +0.000 OA
BRANCH  22  25
ATOM     25  C   UNL     1      10.685  29.094  17.430  0.00  0.00    +0.000 A 
ATOM     26  C   UNL     1      10.086  29.547  18.601  0.00  0.00    +0.000 A 
ATOM     27  C   UNL     1      10.501  29.023  19.823  0.00  0.00    +0.000 A 
ATOM     28  C   UNL     1      11.508  28.062  19.848  0.00  0.00    +0.000 A 
ATOM     29  F   UNL     1      11.906  27.557  21.023  0.00  0.00    +0.000 F 
ATOM     30  C   UNL     1      12.109  27.617  18.673  0.00  0.00    +0.000 A 
ATOM     31  C   UNL     1      11.696  28.139  17.452  0.00  0.00    +0.000 A 
ENDBRANCH  22  25
ENDBRANCH  21  22
ENDBRANCH  17  21
ENDBRANCH   2  17
TORSDOF 8
ENDMDL
MODEL 8
REMARK VINA RESULT:      -7.2      3.607      4.864
REMARK  Name = Bicalutamide.pdbqt.pdb
REMARK  8 active torsions:
REMARK  status: ('A' for Active; 'I' for Inactive)
REMARK    1  A    between atoms: C_2  and  N_13
REMARK    2  A    between atoms: C_5  and  C_9
REMARK    3  A    between atoms: C_6  and  C_8
REMARK    4  A    between atoms: C_14  and  C_17
REMARK    5  A    between atoms: C_17  and  O_19
REMARK    6  A    between atoms: C_17  and  C_21
REMARK    7  A    between atoms: C_21  and  S_22
REMARK    8  A    between atoms: S_22  and  C_25
REMARK                            x       y       z     vdW  Elec       q    Type
REMARK                         _______ _______ _______ _____ _____    ______ ____
ROOT
ATOM      1  N   UNL     1       8.420  31.473  16.403  0.00  0.00    +0.000 N 
ATOM      2  C   UNL     1       9.322  32.227  15.656  0.00  0.00    +0.000 C 
ATOM      3  O   UNL     1       9.391  32.220  14.423  0.00  0.00    +0.000 OA
ATOM      4  H   UNL     1       8.402  31.650  17.408  0.00  0.00    +0.000 HD
ENDROOT
BRANCH   1   5
ATOM      5  C   UNL     1       7.483  30.561  15.890  0.00  0.00    +0.000 A 
ATOM      6  C   UNL     1       6.135  30.796  16.157  0.00  0.00    +0.000 A 
ATOM      7  C   UNL     1       7.845  29.442  15.147  0.00  0.00    +0.000 A 
ATOM      8  C   UNL     1       5.140  29.929  15.690  0.00  0.00    +0.000 A 
ATOM      9  C   UNL     1       5.518  28.805  14.940  0.00  0.00    +0.000 A 
ATOM     10  C   UNL     1       6.868  28.569  14.674  0.00  0.00    +0.000 A 
BRANCH   8  11
ATOM     11  C   UNL     1       3.704  30.228  16.006  0.00  0.00    +0.000 C 
ATOM     12  F   UNL     1       3.549  31.281  16.856  0.00  0.00    +0.000 F 
ATOM     13  F   UNL     1       2.984  30.539  14.896  0.00  0.00    +0.000 F 
ATOM     14  F   UNL     1       3.072  29.179  16.596  0.00  0.00    +0.000 F 
ENDBRANCH   8  11
BRANCH   9  16
ATOM     15  N   UNL     1       3.784  27.112  14.024  0.00  0.00    +0.000 NA
ATOM     16  C   UNL     1       4.562  27.872  14.426  0.00  0.00    +0.000 C 
ENDBRANCH   9  16
ENDBRANCH   1   5
BRANCH   2  17
ATOM     17  C   UNL     1      10.333  33.103  16.503  0.00  0.00    +0.000 C 
ATOM     18  C   UNL     1      11.071  34.137  15.607  0.00  0.00    +0.000 C 
BRANCH  17  19
ATOM     19  O   UNL     1      11.324  32.277  17.093  0.00  0.00    +0.000 OA
ATOM     20  H   UNL     1      12.172  32.689  16.838  0.00  0.00    +0.000 HD
ENDBRANCH  17  19
BRANCH  17  21
ATOM     21  C   UNL     1       9.594  33.755  17.539  0.00  0.00    +0.000 C 
BRANCH  21  22
ATOM     22  S   UNL     1       8.537  34.558  18.641  0.00  0.00    +0.000 S 
ATOM     23  O   UNL     1       7.289  34.077  18.105  0.00  0.00    +0.000 OA
ATOM     24  O   UNL     1       9.077  35.883  18.454  0.00  0.00    +0.000 OA
BRANCH  22  25
ATOM     25  C   UNL     1       8.824  33.965  20.242  0.00  0.00    +0.000 A 
ATOM     26  C   UNL     1       8.363  34.722  21.314  0.00  0.00    +0.000 A 
ATOM     27  C   UNL     1       8.601  34.278  22.611  0.00  0.00    +0.000 A 
ATOM     28  C   UNL     1       9.300  33.090  22.810  0.00  0.00    +0.000 A 
ATOM     29  F   UNL     1       9.529  32.662  24.059  0.00  0.00    +0.000 F 
ATOM     30  C   UNL     1       9.766  32.339  21.734  0.00  0.00    +0.000 A 
ATOM     31  C   UNL     1       9.529  32.781  20.437  0.00  0.00    +0.000 A 
ENDBRANCH  22  25
ENDBRANCH  21  22
ENDBRANCH  17  21
ENDBRANCH   2  17
TORSDOF 8
ENDMDL
MODEL 9
REMARK VINA RESULT:      -7.1      3.341      4.729
REMARK  Name = Bicalutamide.pdbqt.pdb
REMARK  8 active torsions:
REMARK  status: ('A' for Active; 'I' for Inactive)
REMARK    1  A    between atoms: C_2  and  N_13
REMARK    2  A    between atoms: C_5  and  C_9
REMARK    3  A    between atoms: C_6  and  C_8
REMARK    4  A    between atoms: C_14  and  C_17
REMARK    5  A    between atoms: C_17  and  O_19
REMARK    6  A    between atoms: C_17  and  C_21
REMARK    7  A    between atoms: C_21  and  S_22
REMARK    8  A    between atoms: S_22  and  C_25
REMARK                            x       y       z     vdW  Elec       q    Type
REMARK                         _______ _______ _______ _____ _____    ______ ____
ROOT
ATOM      1  N   UNL     1       6.219  31.970  16.521  0.00  0.00    +0.000 N 
ATOM      2  C   UNL     1       6.423  33.317  16.236  0.00  0.00    +0.000 C 
ATOM      3  O   UNL     1       5.581  34.063  15.725  0.00  0.00    +0.000 OA
ATOM      4  H   UNL     1       6.962  31.496  17.036  0.00  0.00    +0.000 HD
ENDROOT
BRANCH   1   5
ATOM      5  C   UNL     1       5.056  31.234  16.239  0.00  0.00    +0.000 A 
ATOM      6  C   UNL     1       5.198  30.040  15.534  0.00  0.00    +0.000 A 
ATOM      7  C   UNL     1       3.785  31.651  16.620  0.00  0.00    +0.000 A 
ATOM      8  C   UNL     1       4.088  29.253  15.205  0.00  0.00    +0.000 A 
ATOM      9  C   UNL     1       2.812  29.685  15.598  0.00  0.00    +0.000 A 
ATOM     10  C   UNL     1       2.669  30.882  16.302  0.00  0.00    +0.000 A 
BRANCH   8  11
ATOM     11  C   UNL     1       4.298  27.976  14.445  0.00  0.00    +0.000 C 
ATOM     12  F   UNL     1       3.792  28.014  13.181  0.00  0.00    +0.000 F 
ATOM     13  F   UNL     1       5.614  27.666  14.308  0.00  0.00    +0.000 F 
ATOM     14  F   UNL     1       3.709  26.910  15.048  0.00  0.00    +0.000 F 
ENDBRANCH   8  11
BRANCH   9  16
ATOM     15  N   UNL     1       0.661  28.344  15.063  0.00  0.00    +0.000 NA
ATOM     16  C   UNL     1       1.628  28.937  15.301  0.00  0.00    +0.000 C 
ENDBRANCH   9  16
ENDBRANCH   1   5
BRANCH   2  17
ATOM     17  C   UNL     1       7.868  33.867  16.575  0.00  0.00    +0.000 C 
ATOM     18  C   UNL     1       8.057  34.057  18.106  0.00  0.00    +0.000 C 
BRANCH  17  19
ATOM     19  O   UNL     1       8.067  35.133  15.968  0.00  0.00    +0.000 OA
ATOM     20  H   UNL     1       8.335  34.929  15.051  0.00  0.00    +0.000 HD
ENDBRANCH  17  19
BRANCH  17  21
ATOM     21  C   UNL     1       8.828  32.945  16.050  0.00  0.00    +0.000 C 
BRANCH  21  22
ATOM     22  S   UNL     1       9.847  31.812  15.242  0.00  0.00    +0.000 S 
ATOM     23  O   UNL     1      10.229  32.645  14.131  0.00  0.00    +0.000 OA
ATOM     24  O   UNL     1       8.891  30.732  15.194  0.00  0.00    +0.000 OA
BRANCH  22  25
ATOM     25  C   UNL     1      11.197  31.433  16.259  0.00  0.00    +0.000 A 
ATOM     26  C   UNL     1      11.046  31.588  17.633  0.00  0.00    +0.000 A 
ATOM     27  C   UNL     1      12.124  31.312  18.469  0.00  0.00    +0.000 A 
ATOM     28  C   UNL     1      13.330  30.891  17.915  0.00  0.00    +0.000 A 
ATOM     29  F   UNL     1      14.367  30.625  18.720  0.00  0.00    +0.000 F 
ATOM     30  C   UNL     1      13.478  30.744  16.538  0.00  0.00    +0.000 A 
ATOM     31  C   UNL     1      12.402  31.020  15.701  0.00  0.00    +0.000 A 
ENDBRANCH  22  25
ENDBRANCH  21  22
ENDBRANCH  17  21
ENDBRANCH   2  17
TORSDOF 8
ENDMDL
