MODEL 1
REMARK VINA RESULT:      -6.7      0.000      0.000
REMARK  Name = Bisphenol_A.pdbqt.pdb
REMARK  4 active torsions:
REMARK  status: ('A' for Active; 'I' for Inactive)
REMARK    1  A    between atoms: C_1  and  C_4
REMARK    2  A    between atoms: C_1  and  C_12
REMARK    3  A    between atoms: C_7  and  O_10
REMARK    4  A    between atoms: C_15  and  O_18
REMARK                            x       y       z     vdW  Elec       q    Type
REMARK                         _______ _______ _______ _____ _____    ______ ____
ROOT
ATOM      1  C   UNL     1     -15.604  29.534  22.602  0.00  0.00    +0.000 C 
ATOM      2  C   UNL     1     -14.313  28.860  23.187  0.00  0.00    +0.000 C 
ATOM      3  C   UNL     1     -16.849  28.932  23.346  0.00  0.00    +0.000 C 
ENDROOT
BRANCH   1   4
ATOM      4  C   UNL     1     -15.469  31.044  22.851  0.00  0.00    +0.000 A 
ATOM      5  C   UNL     1     -14.489  31.524  23.739  0.00  0.00    +0.000 A 
ATOM      6  C   UNL     1     -14.350  32.885  24.001  0.00  0.00    +0.000 A 
ATOM      7  C   UNL     1     -15.203  33.788  23.378  0.00  0.00    +0.000 A 
ATOM      8  C   UNL     1     -16.188  33.348  22.502  0.00  0.00    +0.000 A 
ATOM      9  C   UNL     1     -16.318  31.984  22.249  0.00  0.00    +0.000 A 
BRANCH   7  10
ATOM     10  O   UNL     1     -15.092  35.127  23.609  0.00  0.00    +0.000 OA
ATOM     11  H   UNL     1     -14.546  35.260  24.404  0.00  0.00    +0.000 HD
ENDBRANCH   7  10
ENDBRANCH   1   4
BRANCH   1  12
ATOM     12  C   UNL     1     -15.785  29.222  21.110  0.00  0.00    +0.000 A 
ATOM     13  C   UNL     1     -16.976  28.625  20.656  0.00  0.00    +0.000 A 
ATOM     14  C   UNL     1     -17.165  28.313  19.312  0.00  0.00    +0.000 A 
ATOM     15  C   UNL     1     -16.155  28.593  18.400  0.00  0.00    +0.000 A 
ATOM     16  C   UNL     1     -14.964  29.176  18.814  0.00  0.00    +0.000 A 
ATOM     17  C   UNL     1     -14.784  29.481  20.162  0.00  0.00    +0.000 A 
BRANCH  15  18
ATOM     18  O   UNL     1     -16.310  28.306  17.076  0.00  0.00    +0.000 OA
ATOM     19  H   UNL     1     -17.113  27.767  16.968  0.00  0.00    +0.000 HD
ENDBRANCH  15  18
ENDBRANCH   1  12
TORSDOF 4
ENDMDL
MODEL 2
REMARK VINA RESULT:      -6.7      0.048      5.706
REMARK  Name = Bisphenol_A.pdbqt.pdb
REMARK  4 active torsions:
REMARK  status: ('A' for Active; 'I' for Inactive)
REMARK    1  A    between atoms: C_1  and  C_4
REMARK    2  A    between atoms: C_1  and  C_12
REMARK    3  A    between atoms: C_7  and  O_10
REMARK    4  A    between atoms: C_15  and  O_18
REMARK                            x       y       z     vdW  Elec       q    Type
REMARK                         _______ _______ _______ _____ _____    ______ ____
ROOT
ATOM      1  C   UNL     1     -15.586  29.515  22.571  0.00  0.00    +0.000 C 
ATOM      2  C   UNL     1     -16.807  28.887  23.333  0.00  0.00    +0.000 C 
ATOM      3  C   UNL     1     -14.274  28.854  23.125  0.00  0.00    +0.000 C 
ENDROOT
BRANCH   1   4
ATOM      4  C   UNL     1     -15.790  29.214  21.079  0.00  0.00    +0.000 A 
ATOM      5  C   UNL     1     -16.989  28.624  20.639  0.00  0.00    +0.000 A 
ATOM      6  C   UNL     1     -17.200  28.320  19.296  0.00  0.00    +0.000 A 
ATOM      7  C   UNL     1     -16.201  28.600  18.372  0.00  0.00    +0.000 A 
ATOM      8  C   UNL     1     -15.001  29.175  18.772  0.00  0.00    +0.000 A 
ATOM      9  C   UNL     1     -14.801  29.472  20.119  0.00  0.00    +0.000 A 
BRANCH   7  10
ATOM     10  O   UNL     1     -16.375  28.320  17.049  0.00  0.00    +0.000 OA
ATOM     11  H   UNL     1     -17.300  28.507  16.811  0.00  0.00    +0.000 HD
ENDBRANCH   7  10
ENDBRANCH   1   4
BRANCH   1  12
ATOM     12  C   UNL     1     -15.467  31.024  22.831  0.00  0.00    +0.000 A 
ATOM     13  C   UNL     1     -14.471  31.512  23.697  0.00  0.00    +0.000 A 
ATOM     14  C   UNL     1     -14.347  32.872  23.969  0.00  0.00    +0.000 A 
ATOM     15  C   UNL     1     -15.228  33.767  23.374  0.00  0.00    +0.000 A 
ATOM     16  C   UNL     1     -16.227  33.320  22.518  0.00  0.00    +0.000 A 
ATOM     17  C   UNL     1     -16.344  31.957  22.257  0.00  0.00    +0.000 A 
BRANCH  15  18
ATOM     18  O   UNL     1     -15.130  35.106  23.613  0.00  0.00    +0.000 OA
ATOM     19  H   UNL     1     -15.365  35.584  22.798  0.00  0.00    +0.000 HD
ENDBRANCH  15  18
ENDBRANCH   1  12
TORSDOF 4
ENDMDL
MODEL 3
REMARK VINA RESULT:      -6.2      1.552      2.332
REMARK  Name = Bisphenol_A.pdbqt.pdb
REMARK  4 active torsions:
REMARK  status: ('A' for Active; 'I' for Inactive)
REMARK    1  A    between atoms: C_1  and  C_4
REMARK    2  A    between atoms: C_1  and  C_12
REMARK    3  A    between atoms: C_7  and  O_10
REMARK    4  A    between atoms: C_15  and  O_18
REMARK                            x       y       z     vdW  Elec       q    Type
REMARK                         _______ _______ _______ _____ _____    ______ ____
ROOT
ATOM      1  C   UNL     1     -15.706  30.706  24.084  0.00  0.00    +0.000 C 
ATOM      2  C   UNL     1     -15.192  29.816  25.270  0.00  0.00    +0.000 C 
ATOM      3  C   UNL     1     -17.271  30.794  24.184  0.00  0.00    +0.000 C 
ENDROOT
BRANCH   1   4
ATOM      4  C   UNL     1     -15.048  32.085  24.244  0.00  0.00    +0.000 A 
ATOM      5  C   UNL     1     -14.020  32.267  25.187  0.00  0.00    +0.000 A 
ATOM      6  C   UNL     1     -13.413  33.508  25.370  0.00  0.00    +0.000 A 
ATOM      7  C   UNL     1     -13.837  34.590  24.610  0.00  0.00    +0.000 A 
ATOM      8  C   UNL     1     -14.855  34.449  23.675  0.00  0.00    +0.000 A 
ATOM      9  C   UNL     1     -15.456  33.203  23.502  0.00  0.00    +0.000 A 
BRANCH   7  10
ATOM     10  O   UNL     1     -13.263  35.817  24.761  0.00  0.00    +0.000 OA
ATOM     11  H   UNL     1     -12.348  35.696  25.070  0.00  0.00    +0.000 HD
ENDBRANCH   7  10
ENDBRANCH   1   4
BRANCH   1  12
ATOM     12  C   UNL     1     -15.382  30.081  22.719  0.00  0.00    +0.000 A 
ATOM     13  C   UNL     1     -14.176  29.381  22.535  0.00  0.00    +0.000 A 
ATOM     14  C   UNL     1     -13.843  28.817  21.306  0.00  0.00    +0.000 A 
ATOM     15  C   UNL     1     -14.720  28.952  20.237  0.00  0.00    +0.000 A 
ATOM     16  C   UNL     1     -15.918  29.642  20.381  0.00  0.00    +0.000 A 
ATOM     17  C   UNL     1     -16.238  30.205  21.614  0.00  0.00    +0.000 A 
BRANCH  15  18
ATOM     18  O   UNL     1     -14.429  28.406  19.022  0.00  0.00    +0.000 OA
ATOM     19  H   UNL     1     -13.833  27.649  19.157  0.00  0.00    +0.000 HD
ENDBRANCH  15  18
ENDBRANCH   1  12
TORSDOF 4
ENDMDL
MODEL 4
REMARK VINA RESULT:      -5.5     25.346     26.908
REMARK  Name = Bisphenol_A.pdbqt.pdb
REMARK  4 active torsions:
REMARK  status: ('A' for Active; 'I' for Inactive)
REMARK    1  A    between atoms: C_1  and  C_4
REMARK    2  A    between atoms: C_1  and  C_12
REMARK    3  A    between atoms: C_7  and  O_10
REMARK    4  A    between atoms: C_15  and  O_18
REMARK                            x       y       z     vdW  Elec       q    Type
REMARK                         _______ _______ _______ _____ _____    ______ ____
ROOT
ATOM      1  C   UNL     1       9.576  37.082  15.318  0.00  0.00    +0.000 C 
ATOM      2  C   UNL     1      10.878  36.910  14.458  0.00  0.00    +0.000 C 
ATOM      3  C   UNL     1       8.517  37.852  14.450  0.00  0.00    +0.000 C 
ENDROOT
BRANCH   1   4
ATOM      4  C   UNL     1       9.094  35.670  15.682  0.00  0.00    +0.000 A 
ATOM      5  C   UNL     1       9.931  34.562  15.458  0.00  0.00    +0.000 A 
ATOM      6  C   UNL     1       9.519  33.266  15.760  0.00  0.00    +0.000 A 
ATOM      7  C   UNL     1       8.251  33.063  16.290  0.00  0.00    +0.000 A 
ATOM      8  C   UNL     1       7.394  34.132  16.517  0.00  0.00    +0.000 A 
ATOM      9  C   UNL     1       7.817  35.424  16.208  0.00  0.00    +0.000 A 
BRANCH   7  10
ATOM     10  O   UNL     1       7.817  31.808  16.601  0.00  0.00    +0.000 OA
ATOM     11  H   UNL     1       7.246  31.490  15.881  0.00  0.00    +0.000 HD
ENDBRANCH   7  10
ENDBRANCH   1   4
BRANCH   1  12
ATOM     12  C   UNL     1       9.827  37.934  16.570  0.00  0.00    +0.000 A 
ATOM     13  C   UNL     1       9.868  39.337  16.470  0.00  0.00    +0.000 A 
ATOM     14  C   UNL     1      10.111  40.138  17.582  0.00  0.00    +0.000 A 
ATOM     15  C   UNL     1      10.322  39.539  18.818  0.00  0.00    +0.000 A 
ATOM     16  C   UNL     1      10.294  38.157  18.953  0.00  0.00    +0.000 A 
ATOM     17  C   UNL     1      10.053  37.365  17.832  0.00  0.00    +0.000 A 
BRANCH  15  18
ATOM     18  O   UNL     1      10.556  40.295  19.929  0.00  0.00    +0.000 OA
ATOM     19  H   UNL     1       9.807  40.903  20.054  0.00  0.00    +0.000 HD
ENDBRANCH  15  18
ENDBRANCH   1  12
TORSDOF 4
ENDMDL
MODEL 5
REMARK VINA RESULT:      -5.4     23.982     26.358
REMARK  Name = Bisphenol_A.pdbqt.pdb
REMARK  4 active torsions:
REMARK  status: ('A' for Active; 'I' for Inactive)
REMARK    1  A    between atoms: C_1  and  C_4
REMARK    2  A    between atoms: C_1  and  C_12
REMARK    3  A    between atoms: C_7  and  O_10
REMARK    4  A    between atoms: C_15  and  O_18
REMARK                            x       y       z     vdW  Elec       q    Type
REMARK                         _______ _______ _______ _____ _____    ______ ____
ROOT
ATOM      1  C   UNL     1       5.249  17.907  10.462  0.00  0.00    +0.000 C 
ATOM      2  C   UNL     1       6.161  17.822   9.186  0.00  0.00    +0.000 C 
ATOM      3  C   UNL     1       6.016  18.734  11.554  0.00  0.00    +0.000 C 
ENDROOT
BRANCH   1   4
ATOM      4  C   UNL     1       3.947  18.600  10.033  0.00  0.00    +0.000 A 
ATOM      5  C   UNL     1       3.422  19.649  10.809  0.00  0.00    +0.000 A 
ATOM      6  C   UNL     1       2.234  20.288  10.460  0.00  0.00    +0.000 A 
ATOM      7  C   UNL     1       1.551  19.876   9.322  0.00  0.00    +0.000 A 
ATOM      8  C   UNL     1       2.037  18.838   8.536  0.00  0.00    +0.000 A 
ATOM      9  C   UNL     1       3.224  18.206   8.898  0.00  0.00    +0.000 A 
BRANCH   7  10
ATOM     10  O   UNL     1       0.388  20.482   8.948  0.00  0.00    +0.000 OA
ATOM     11  H   UNL     1      -0.270  19.794   8.747  0.00  0.00    +0.000 HD
ENDBRANCH   7  10
ENDBRANCH   1   4
BRANCH   1  12
ATOM     12  C   UNL     1       4.979  16.521  11.063  0.00  0.00    +0.000 A 
ATOM     13  C   UNL     1       6.023  15.582  11.165  0.00  0.00    +0.000 A 
ATOM     14  C   UNL     1       5.808  14.310  11.689  0.00  0.00    +0.000 A 
ATOM     15  C   UNL     1       4.534  13.958  12.117  0.00  0.00    +0.000 A 
ATOM     16  C   UNL     1       3.478  14.857  12.026  0.00  0.00    +0.000 A 
ATOM     17  C   UNL     1       3.704  16.125  11.497  0.00  0.00    +0.000 A 
BRANCH  15  18
ATOM     18  O   UNL     1       4.290  12.723  12.641  0.00  0.00    +0.000 OA
ATOM     19  H   UNL     1       4.281  12.075  11.914  0.00  0.00    +0.000 HD
ENDBRANCH  15  18
ENDBRANCH   1  12
TORSDOF 4
ENDMDL
MODEL 6
REMARK VINA RESULT:      -5.4      2.631      4.143
REMARK  Name = Bisphenol_A.pdbqt.pdb
REMARK  4 active torsions:
REMARK  status: ('A' for Active; 'I' for Inactive)
REMARK    1  A    between atoms: C_1  and  C_4
REMARK    2  A    between atoms: C_1  and  C_12
REMARK    3  A    between atoms: C_7  and  O_10
REMARK    4  A    between atoms: C_15  and  O_18
REMARK                            x       y       z     vdW  Elec       q    Type
REMARK                         _______ _______ _______ _____ _____    ______ ____
ROOT
ATOM      1  C   UNL     1     -16.288  32.093  25.654  0.00  0.00    +0.000 C 
ATOM      2  C   UNL     1     -15.988  31.381  27.021  0.00  0.00    +0.000 C 
ATOM      3  C   UNL     1     -17.844  32.255  25.521  0.00  0.00    +0.000 C 
ENDROOT
BRANCH   1   4
ATOM      4  C   UNL     1     -15.576  33.453  25.695  0.00  0.00    +0.000 A 
ATOM      5  C   UNL     1     -16.328  34.635  25.820  0.00  0.00    +0.000 A 
ATOM      6  C   UNL     1     -15.716  35.887  25.843  0.00  0.00    +0.000 A 
ATOM      7  C   UNL     1     -14.333  35.969  25.733  0.00  0.00    +0.000 A 
ATOM      8  C   UNL     1     -13.560  34.823  25.599  0.00  0.00    +0.000 A 
ATOM      9  C   UNL     1     -14.184  33.577  25.576  0.00  0.00    +0.000 A 
BRANCH   7  10
ATOM     10  O   UNL     1     -13.701  37.177  25.755  0.00  0.00    +0.000 OA
ATOM     11  H   UNL     1     -13.583  37.448  26.682  0.00  0.00    +0.000 HD
ENDBRANCH   7  10
ENDBRANCH   1   4
BRANCH   1  12
ATOM     12  C   UNL     1     -15.825  31.249  24.457  0.00  0.00    +0.000 A 
ATOM     13  C   UNL     1     -15.103  30.061  24.672  0.00  0.00    +0.000 A 
ATOM     14  C   UNL     1     -14.654  29.281  23.610  0.00  0.00    +0.000 A 
ATOM     15  C   UNL     1     -14.920  29.688  22.308  0.00  0.00    +0.000 A 
ATOM     16  C   UNL     1     -15.624  30.860  22.058  0.00  0.00    +0.000 A 
ATOM     17  C   UNL     1     -16.066  31.633  23.130  0.00  0.00    +0.000 A 
BRANCH  15  18
ATOM     18  O   UNL     1     -14.499  28.946  21.244  0.00  0.00    +0.000 OA
ATOM     19  H   UNL     1     -13.536  29.050  21.156  0.00  0.00    +0.000 HD
ENDBRANCH  15  18
ENDBRANCH   1  12
TORSDOF 4
ENDMDL
MODEL 7
REMARK VINA RESULT:      -5.3     23.800     26.332
REMARK  Name = Bisphenol_A.pdbqt.pdb
REMARK  4 active torsions:
REMARK  status: ('A' for Active; 'I' for Inactive)
REMARK    1  A    between atoms: C_1  and  C_4
REMARK    2  A    between atoms: C_1  and  C_12
REMARK    3  A    between atoms: C_7  and  O_10
REMARK    4  A    between atoms: C_15  and  O_18
REMARK                            x       y       z     vdW  Elec       q    Type
REMARK                         _______ _______ _______ _____ _____    ______ ____
ROOT
ATOM      1  C   UNL     1       5.009  18.346  10.404  0.00  0.00    +0.000 C 
ATOM      2  C   UNL     1       5.561  19.191  11.606  0.00  0.00    +0.000 C 
ATOM      3  C   UNL     1       6.052  18.426   9.232  0.00  0.00    +0.000 C 
ENDROOT
BRANCH   1   4
ATOM      4  C   UNL     1       4.835  16.907  10.913  0.00  0.00    +0.000 A 
ATOM      5  C   UNL     1       5.921  16.014  10.877  0.00  0.00    +0.000 A 
ATOM      6  C   UNL     1       5.794  14.697  11.315  0.00  0.00    +0.000 A 
ATOM      7  C   UNL     1       4.566  14.256  11.792  0.00  0.00    +0.000 A 
ATOM      8  C   UNL     1       3.470  15.108  11.834  0.00  0.00    +0.000 A 
ATOM      9  C   UNL     1       3.609  16.422  11.391  0.00  0.00    +0.000 A 
BRANCH   7  10
ATOM     10  O   UNL     1       4.408  12.975  12.232  0.00  0.00    +0.000 OA
ATOM     11  H   UNL     1       5.287  12.566  12.318  0.00  0.00    +0.000 HD
ENDBRANCH   7  10
ENDBRANCH   1   4
BRANCH   1  12
ATOM     12  C   UNL     1       3.690  18.916   9.863  0.00  0.00    +0.000 A 
ATOM     13  C   UNL     1       3.224  18.529   8.594  0.00  0.00    +0.000 A 
ATOM     14  C   UNL     1       2.041  19.040   8.066  0.00  0.00    +0.000 A 
ATOM     15  C   UNL     1       1.306  19.957   8.808  0.00  0.00    +0.000 A 
ATOM     16  C   UNL     1       1.740  20.368  10.063  0.00  0.00    +0.000 A 
ATOM     17  C   UNL     1       2.927  19.851  10.579  0.00  0.00    +0.000 A 
BRANCH  15  18
ATOM     18  O   UNL     1       0.141  20.473   8.325  0.00  0.00    +0.000 OA
ATOM     19  H   UNL     1       0.213  20.549   7.357  0.00  0.00    +0.000 HD
ENDBRANCH  15  18
ENDBRANCH   1  12
TORSDOF 4
ENDMDL
MODEL 8
REMARK VINA RESULT:      -5.1     13.928     17.040
REMARK  Name = Bisphenol_A.pdbqt.pdb
REMARK  4 active torsions:
REMARK  status: ('A' for Active; 'I' for Inactive)
REMARK    1  A    between atoms: C_1  and  C_4
REMARK    2  A    between atoms: C_1  and  C_12
REMARK    3  A    between atoms: C_7  and  O_10
REMARK    4  A    between atoms: C_15  and  O_18
REMARK                            x       y       z     vdW  Elec       q    Type
REMARK                         _______ _______ _______ _____ _____    ______ ____
ROOT
ATOM      1  C   UNL     1     -15.865  31.131   4.871  0.00  0.00    +0.000 C 
ATOM      2  C   UNL     1     -14.851  32.290   5.175  0.00  0.00    +0.000 C 
ATOM      3  C   UNL     1     -15.043  29.861   4.451  0.00  0.00    +0.000 C 
ENDROOT
BRANCH   1   4
ATOM      4  C   UNL     1     -16.665  30.890   6.161  0.00  0.00    +0.000 A 
ATOM      5  C   UNL     1     -16.370  31.632   7.318  0.00  0.00    +0.000 A 
ATOM      6  C   UNL     1     -17.063  31.426   8.510  0.00  0.00    +0.000 A 
ATOM      7  C   UNL     1     -18.063  30.463   8.556  0.00  0.00    +0.000 A 
ATOM      8  C   UNL     1     -18.375  29.706   7.434  0.00  0.00    +0.000 A 
ATOM      9  C   UNL     1     -17.673  29.919   6.249  0.00  0.00    +0.000 A 
BRANCH   7  10
ATOM     10  O   UNL     1     -18.764  30.239   9.704  0.00  0.00    +0.000 OA
ATOM     11  H   UNL     1     -19.151  31.081  10.000  0.00  0.00    +0.000 HD
ENDBRANCH   7  10
ENDBRANCH   1   4
BRANCH   1  12
ATOM     12  C   UNL     1     -16.787  31.473   3.691  0.00  0.00    +0.000 A 
ATOM     13  C   UNL     1     -17.339  32.762   3.582  0.00  0.00    +0.000 A 
ATOM     14  C   UNL     1     -18.192  33.101   2.535  0.00  0.00    +0.000 A 
ATOM     15  C   UNL     1     -18.508  32.143   1.579  0.00  0.00    +0.000 A 
ATOM     16  C   UNL     1     -17.986  30.858   1.659  0.00  0.00    +0.000 A 
ATOM     17  C   UNL     1     -17.136  30.530   2.713  0.00  0.00    +0.000 A 
BRANCH  15  18
ATOM     18  O   UNL     1     -19.335  32.443   0.537  0.00  0.00    +0.000 OA
ATOM     19  H   UNL     1     -19.314  31.704  -0.097  0.00  0.00    +0.000 HD
ENDBRANCH  15  18
ENDBRANCH   1  12
TORSDOF 4
ENDMDL
MODEL 9
REMARK VINA RESULT:      -5.0     29.929     31.943
REMARK  Name = Bisphenol_A.pdbqt.pdb
REMARK  4 active torsions:
REMARK  status: ('A' for Active; 'I' for Inactive)
REMARK    1  A    between atoms: C_1  and  C_4
REMARK    2  A    between atoms: C_1  and  C_12
REMARK    3  A    between atoms: C_7  and  O_10
REMARK    4  A    between atoms: C_15  and  O_18
REMARK                            x       y       z     vdW  Elec       q    Type
REMARK                         _______ _______ _______ _____ _____    ______ ____
ROOT
ATOM      1  C   UNL     1       1.738  26.434  -3.674  0.00  0.00    +0.000 C 
ATOM      2  C   UNL     1       1.895  26.325  -2.116  0.00  0.00    +0.000 C 
ATOM      3  C   UNL     1       2.032  27.920  -4.090  0.00  0.00    +0.000 C 
ENDROOT
BRANCH   1   4
ATOM      4  C   UNL     1       2.752  25.460  -4.293  0.00  0.00    +0.000 A 
ATOM      5  C   UNL     1       3.238  24.379  -3.535  0.00  0.00    +0.000 A 
ATOM      6  C   UNL     1       4.172  23.486  -4.059  0.00  0.00    +0.000 A 
ATOM      7  C   UNL     1       4.636  23.672  -5.355  0.00  0.00    +0.000 A 
ATOM      8  C   UNL     1       4.183  24.733  -6.129  0.00  0.00    +0.000 A 
ATOM      9  C   UNL     1       3.252  25.621  -5.593  0.00  0.00    +0.000 A 
BRANCH   7  10
ATOM     10  O   UNL     1       5.546  22.815  -5.900  0.00  0.00    +0.000 OA
ATOM     11  H   UNL     1       5.336  22.698  -6.843  0.00  0.00    +0.000 HD
ENDBRANCH   7  10
ENDBRANCH   1   4
BRANCH   1  12
ATOM     12  C   UNL     1       0.305  26.121  -4.127  0.00  0.00    +0.000 A 
ATOM     13  C   UNL     1      -0.583  27.171  -4.426  0.00  0.00    +0.000 A 
ATOM     14  C   UNL     1      -1.894  26.923  -4.822  0.00  0.00    +0.000 A 
ATOM     15  C   UNL     1      -2.337  25.609  -4.920  0.00  0.00    +0.000 A 
ATOM     16  C   UNL     1      -1.490  24.548  -4.627  0.00  0.00    +0.000 A 
ATOM     17  C   UNL     1      -0.181  24.809  -4.228  0.00  0.00    +0.000 A 
BRANCH  15  18
ATOM     18  O   UNL     1      -3.614  25.330  -5.311  0.00  0.00    +0.000 OA
ATOM     19  H   UNL     1      -4.225  25.658  -4.629  0.00  0.00    +0.000 HD
ENDBRANCH  15  18
ENDBRANCH   1  12
TORSDOF 4
ENDMDL
