MODEL 1
REMARK VINA RESULT:      -5.5      0.000      0.000
REMARK  Name = BX795.pdbqt.pdb
REMARK  7 active torsions:
REMARK  status: ('A' for Active; 'I' for Inactive)
REMARK    1  A    between atoms: C_4  and  N_25
REMARK    2  A    between atoms: N_8  and  C_10
REMARK    3  A    between atoms: C_12  and  N_16
REMARK    4  A    between atoms: N_25  and  C_27
REMARK    5  A    between atoms: C_27  and  C_28
REMARK    6  A    between atoms: C_29  and  N_30
REMARK    7  A    between atoms: C_31  and  C_34
REMARK                            x       y       z     vdW  Elec       q    Type
REMARK                         _______ _______ _______ _____ _____    ______ ____
ROOT
ATOM      1  I   UNL     1      -4.567   7.894  26.526  0.00  0.00    +0.000 I 
ATOM      2  N   UNL     1      -8.023  10.139  25.215  0.00  0.00    +0.000 NA
ATOM      3  N   UNL     1      -8.729   8.774  26.996  0.00  0.00    +0.000 NA
ATOM      4  C   UNL     1      -6.770   9.642  25.286  0.00  0.00    +0.000 A 
ATOM      5  C   UNL     1      -8.964   9.696  26.060  0.00  0.00    +0.000 A 
ATOM      6  C   UNL     1      -6.436   8.721  26.259  0.00  0.00    +0.000 A 
ATOM      7  C   UNL     1      -7.464   8.323  27.079  0.00  0.00    +0.000 A 
ATOM      8  N   UNL     1     -10.272  10.161  25.963  0.00  0.00    +0.000 N 
ATOM      9  H   UNL     1     -10.882   9.687  26.612  0.00  0.00    +0.000 HD
ENDROOT
BRANCH   8  10
ATOM     10  C   UNL     1     -10.787  11.266  25.275  0.00  0.00    +0.000 A 
ATOM     11  C   UNL     1     -11.443  11.145  24.046  0.00  0.00    +0.000 A 
ATOM     12  C   UNL     1     -12.040  12.236  23.416  0.00  0.00    +0.000 A 
ATOM     13  C   UNL     1     -12.008  13.479  24.039  0.00  0.00    +0.000 A 
ATOM     14  C   UNL     1     -11.371  13.626  25.268  0.00  0.00    +0.000 A 
ATOM     15  C   UNL     1     -10.769  12.526  25.880  0.00  0.00    +0.000 A 
BRANCH  12  16
ATOM     16  N   UNL     1     -12.609  12.022  22.148  0.00  0.00    +0.000 N 
ATOM     17  C   UNL     1     -13.959  11.900  21.871  0.00  0.00    +0.000 C 
ATOM     18  O   UNL     1     -14.837  11.826  22.730  0.00  0.00    +0.000 OA
ATOM     19  N   UNL     1     -14.246  11.839  20.508  0.00  0.00    +0.000 N 
ATOM     20  C   UNL     1     -13.456  11.873  19.398  0.00  0.00    +0.000 A 
ATOM     21  C   UNL     1     -15.458  11.712  19.898  0.00  0.00    +0.000 A 
ATOM     22  C   UNL     1     -14.073  11.761  18.000  0.00  0.00    +0.000 A 
ATOM     23  C   UNL     1     -15.559  11.641  18.370  0.00  0.00    +0.000 A 
ATOM     24  H   UNL     1     -11.963  11.872  21.383  0.00  0.00    +0.000 HD
ENDBRANCH  12  16
ENDBRANCH   8  10
BRANCH   4  25
ATOM     25  N   UNL     1      -5.790  10.135  24.387  0.00  0.00    +0.000 N 
ATOM     26  H   UNL     1      -5.071   9.430  24.243  0.00  0.00    +0.000 HD
BRANCH  25  27
ATOM     27  C   UNL     1      -6.297  10.739  23.157  0.00  0.00    +0.000 C 
BRANCH  27  28
ATOM     28  C   UNL     1      -6.866  11.273  21.839  0.00  0.00    +0.000 C 
ATOM     29  C   UNL     1      -7.520  11.780  20.551  0.00  0.00    +0.000 C 
BRANCH  29  30
ATOM     30  N   UNL     1      -8.145  12.237  19.442  0.00  0.00    +0.000 N 
ATOM     31  C   UNL     1      -9.505  12.301  19.173  0.00  0.00    +0.000 C 
ATOM     32  O   UNL     1     -10.335  11.941  20.006  0.00  0.00    +0.000 OA
ATOM     33  H   UNL     1      -7.507  12.506  18.701  0.00  0.00    +0.000 HD
BRANCH  31  34
ATOM     34  C   UNL     1      -9.844  12.797  17.850  0.00  0.00    +0.000 A 
ATOM     35  S   UNL     1      -8.949  12.268  16.478  0.00  0.00    +0.000 S 
ATOM     36  C   UNL     1      -9.872  13.235  15.436  0.00  0.00    +0.000 A 
ATOM     37  C   UNL     1     -10.843  13.949  16.082  0.00  0.00    +0.000 A 
ATOM     38  C   UNL     1     -10.823  13.693  17.471  0.00  0.00    +0.000 A 
ENDBRANCH  31  34
ENDBRANCH  29  30
ENDBRANCH  27  28
ENDBRANCH  25  27
ENDBRANCH   4  25
TORSDOF 7
ENDMDL
MODEL 2
REMARK VINA RESULT:      -5.4     33.742     35.941
REMARK  Name = BX795.pdbqt.pdb
REMARK  7 active torsions:
REMARK  status: ('A' for Active; 'I' for Inactive)
REMARK    1  A    between atoms: C_4  and  N_25
REMARK    2  A    between atoms: N_8  and  C_10
REMARK    3  A    between atoms: C_12  and  N_16
REMARK    4  A    between atoms: N_25  and  C_27
REMARK    5  A    between atoms: C_27  and  C_28
REMARK    6  A    between atoms: C_29  and  N_30
REMARK    7  A    between atoms: C_31  and  C_34
REMARK                            x       y       z     vdW  Elec       q    Type
REMARK                         _______ _______ _______ _____ _____    ______ ____
ROOT
ATOM      1  I   UNL     1      19.527  38.473  14.700  0.00  0.00    +0.000 I 
ATOM      2  N   UNL     1      16.010  40.061  16.652  0.00  0.00    +0.000 NA
ATOM      3  N   UNL     1      16.973  41.828  15.433  0.00  0.00    +0.000 NA
ATOM      4  C   UNL     1      16.992  39.217  16.271  0.00  0.00    +0.000 A 
ATOM      5  C   UNL     1      16.024  41.334  16.232  0.00  0.00    +0.000 A 
ATOM      6  C   UNL     1      17.982  39.640  15.406  0.00  0.00    +0.000 A 
ATOM      7  C   UNL     1      17.919  40.960  15.029  0.00  0.00    +0.000 A 
ATOM      8  N   UNL     1      15.048  42.227  16.660  0.00  0.00    +0.000 N 
ATOM      9  H   UNL     1      15.228  43.161  16.324  0.00  0.00    +0.000 HD
ENDROOT
BRANCH   8  10
ATOM     10  C   UNL     1      13.819  41.988  17.286  0.00  0.00    +0.000 A 
ATOM     11  C   UNL     1      12.851  41.140  16.738  0.00  0.00    +0.000 A 
ATOM     12  C   UNL     1      11.672  40.830  17.414  0.00  0.00    +0.000 A 
ATOM     13  C   UNL     1      11.460  41.357  18.684  0.00  0.00    +0.000 A 
ATOM     14  C   UNL     1      12.412  42.195  19.258  0.00  0.00    +0.000 A 
ATOM     15  C   UNL     1      13.582  42.503  18.563  0.00  0.00    +0.000 A 
BRANCH  12  16
ATOM     16  N   UNL     1      10.731  40.028  16.744  0.00  0.00    +0.000 N 
ATOM     17  C   UNL     1      10.458  38.698  17.011  0.00  0.00    +0.000 C 
ATOM     18  O   UNL     1      11.110  38.001  17.787  0.00  0.00    +0.000 OA
ATOM     19  N   UNL     1       9.376  38.194  16.288  0.00  0.00    +0.000 N 
ATOM     20  C   UNL     1       8.540  38.757  15.371  0.00  0.00    +0.000 A 
ATOM     21  C   UNL     1       8.853  36.937  16.306  0.00  0.00    +0.000 A 
ATOM     22  C   UNL     1       7.430  37.926  14.719  0.00  0.00    +0.000 A 
ATOM     23  C   UNL     1       7.662  36.575  15.412  0.00  0.00    +0.000 A 
ATOM     24  H   UNL     1      10.266  40.446  15.947  0.00  0.00    +0.000 HD
ENDBRANCH  12  16
ENDBRANCH   8  10
BRANCH   4  25
ATOM     25  N   UNL     1      16.947  37.873  16.721  0.00  0.00    +0.000 N 
ATOM     26  H   UNL     1      17.397  37.800  17.631  0.00  0.00    +0.000 HD
BRANCH  25  27
ATOM     27  C   UNL     1      15.646  37.215  16.637  0.00  0.00    +0.000 C 
BRANCH  27  28
ATOM     28  C   UNL     1      14.318  36.472  16.461  0.00  0.00    +0.000 C 
ATOM     29  C   UNL     1      13.037  35.662  16.240  0.00  0.00    +0.000 C 
BRANCH  29  30
ATOM     30  N   UNL     1      11.937  34.901  16.043  0.00  0.00    +0.000 N 
ATOM     31  C   UNL     1      11.266  34.090  16.948  0.00  0.00    +0.000 C 
ATOM     32  O   UNL     1      11.632  34.008  18.119  0.00  0.00    +0.000 OA
ATOM     33  H   UNL     1      11.618  34.894  15.081  0.00  0.00    +0.000 HD
BRANCH  31  34
ATOM     34  C   UNL     1      10.142  33.355  16.394  0.00  0.00    +0.000 A 
ATOM     35  S   UNL     1      10.347  32.422  14.962  0.00  0.00    +0.000 S 
ATOM     36  C   UNL     1       8.720  31.949  14.973  0.00  0.00    +0.000 A 
ATOM     37  C   UNL     1       8.015  32.466  16.024  0.00  0.00    +0.000 A 
ATOM     38  C   UNL     1       8.838  33.275  16.839  0.00  0.00    +0.000 A 
ENDBRANCH  31  34
ENDBRANCH  29  30
ENDBRANCH  27  28
ENDBRANCH  25  27
ENDBRANCH   4  25
TORSDOF 7
ENDMDL
MODEL 3
REMARK VINA RESULT:      -5.2     35.567     37.911
REMARK  Name = BX795.pdbqt.pdb
REMARK  7 active torsions:
REMARK  status: ('A' for Active; 'I' for Inactive)
REMARK    1  A    between atoms: C_4  and  N_25
REMARK    2  A    between atoms: N_8  and  C_10
REMARK    3  A    between atoms: C_12  and  N_16
REMARK    4  A    between atoms: N_25  and  C_27
REMARK    5  A    between atoms: C_27  and  C_28
REMARK    6  A    between atoms: C_29  and  N_30
REMARK    7  A    between atoms: C_31  and  C_34
REMARK                            x       y       z     vdW  Elec       q    Type
REMARK                         _______ _______ _______ _____ _____    ______ ____
ROOT
ATOM      1  I   UNL     1      20.678  41.460  12.397  0.00  0.00    +0.000 I 
ATOM      2  N   UNL     1      17.452  39.240  14.231  0.00  0.00    +0.000 NA
ATOM      3  N   UNL     1      18.507  37.785  12.712  0.00  0.00    +0.000 NA
ATOM      4  C   UNL     1      18.285  40.248  13.897  0.00  0.00    +0.000 A 
ATOM      5  C   UNL     1      17.579  38.046  13.635  0.00  0.00    +0.000 A 
ATOM      6  C   UNL     1      19.303  40.043  12.987  0.00  0.00    +0.000 A 
ATOM      7  C   UNL     1      19.356  38.790  12.426  0.00  0.00    +0.000 A 
ATOM      8  N   UNL     1      16.693  37.015  13.932  0.00  0.00    +0.000 N 
ATOM      9  H   UNL     1      16.864  36.204  13.355  0.00  0.00    +0.000 HD
ENDROOT
BRANCH   8  10
ATOM     10  C   UNL     1      15.785  36.881  14.989  0.00  0.00    +0.000 A 
ATOM     11  C   UNL     1      14.464  37.330  14.903  0.00  0.00    +0.000 A 
ATOM     12  C   UNL     1      13.539  37.105  15.923  0.00  0.00    +0.000 A 
ATOM     13  C   UNL     1      13.932  36.388  17.048  0.00  0.00    +0.000 A 
ATOM     14  C   UNL     1      15.239  35.920  17.153  0.00  0.00    +0.000 A 
ATOM     15  C   UNL     1      16.155  36.163  16.129  0.00  0.00    +0.000 A 
BRANCH  12  16
ATOM     16  N   UNL     1      12.257  37.663  15.771  0.00  0.00    +0.000 N 
ATOM     17  C   UNL     1      11.133  37.005  15.305  0.00  0.00    +0.000 C 
ATOM     18  O   UNL     1      11.144  35.871  14.827  0.00  0.00    +0.000 OA
ATOM     19  N   UNL     1       9.965  37.761  15.396  0.00  0.00    +0.000 N 
ATOM     20  C   UNL     1       9.718  39.021  15.853  0.00  0.00    +0.000 A 
ATOM     21  C   UNL     1       8.699  37.422  15.023  0.00  0.00    +0.000 A 
ATOM     22  C   UNL     1       8.301  39.601  15.805  0.00  0.00    +0.000 A 
ATOM     23  C   UNL     1       7.544  38.415  15.189  0.00  0.00    +0.000 A 
ATOM     24  H   UNL     1      12.172  38.655  15.952  0.00  0.00    +0.000 HD
ENDBRANCH  12  16
ENDBRANCH   8  10
BRANCH   4  25
ATOM     25  N   UNL     1      18.137  41.498  14.551  0.00  0.00    +0.000 N 
ATOM     26  H   UNL     1      18.175  42.250  13.865  0.00  0.00    +0.000 HD
BRANCH  25  27
ATOM     27  C   UNL     1      17.027  41.598  15.494  0.00  0.00    +0.000 C 
BRANCH  27  28
ATOM     28  C   UNL     1      15.921  41.644  16.553  0.00  0.00    +0.000 C 
ATOM     29  C   UNL     1      14.858  41.618  17.655  0.00  0.00    +0.000 C 
BRANCH  29  30
ATOM     30  N   UNL     1      13.958  41.574  18.664  0.00  0.00    +0.000 N 
ATOM     31  C   UNL     1      12.857  40.742  18.812  0.00  0.00    +0.000 C 
ATOM     32  O   UNL     1      12.597  39.877  17.977  0.00  0.00    +0.000 OA
ATOM     33  H   UNL     1      14.097  42.297  19.360  0.00  0.00    +0.000 HD
BRANCH  31  34
ATOM     34  C   UNL     1      12.054  40.996  19.997  0.00  0.00    +0.000 A 
ATOM     35  S   UNL     1      12.043  42.563  20.708  0.00  0.00    +0.000 S 
ATOM     36  C   UNL     1      10.985  42.059  21.932  0.00  0.00    +0.000 A 
ATOM     37  C   UNL     1      10.629  40.743  21.828  0.00  0.00    +0.000 A 
ATOM     38  C   UNL     1      11.247  40.135  20.713  0.00  0.00    +0.000 A 
ENDBRANCH  31  34
ENDBRANCH  29  30
ENDBRANCH  27  28
ENDBRANCH  25  27
ENDBRANCH   4  25
TORSDOF 7
ENDMDL
MODEL 4
REMARK VINA RESULT:      -5.2     19.174     21.339
REMARK  Name = BX795.pdbqt.pdb
REMARK  7 active torsions:
REMARK  status: ('A' for Active; 'I' for Inactive)
REMARK    1  A    between atoms: C_4  and  N_25
REMARK    2  A    between atoms: N_8  and  C_10
REMARK    3  A    between atoms: C_12  and  N_16
REMARK    4  A    between atoms: N_25  and  C_27
REMARK    5  A    between atoms: C_27  and  C_28
REMARK    6  A    between atoms: C_29  and  N_30
REMARK    7  A    between atoms: C_31  and  C_34
REMARK                            x       y       z     vdW  Elec       q    Type
REMARK                         _______ _______ _______ _____ _____    ______ ____
ROOT
ATOM      1  I   UNL     1       5.219  18.515  30.966  0.00  0.00    +0.000 I 
ATOM      2  N   UNL     1       2.240  21.301  29.531  0.00  0.00    +0.000 NA
ATOM      3  N   UNL     1       1.232  20.043  31.246  0.00  0.00    +0.000 NA
ATOM      4  C   UNL     1       3.391  20.608  29.654  0.00  0.00    +0.000 A 
ATOM      5  C   UNL     1       1.196  21.003  30.319  0.00  0.00    +0.000 A 
ATOM      6  C   UNL     1       3.522  19.634  30.623  0.00  0.00    +0.000 A 
ATOM      7  C   UNL     1       2.403  19.395  31.382  0.00  0.00    +0.000 A 
ATOM      8  N   UNL     1      -0.013  21.673  30.165  0.00  0.00    +0.000 N 
ATOM      9  H   UNL     1      -0.725  21.294  30.773  0.00  0.00    +0.000 HD
ENDROOT
BRANCH   8  10
ATOM     10  C   UNL     1      -0.310  22.855  29.476  0.00  0.00    +0.000 A 
ATOM     11  C   UNL     1       0.097  24.112  29.934  0.00  0.00    +0.000 A 
ATOM     12  C   UNL     1      -0.116  25.273  29.193  0.00  0.00    +0.000 A 
ATOM     13  C   UNL     1      -0.727  25.179  27.947  0.00  0.00    +0.000 A 
ATOM     14  C   UNL     1      -1.132  23.939  27.462  0.00  0.00    +0.000 A 
ATOM     15  C   UNL     1      -0.921  22.788  28.222  0.00  0.00    +0.000 A 
BRANCH  12  16
ATOM     16  N   UNL     1       0.265  26.495  29.777  0.00  0.00    +0.000 N 
ATOM     17  C   UNL     1      -0.584  27.416  30.364  0.00  0.00    +0.000 C 
ATOM     18  O   UNL     1      -1.811  27.346  30.328  0.00  0.00    +0.000 OA
ATOM     19  N   UNL     1       0.083  28.469  30.991  0.00  0.00    +0.000 N 
ATOM     20  C   UNL     1       1.405  28.766  31.133  0.00  0.00    +0.000 A 
ATOM     21  C   UNL     1      -0.445  29.538  31.650  0.00  0.00    +0.000 A 
ATOM     22  C   UNL     1       1.841  30.036  31.872  0.00  0.00    +0.000 A 
ATOM     23  C   UNL     1       0.469  30.609  32.256  0.00  0.00    +0.000 A 
ATOM     24  H   UNL     1       1.241  26.751  29.692  0.00  0.00    +0.000 HD
ENDBRANCH  12  16
ENDBRANCH   8  10
BRANCH   4  25
ATOM     25  N   UNL     1       4.484  20.950  28.816  0.00  0.00    +0.000 N 
ATOM     26  H   UNL     1       4.244  20.761  27.845  0.00  0.00    +0.000 HD
BRANCH  25  27
ATOM     27  C   UNL     1       5.077  22.265  29.045  0.00  0.00    +0.000 C 
BRANCH  27  28
ATOM     28  C   UNL     1       5.655  23.643  29.384  0.00  0.00    +0.000 C 
ATOM     29  C   UNL     1       6.316  24.990  29.691  0.00  0.00    +0.000 C 
BRANCH  29  30
ATOM     30  N   UNL     1       6.936  26.170  29.919  0.00  0.00    +0.000 N 
ATOM     31  C   UNL     1       6.423  27.455  29.821  0.00  0.00    +0.000 C 
ATOM     32  O   UNL     1       5.246  27.649  29.516  0.00  0.00    +0.000 OA
ATOM     33  H   UNL     1       7.922  26.073  30.130  0.00  0.00    +0.000 HD
BRANCH  31  34
ATOM     34  C   UNL     1       7.379  28.518  30.082  0.00  0.00    +0.000 A 
ATOM     35  S   UNL     1       8.898  28.525  29.271  0.00  0.00    +0.000 S 
ATOM     36  C   UNL     1       9.379  29.938  30.072  0.00  0.00    +0.000 A 
ATOM     37  C   UNL     1       8.434  30.418  30.935  0.00  0.00    +0.000 A 
ATOM     38  C   UNL     1       7.284  29.597  30.937  0.00  0.00    +0.000 A 
ENDBRANCH  31  34
ENDBRANCH  29  30
ENDBRANCH  27  28
ENDBRANCH  25  27
ENDBRANCH   4  25
TORSDOF 7
ENDMDL
MODEL 5
REMARK VINA RESULT:      -5.0      9.861     12.646
REMARK  Name = BX795.pdbqt.pdb
REMARK  7 active torsions:
REMARK  status: ('A' for Active; 'I' for Inactive)
REMARK    1  A    between atoms: C_4  and  N_25
REMARK    2  A    between atoms: N_8  and  C_10
REMARK    3  A    between atoms: C_12  and  N_16
REMARK    4  A    between atoms: N_25  and  C_27
REMARK    5  A    between atoms: C_27  and  C_28
REMARK    6  A    between atoms: C_29  and  N_30
REMARK    7  A    between atoms: C_31  and  C_34
REMARK                            x       y       z     vdW  Elec       q    Type
REMARK                         _______ _______ _______ _____ _____    ______ ____
ROOT
ATOM      1  I   UNL     1     -18.228  20.915  25.411  0.00  0.00    +0.000 I 
ATOM      2  N   UNL     1     -14.324  20.073  27.069  0.00  0.00    +0.000 NA
ATOM      3  N   UNL     1     -13.974  21.134  24.998  0.00  0.00    +0.000 NA
ATOM      4  C   UNL     1     -15.663  20.119  26.905  0.00  0.00    +0.000 A 
ATOM      5  C   UNL     1     -13.519  20.573  26.121  0.00  0.00    +0.000 A 
ATOM      6  C   UNL     1     -16.211  20.727  25.793  0.00  0.00    +0.000 A 
ATOM      7  C   UNL     1     -15.312  21.209  24.874  0.00  0.00    +0.000 A 
ATOM      8  N   UNL     1     -12.137  20.483  26.253  0.00  0.00    +0.000 N 
ATOM      9  H   UNL     1     -11.664  20.833  25.433  0.00  0.00    +0.000 HD
ENDROOT
BRANCH   8  10
ATOM     10  C   UNL     1     -11.355  20.182  27.375  0.00  0.00    +0.000 A 
ATOM     11  C   UNL     1     -11.501  18.990  28.091  0.00  0.00    +0.000 A 
ATOM     12  C   UNL     1     -10.653  18.654  29.146  0.00  0.00    +0.000 A 
ATOM     13  C   UNL     1      -9.613  19.515  29.481  0.00  0.00    +0.000 A 
ATOM     14  C   UNL     1      -9.439  20.703  28.776  0.00  0.00    +0.000 A 
ATOM     15  C   UNL     1     -10.303  21.029  27.731  0.00  0.00    +0.000 A 
BRANCH  12  16
ATOM     16  N   UNL     1     -10.931  17.468  29.849  0.00  0.00    +0.000 N 
ATOM     17  C   UNL     1     -11.799  17.339  30.919  0.00  0.00    +0.000 C 
ATOM     18  O   UNL     1     -12.342  18.287  31.486  0.00  0.00    +0.000 OA
ATOM     19  N   UNL     1     -11.990  16.020  31.328  0.00  0.00    +0.000 N 
ATOM     20  C   UNL     1     -11.486  14.836  30.880  0.00  0.00    +0.000 A 
ATOM     21  C   UNL     1     -12.765  15.547  32.344  0.00  0.00    +0.000 A 
ATOM     22  C   UNL     1     -11.873  13.519  31.561  0.00  0.00    +0.000 A 
ATOM     23  C   UNL     1     -12.822  14.046  32.648  0.00  0.00    +0.000 A 
ATOM     24  H   UNL     1     -10.389  16.653  29.591  0.00  0.00    +0.000 HD
ENDBRANCH  12  16
ENDBRANCH   8  10
BRANCH   4  25
ATOM     25  N   UNL     1     -16.493  19.593  27.928  0.00  0.00    +0.000 N 
ATOM     26  H   UNL     1     -17.470  19.700  27.666  0.00  0.00    +0.000 HD
BRANCH  25  27
ATOM     27  C   UNL     1     -16.141  18.261  28.414  0.00  0.00    +0.000 C 
BRANCH  27  28
ATOM     28  C   UNL     1     -15.702  16.857  28.841  0.00  0.00    +0.000 C 
ATOM     29  C   UNL     1     -15.327  15.458  29.337  0.00  0.00    +0.000 C 
BRANCH  29  30
ATOM     30  N   UNL     1     -15.047  14.217  29.795  0.00  0.00    +0.000 N 
ATOM     31  C   UNL     1     -15.013  13.018  29.097  0.00  0.00    +0.000 C 
ATOM     32  O   UNL     1     -15.228  12.982  27.886  0.00  0.00    +0.000 OA
ATOM     33  H   UNL     1     -14.906  14.179  30.798  0.00  0.00    +0.000 HD
BRANCH  31  34
ATOM     34  C   UNL     1     -14.732  11.845  29.907  0.00  0.00    +0.000 A 
ATOM     35  S   UNL     1     -13.754  10.578  29.274  0.00  0.00    +0.000 S 
ATOM     36  C   UNL     1     -13.915   9.670  30.696  0.00  0.00    +0.000 A 
ATOM     37  C   UNL     1     -14.682  10.287  31.645  0.00  0.00    +0.000 A 
ATOM     38  C   UNL     1     -15.149  11.539  31.187  0.00  0.00    +0.000 A 
ENDBRANCH  31  34
ENDBRANCH  29  30
ENDBRANCH  27  28
ENDBRANCH  25  27
ENDBRANCH   4  25
TORSDOF 7
ENDMDL
MODEL 6
REMARK VINA RESULT:      -5.0     31.978     34.447
REMARK  Name = BX795.pdbqt.pdb
REMARK  7 active torsions:
REMARK  status: ('A' for Active; 'I' for Inactive)
REMARK    1  A    between atoms: C_4  and  N_25
REMARK    2  A    between atoms: N_8  and  C_10
REMARK    3  A    between atoms: C_12  and  N_16
REMARK    4  A    between atoms: N_25  and  C_27
REMARK    5  A    between atoms: C_27  and  C_28
REMARK    6  A    between atoms: C_29  and  N_30
REMARK    7  A    between atoms: C_31  and  C_34
REMARK                            x       y       z     vdW  Elec       q    Type
REMARK                         _______ _______ _______ _____ _____    ______ ____
ROOT
ATOM      1  I   UNL     1     -11.015  48.971  19.010  0.00  0.00    +0.000 I 
ATOM      2  N   UNL     1      -8.216  45.773  18.212  0.00  0.00    +0.000 NA
ATOM      3  N   UNL     1      -9.800  44.933  19.737  0.00  0.00    +0.000 NA
ATOM      4  C   UNL     1      -8.812  46.984  18.209  0.00  0.00    +0.000 A 
ATOM      5  C   UNL     1      -8.716  44.786  18.970  0.00  0.00    +0.000 A 
ATOM      6  C   UNL     1      -9.965  47.199  18.937  0.00  0.00    +0.000 A 
ATOM      7  C   UNL     1     -10.404  46.134  19.685  0.00  0.00    +0.000 A 
ATOM      8  N   UNL     1      -8.081  43.550  19.024  0.00  0.00    +0.000 N 
ATOM      9  H   UNL     1      -8.526  42.935  19.689  0.00  0.00    +0.000 HD
ENDROOT
BRANCH   8  10
ATOM     10  C   UNL     1      -7.097  43.004  18.191  0.00  0.00    +0.000 A 
ATOM     11  C   UNL     1      -7.369  42.581  16.887  0.00  0.00    +0.000 A 
ATOM     12  C   UNL     1      -6.364  42.131  16.032  0.00  0.00    +0.000 A 
ATOM     13  C   UNL     1      -5.046  42.127  16.476  0.00  0.00    +0.000 A 
ATOM     14  C   UNL     1      -4.746  42.554  17.767  0.00  0.00    +0.000 A 
ATOM     15  C   UNL     1      -5.765  42.991  18.614  0.00  0.00    +0.000 A 
BRANCH  12  16
ATOM     16  N   UNL     1      -6.753  41.658  14.766  0.00  0.00    +0.000 N 
ATOM     17  C   UNL     1      -6.202  42.029  13.552  0.00  0.00    +0.000 C 
ATOM     18  O   UNL     1      -5.382  42.937  13.415  0.00  0.00    +0.000 OA
ATOM     19  N   UNL     1      -6.685  41.293  12.470  0.00  0.00    +0.000 N 
ATOM     20  C   UNL     1      -7.594  40.282  12.378  0.00  0.00    +0.000 A 
ATOM     21  C   UNL     1      -6.362  41.407  11.152  0.00  0.00    +0.000 A 
ATOM     22  C   UNL     1      -7.942  39.673  11.015  0.00  0.00    +0.000 A 
ATOM     23  C   UNL     1      -7.028  40.507  10.105  0.00  0.00    +0.000 A 
ATOM     24  H   UNL     1      -7.559  41.044  14.741  0.00  0.00    +0.000 HD
ENDBRANCH  12  16
ENDBRANCH   8  10
BRANCH   4  25
ATOM     25  N   UNL     1      -8.270  48.007  17.389  0.00  0.00    +0.000 N 
ATOM     26  H   UNL     1      -7.696  48.630  17.953  0.00  0.00    +0.000 HD
BRANCH  25  27
ATOM     27  C   UNL     1      -7.639  47.564  16.149  0.00  0.00    +0.000 C 
BRANCH  27  28
ATOM     28  C   UNL     1      -6.922  47.193  14.846  0.00  0.00    +0.000 C 
ATOM     29  C   UNL     1      -6.181  46.913  13.536  0.00  0.00    +0.000 C 
BRANCH  29  30
ATOM     30  N   UNL     1      -5.493  46.709  12.389  0.00  0.00    +0.000 N 
ATOM     31  C   UNL     1      -5.928  46.133  11.204  0.00  0.00    +0.000 C 
ATOM     32  O   UNL     1      -7.089  45.748  11.073  0.00  0.00    +0.000 OA
ATOM     33  H   UNL     1      -4.516  46.966  12.454  0.00  0.00    +0.000 HD
BRANCH  31  34
ATOM     34  C   UNL     1      -4.911  46.011  10.174  0.00  0.00    +0.000 A 
ATOM     35  S   UNL     1      -3.309  46.564  10.478  0.00  0.00    +0.000 S 
ATOM     36  C   UNL     1      -2.804  46.122   8.922  0.00  0.00    +0.000 A 
ATOM     37  C   UNL     1      -3.800  45.565   8.170  0.00  0.00    +0.000 A 
ATOM     38  C   UNL     1      -5.011  45.502   8.895  0.00  0.00    +0.000 A 
ENDBRANCH  31  34
ENDBRANCH  29  30
ENDBRANCH  27  28
ENDBRANCH  25  27
ENDBRANCH   4  25
TORSDOF 7
ENDMDL
MODEL 7
REMARK VINA RESULT:      -4.9     56.381     58.806
REMARK  Name = BX795.pdbqt.pdb
REMARK  7 active torsions:
REMARK  status: ('A' for Active; 'I' for Inactive)
REMARK    1  A    between atoms: C_4  and  N_25
REMARK    2  A    between atoms: N_8  and  C_10
REMARK    3  A    between atoms: C_12  and  N_16
REMARK    4  A    between atoms: N_25  and  C_27
REMARK    5  A    between atoms: C_27  and  C_28
REMARK    6  A    between atoms: C_29  and  N_30
REMARK    7  A    between atoms: C_31  and  C_34
REMARK                            x       y       z     vdW  Elec       q    Type
REMARK                         _______ _______ _______ _____ _____    ______ ____
ROOT
ATOM      1  I   UNL     1       1.166  67.169  -6.160  0.00  0.00    +0.000 I 
ATOM      2  N   UNL     1       1.620  62.869  -6.208  0.00  0.00    +0.000 NA
ATOM      3  N   UNL     1       0.101  63.378  -4.484  0.00  0.00    +0.000 NA
ATOM      4  C   UNL     1       1.783  64.177  -6.497  0.00  0.00    +0.000 A 
ATOM      5  C   UNL     1       0.794  62.503  -5.217  0.00  0.00    +0.000 A 
ATOM      6  C   UNL     1       1.063  65.139  -5.817  0.00  0.00    +0.000 A 
ATOM      7  C   UNL     1       0.243  64.674  -4.818  0.00  0.00    +0.000 A 
ATOM      8  N   UNL     1       0.659  61.162  -4.874  0.00  0.00    +0.000 N 
ATOM      9  H   UNL     1       0.065  61.046  -4.067  0.00  0.00    +0.000 HD
ENDROOT
BRANCH   8  10
ATOM     10  C   UNL     1       1.044  60.010  -5.569  0.00  0.00    +0.000 A 
ATOM     11  C   UNL     1       2.383  59.634  -5.713  0.00  0.00    +0.000 A 
ATOM     12  C   UNL     1       2.752  58.434  -6.321  0.00  0.00    +0.000 A 
ATOM     13  C   UNL     1       1.761  57.570  -6.774  0.00  0.00    +0.000 A 
ATOM     14  C   UNL     1       0.420  57.915  -6.632  0.00  0.00    +0.000 A 
ATOM     15  C   UNL     1       0.067  59.124  -6.032  0.00  0.00    +0.000 A 
BRANCH  12  16
ATOM     16  N   UNL     1       4.127  58.185  -6.482  0.00  0.00    +0.000 N 
ATOM     17  C   UNL     1       4.706  56.959  -6.758  0.00  0.00    +0.000 C 
ATOM     18  O   UNL     1       4.094  55.891  -6.760  0.00  0.00    +0.000 OA
ATOM     19  N   UNL     1       6.076  57.031  -7.010  0.00  0.00    +0.000 N 
ATOM     20  C   UNL     1       6.952  58.074  -7.035  0.00  0.00    +0.000 A 
ATOM     21  C   UNL     1       6.942  56.022  -7.303  0.00  0.00    +0.000 A 
ATOM     22  C   UNL     1       8.437  57.834  -7.329  0.00  0.00    +0.000 A 
ATOM     23  C   UNL     1       8.430  56.311  -7.527  0.00  0.00    +0.000 A 
ATOM     24  H   UNL     1       4.751  58.964  -6.309  0.00  0.00    +0.000 HD
ENDBRANCH  12  16
ENDBRANCH   8  10
BRANCH   4  25
ATOM     25  N   UNL     1       2.653  64.537  -7.558  0.00  0.00    +0.000 N 
ATOM     26  H   UNL     1       3.232  65.325  -7.274  0.00  0.00    +0.000 HD
BRANCH  25  27
ATOM     27  C   UNL     1       3.391  63.440  -8.178  0.00  0.00    +0.000 C 
BRANCH  27  28
ATOM     28  C   UNL     1       4.167  62.240  -8.731  0.00  0.00    +0.000 C 
ATOM     29  C   UNL     1       4.861  60.992  -9.285  0.00  0.00    +0.000 C 
BRANCH  29  30
ATOM     30  N   UNL     1       5.425  59.875  -9.797  0.00  0.00    +0.000 N 
ATOM     31  C   UNL     1       4.856  58.627 -10.001  0.00  0.00    +0.000 C 
ATOM     32  O   UNL     1       3.673  58.417  -9.733  0.00  0.00    +0.000 OA
ATOM     33  H   UNL     1       6.414  59.977  -9.994  0.00  0.00    +0.000 HD
BRANCH  31  34
ATOM     34  C   UNL     1       5.763  57.618 -10.522  0.00  0.00    +0.000 A 
ATOM     35  S   UNL     1       7.350  58.063 -11.018  0.00  0.00    +0.000 S 
ATOM     36  C   UNL     1       7.712  56.471 -11.472  0.00  0.00    +0.000 A 
ATOM     37  C   UNL     1       6.678  55.602 -11.262  0.00  0.00    +0.000 A 
ATOM     38  C   UNL     1       5.558  56.267 -10.714  0.00  0.00    +0.000 A 
ENDBRANCH  31  34
ENDBRANCH  29  30
ENDBRANCH  27  28
ENDBRANCH  25  27
ENDBRANCH   4  25
TORSDOF 7
ENDMDL
MODEL 8
REMARK VINA RESULT:      -4.9     30.198     32.767
REMARK  Name = BX795.pdbqt.pdb
REMARK  7 active torsions:
REMARK  status: ('A' for Active; 'I' for Inactive)
REMARK    1  A    between atoms: C_4  and  N_25
REMARK    2  A    between atoms: N_8  and  C_10
REMARK    3  A    between atoms: C_12  and  N_16
REMARK    4  A    between atoms: N_25  and  C_27
REMARK    5  A    between atoms: C_27  and  C_28
REMARK    6  A    between atoms: C_29  and  N_30
REMARK    7  A    between atoms: C_31  and  C_34
REMARK                            x       y       z     vdW  Elec       q    Type
REMARK                         _______ _______ _______ _____ _____    ______ ____
ROOT
ATOM      1  I   UNL     1      16.065  39.299  20.316  0.00  0.00    +0.000 I 
ATOM      2  N   UNL     1      12.778  38.052  17.797  0.00  0.00    +0.000 NA
ATOM      3  N   UNL     1      14.691  38.146  16.430  0.00  0.00    +0.000 NA
ATOM      4  C   UNL     1      13.482  38.471  18.869  0.00  0.00    +0.000 A 
ATOM      5  C   UNL     1      13.391  37.904  16.614  0.00  0.00    +0.000 A 
ATOM      6  C   UNL     1      14.841  38.695  18.771  0.00  0.00    +0.000 A 
ATOM      7  C   UNL     1      15.384  38.520  17.521  0.00  0.00    +0.000 A 
ATOM      8  N   UNL     1      12.665  37.525  15.489  0.00  0.00    +0.000 N 
ATOM      9  H   UNL     1      13.241  37.526  14.661  0.00  0.00    +0.000 HD
ENDROOT
BRANCH   8  10
ATOM     10  C   UNL     1      11.380  36.981  15.386  0.00  0.00    +0.000 A 
ATOM     11  C   UNL     1      11.102  35.647  15.700  0.00  0.00    +0.000 A 
ATOM     12  C   UNL     1       9.804  35.140  15.689  0.00  0.00    +0.000 A 
ATOM     13  C   UNL     1       8.746  35.990  15.383  0.00  0.00    +0.000 A 
ATOM     14  C   UNL     1       8.993  37.326  15.077  0.00  0.00    +0.000 A 
ATOM     15  C   UNL     1      10.300  37.815  15.082  0.00  0.00    +0.000 A 
BRANCH  12  16
ATOM     16  N   UNL     1       9.641  33.767  15.948  0.00  0.00    +0.000 N 
ATOM     17  C   UNL     1       9.924  32.734  15.072  0.00  0.00    +0.000 C 
ATOM     18  O   UNL     1      10.228  32.894  13.891  0.00  0.00    +0.000 OA
ATOM     19  N   UNL     1       9.804  31.468  15.645  0.00  0.00    +0.000 N 
ATOM     20  C   UNL     1       9.462  31.053  16.897  0.00  0.00    +0.000 A 
ATOM     21  C   UNL     1      10.001  30.250  15.067  0.00  0.00    +0.000 A 
ATOM     22  C   UNL     1       9.396  29.559  17.230  0.00  0.00    +0.000 A 
ATOM     23  C   UNL     1       9.796  28.962  15.872  0.00  0.00    +0.000 A 
ATOM     24  H   UNL     1       9.209  33.523  16.831  0.00  0.00    +0.000 HD
ENDBRANCH  12  16
ENDBRANCH   8  10
BRANCH   4  25
ATOM     25  N   UNL     1      12.812  38.609  20.112  0.00  0.00    +0.000 N 
ATOM     26  H   UNL     1      11.999  39.210  19.999  0.00  0.00    +0.000 HD
BRANCH  25  27
ATOM     27  C   UNL     1      12.549  37.369  20.836  0.00  0.00    +0.000 C 
BRANCH  27  28
ATOM     28  C   UNL     1      12.166  36.080  21.572  0.00  0.00    +0.000 C 
ATOM     29  C   UNL     1      11.816  34.743  22.232  0.00  0.00    +0.000 C 
BRANCH  29  30
ATOM     30  N   UNL     1      11.548  33.539  22.785  0.00  0.00    +0.000 N 
ATOM     31  C   UNL     1      10.377  32.797  22.730  0.00  0.00    +0.000 C 
ATOM     32  O   UNL     1       9.403  33.194  22.092  0.00  0.00    +0.000 OA
ATOM     33  H   UNL     1      12.302  33.184  23.362  0.00  0.00    +0.000 HD
BRANCH  31  34
ATOM     34  C   UNL     1      10.401  31.558  23.489  0.00  0.00    +0.000 A 
ATOM     35  S   UNL     1      10.261  31.598  25.204  0.00  0.00    +0.000 S 
ATOM     36  C   UNL     1      10.389  29.911  25.308  0.00  0.00    +0.000 A 
ATOM     37  C   UNL     1      10.533  29.306  24.091  0.00  0.00    +0.000 A 
ATOM     38  C   UNL     1      10.539  30.258  23.047  0.00  0.00    +0.000 A 
ENDBRANCH  31  34
ENDBRANCH  29  30
ENDBRANCH  27  28
ENDBRANCH  25  27
ENDBRANCH   4  25
TORSDOF 7
ENDMDL
MODEL 9
REMARK VINA RESULT:      -4.8      8.246     10.700
REMARK  Name = BX795.pdbqt.pdb
REMARK  7 active torsions:
REMARK  status: ('A' for Active; 'I' for Inactive)
REMARK    1  A    between atoms: C_4  and  N_25
REMARK    2  A    between atoms: N_8  and  C_10
REMARK    3  A    between atoms: C_12  and  N_16
REMARK    4  A    between atoms: N_25  and  C_27
REMARK    5  A    between atoms: C_27  and  C_28
REMARK    6  A    between atoms: C_29  and  N_30
REMARK    7  A    between atoms: C_31  and  C_34
REMARK                            x       y       z     vdW  Elec       q    Type
REMARK                         _______ _______ _______ _____ _____    ______ ____
ROOT
ATOM      1  I   UNL     1     -16.083  16.595  35.027  0.00  0.00    +0.000 I 
ATOM      2  N   UNL     1     -13.867  18.291  31.722  0.00  0.00    +0.000 NA
ATOM      3  N   UNL     1     -13.212  19.459  33.657  0.00  0.00    +0.000 NA
ATOM      4  C   UNL     1     -14.736  17.539  32.430  0.00  0.00    +0.000 A 
ATOM      5  C   UNL     1     -13.135  19.226  32.345  0.00  0.00    +0.000 A 
ATOM      6  C   UNL     1     -14.837  17.686  33.799  0.00  0.00    +0.000 A 
ATOM      7  C   UNL     1     -14.052  18.669  34.351  0.00  0.00    +0.000 A 
ATOM      8  N   UNL     1     -12.275  20.044  31.619  0.00  0.00    +0.000 N 
ATOM      9  H   UNL     1     -11.850  20.745  32.207  0.00  0.00    +0.000 HD
ENDROOT
BRANCH   8  10
ATOM     10  C   UNL     1     -11.794  19.912  30.311  0.00  0.00    +0.000 A 
ATOM     11  C   UNL     1     -12.544  20.294  29.195  0.00  0.00    +0.000 A 
ATOM     12  C   UNL     1     -12.020  20.252  27.903  0.00  0.00    +0.000 A 
ATOM     13  C   UNL     1     -10.704  19.844  27.719  0.00  0.00    +0.000 A 
ATOM     14  C   UNL     1      -9.931  19.469  28.814  0.00  0.00    +0.000 A 
ATOM     15  C   UNL     1     -10.474  19.507  30.099  0.00  0.00    +0.000 A 
BRANCH  12  16
ATOM     16  N   UNL     1     -12.881  20.586  26.843  0.00  0.00    +0.000 N 
ATOM     17  C   UNL     1     -13.967  19.846  26.411  0.00  0.00    +0.000 C 
ATOM     18  O   UNL     1     -14.239  18.717  26.817  0.00  0.00    +0.000 OA
ATOM     19  N   UNL     1     -14.729  20.488  25.434  0.00  0.00    +0.000 N 
ATOM     20  C   UNL     1     -14.608  21.701  24.824  0.00  0.00    +0.000 A 
ATOM     21  C   UNL     1     -15.846  20.042  24.796  0.00  0.00    +0.000 A 
ATOM     22  C   UNL     1     -15.610  22.132  23.748  0.00  0.00    +0.000 A 
ATOM     23  C   UNL     1     -16.529  20.901  23.726  0.00  0.00    +0.000 A 
ATOM     24  H   UNL     1     -12.636  21.408  26.304  0.00  0.00    +0.000 HD
ENDBRANCH  12  16
ENDBRANCH   8  10
BRANCH   4  25
ATOM     25  N   UNL     1     -15.491  16.549  31.749  0.00  0.00    +0.000 N 
ATOM     26  H   UNL     1     -16.430  16.897  31.568  0.00  0.00    +0.000 HD
BRANCH  25  27
ATOM     27  C   UNL     1     -14.842  15.935  30.593  0.00  0.00    +0.000 C 
BRANCH  27  28
ATOM     28  C   UNL     1     -14.223  15.355  29.317  0.00  0.00    +0.000 C 
ATOM     29  C   UNL     1     -13.564  14.709  28.096  0.00  0.00    +0.000 C 
BRANCH  29  30
ATOM     30  N   UNL     1     -12.984  14.089  27.043  0.00  0.00    +0.000 N 
ATOM     31  C   UNL     1     -11.995  13.116  27.043  0.00  0.00    +0.000 C 
ATOM     32  O   UNL     1     -11.538  12.674  28.097  0.00  0.00    +0.000 OA
ATOM     33  H   UNL     1     -13.291  14.446  26.146  0.00  0.00    +0.000 HD
BRANCH  31  34
ATOM     34  C   UNL     1     -11.548  12.697  25.725  0.00  0.00    +0.000 A 
ATOM     35  S   UNL     1     -11.886  13.678  24.351  0.00  0.00    +0.000 S 
ATOM     36  C   UNL     1     -11.122  12.580  23.312  0.00  0.00    +0.000 A 
ATOM     37  C   UNL     1     -10.612  11.490  23.960  0.00  0.00    +0.000 A 
ATOM     38  C   UNL     1     -10.859  11.562  25.349  0.00  0.00    +0.000 A 
ENDBRANCH  31  34
ENDBRANCH  29  30
ENDBRANCH  27  28
ENDBRANCH  25  27
ENDBRANCH   4  25
TORSDOF 7
ENDMDL
