MODEL 1
REMARK VINA RESULT:      -3.2      0.000      0.000
REMARK  Name = CadmiumAcetate.pdbqt.pdb
REMARK  1 active torsions:
REMARK  status: ('A' for Active; 'I' for Inactive)
REMARK    1  A    between atoms: C_3  and  O_4
REMARK                            x       y       z     vdW  Elec       q    Type
REMARK                         _______ _______ _______ _____ _____    ______ ____
ROOT
ATOM      1  O   UNL     1      -6.695  33.126  16.492  0.00  0.00    +0.000 OA
ATOM      2  C   UNL     1      -8.808  32.580  15.768  0.00  0.00    +0.000 C 
ATOM      3  C   UNL     1      -7.782  33.560  16.171  0.00  0.00    +0.000 C 
ENDROOT
BRANCH   3   4
ATOM      4  O   UNL     1      -8.150  34.840  16.141  0.00  0.00    +0.000 OA
ATOM      5  H   UNL     1      -8.984  34.833  16.647  0.00  0.00    +0.000 HD
ENDBRANCH   3   4
TORSDOF 1
ENDMDL
MODEL 2
REMARK VINA RESULT:      -3.2      4.976      5.372
REMARK  Name = CadmiumAcetate.pdbqt.pdb
REMARK  1 active torsions:
REMARK  status: ('A' for Active; 'I' for Inactive)
REMARK    1  A    between atoms: C_3  and  O_4
REMARK                            x       y       z     vdW  Elec       q    Type
REMARK                         _______ _______ _______ _____ _____    ______ ____
ROOT
ATOM      1  O   UNL     1      -3.147  31.662  12.655  0.00  0.00    +0.000 OA
ATOM      2  C   UNL     1      -4.070  31.847  14.753  0.00  0.00    +0.000 C 
ATOM      3  C   UNL     1      -3.340  32.402  13.597  0.00  0.00    +0.000 C 
ENDROOT
BRANCH   3   4
ATOM      4  O   UNL     1      -2.959  33.674  13.699  0.00  0.00    +0.000 OA
ATOM      5  H   UNL     1      -3.681  34.149  13.247  0.00  0.00    +0.000 HD
ENDBRANCH   3   4
TORSDOF 1
ENDMDL
MODEL 3
REMARK VINA RESULT:      -3.0     33.316     33.710
REMARK  Name = CadmiumAcetate.pdbqt.pdb
REMARK  1 active torsions:
REMARK  status: ('A' for Active; 'I' for Inactive)
REMARK    1  A    between atoms: C_3  and  O_4
REMARK                            x       y       z     vdW  Elec       q    Type
REMARK                         _______ _______ _______ _____ _____    ______ ____
ROOT
ATOM      1  O   UNL     1      12.673  56.536   0.289  0.00  0.00    +0.000 OA
ATOM      2  C   UNL     1      13.376  54.810   1.636  0.00  0.00    +0.000 C 
ATOM      3  C   UNL     1      12.534  55.360   0.557  0.00  0.00    +0.000 C 
ENDROOT
BRANCH   3   4
ATOM      4  O   UNL     1      11.694  54.506  -0.025  0.00  0.00    +0.000 OA
ATOM      5  H   UNL     1      11.154  55.090  -0.588  0.00  0.00    +0.000 HD
ENDBRANCH   3   4
TORSDOF 1
ENDMDL
MODEL 4
REMARK VINA RESULT:      -2.9     15.679     16.035
REMARK  Name = CadmiumAcetate.pdbqt.pdb
REMARK  1 active torsions:
REMARK  status: ('A' for Active; 'I' for Inactive)
REMARK    1  A    between atoms: C_3  and  O_4
REMARK                            x       y       z     vdW  Elec       q    Type
REMARK                         _______ _______ _______ _____ _____    ______ ____
ROOT
ATOM      1  O   UNL     1       4.952  42.780  15.283  0.00  0.00    +0.000 OA
ATOM      2  C   UNL     1       3.117  43.706  16.315  0.00  0.00    +0.000 C 
ATOM      3  C   UNL     1       4.558  43.678  15.998  0.00  0.00    +0.000 C 
ENDROOT
BRANCH   3   4
ATOM      4  O   UNL     1       5.295  44.652  16.530  0.00  0.00    +0.000 OA
ATOM      5  H   UNL     1       5.972  44.157  17.029  0.00  0.00    +0.000 HD
ENDBRANCH   3   4
TORSDOF 1
ENDMDL
MODEL 5
REMARK VINA RESULT:      -2.8     12.340     12.940
REMARK  Name = CadmiumAcetate.pdbqt.pdb
REMARK  1 active torsions:
REMARK  status: ('A' for Active; 'I' for Inactive)
REMARK    1  A    between atoms: C_3  and  O_4
REMARK                            x       y       z     vdW  Elec       q    Type
REMARK                         _______ _______ _______ _____ _____    ______ ____
ROOT
ATOM      1  O   UNL     1       4.626  27.352  13.936  0.00  0.00    +0.000 OA
ATOM      2  C   UNL     1       3.042  28.447  15.193  0.00  0.00    +0.000 C 
ATOM      3  C   UNL     1       3.456  27.664  14.013  0.00  0.00    +0.000 C 
ENDROOT
BRANCH   3   4
ATOM      4  O   UNL     1       2.496  27.370  13.138  0.00  0.00    +0.000 OA
ATOM      5  H   UNL     1       1.786  27.991  13.385  0.00  0.00    +0.000 HD
ENDBRANCH   3   4
TORSDOF 1
ENDMDL
MODEL 6
REMARK VINA RESULT:      -2.7     16.729     17.146
REMARK  Name = CadmiumAcetate.pdbqt.pdb
REMARK  1 active torsions:
REMARK  status: ('A' for Active; 'I' for Inactive)
REMARK    1  A    between atoms: C_3  and  O_4
REMARK                            x       y       z     vdW  Elec       q    Type
REMARK                         _______ _______ _______ _____ _____    ______ ____
ROOT
ATOM      1  O   UNL     1      -1.484  45.544   6.460  0.00  0.00    +0.000 OA
ATOM      2  C   UNL     1      -2.053  46.941   8.196  0.00  0.00    +0.000 C 
ATOM      3  C   UNL     1      -2.031  46.583   6.765  0.00  0.00    +0.000 C 
ENDROOT
BRANCH   3   4
ATOM      4  O   UNL     1      -2.621  47.444   5.936  0.00  0.00    +0.000 OA
ATOM      5  H   UNL     1      -2.778  48.217   6.509  0.00  0.00    +0.000 HD
ENDBRANCH   3   4
TORSDOF 1
ENDMDL
MODEL 7
REMARK VINA RESULT:      -2.7     28.199     28.542
REMARK  Name = CadmiumAcetate.pdbqt.pdb
REMARK  1 active torsions:
REMARK  status: ('A' for Active; 'I' for Inactive)
REMARK    1  A    between atoms: C_3  and  O_4
REMARK                            x       y       z     vdW  Elec       q    Type
REMARK                         _______ _______ _______ _____ _____    ______ ____
ROOT
ATOM      1  O   UNL     1      11.722  30.715  -4.704  0.00  0.00    +0.000 OA
ATOM      2  C   UNL     1      11.921  30.864  -2.418  0.00  0.00    +0.000 C 
ATOM      3  C   UNL     1      12.441  31.051  -3.786  0.00  0.00    +0.000 C 
ENDROOT
BRANCH   3   4
ATOM      4  O   UNL     1      13.661  31.575  -3.883  0.00  0.00    +0.000 OA
ATOM      5  H   UNL     1      13.536  32.473  -3.524  0.00  0.00    +0.000 HD
ENDBRANCH   3   4
TORSDOF 1
ENDMDL
MODEL 8
REMARK VINA RESULT:      -2.5     15.795     16.015
REMARK  Name = CadmiumAcetate.pdbqt.pdb
REMARK  1 active torsions:
REMARK  status: ('A' for Active; 'I' for Inactive)
REMARK    1  A    between atoms: C_3  and  O_4
REMARK                            x       y       z     vdW  Elec       q    Type
REMARK                         _______ _______ _______ _____ _____    ______ ____
ROOT
ATOM      1  O   UNL     1      -1.368  46.314   8.795  0.00  0.00    +0.000 OA
ATOM      2  C   UNL     1      -0.939  45.110   6.883  0.00  0.00    +0.000 C 
ATOM      3  C   UNL     1      -1.862  45.735   7.849  0.00  0.00    +0.000 C 
ENDROOT
BRANCH   3   4
ATOM      4  O   UNL     1      -3.161  45.605   7.588  0.00  0.00    +0.000 OA
ATOM      5  H   UNL     1      -3.217  44.697   7.237  0.00  0.00    +0.000 HD
ENDBRANCH   3   4
TORSDOF 1
ENDMDL
MODEL 9
REMARK VINA RESULT:      -2.5     22.138     22.309
REMARK  Name = CadmiumAcetate.pdbqt.pdb
REMARK  1 active torsions:
REMARK  status: ('A' for Active; 'I' for Inactive)
REMARK    1  A    between atoms: C_3  and  O_4
REMARK                            x       y       z     vdW  Elec       q    Type
REMARK                         _______ _______ _______ _____ _____    ______ ____
ROOT
ATOM      1  O   UNL     1      -1.020  28.530  -4.327  0.00  0.00    +0.000 OA
ATOM      2  C   UNL     1      -1.870  26.480  -4.928  0.00  0.00    +0.000 C 
ATOM      3  C   UNL     1      -2.029  27.904  -4.579  0.00  0.00    +0.000 C 
ENDROOT
BRANCH   3   4
ATOM      4  O   UNL     1      -3.276  28.372  -4.575  0.00  0.00    +0.000 OA
ATOM      5  H   UNL     1      -3.141  29.337  -4.571  0.00  0.00    +0.000 HD
ENDBRANCH   3   4
TORSDOF 1
ENDMDL
