MODEL 1
REMARK VINA RESULT:      -8.5      0.000      0.000
REMARK  Name = Calcitriol.pdbqt.pdb
REMARK  9 active torsions:
REMARK  status: ('A' for Active; 'I' for Inactive)
REMARK    1  A    between atoms: C_2  and  C_24
REMARK    2  A    between atoms: C_7  and  C_11
REMARK    3  A    between atoms: C_12  and  C_13
REMARK    4  A    between atoms: C_16  and  O_20
REMARK    5  A    between atoms: C_18  and  O_22
REMARK    6  A    between atoms: C_24  and  C_26
REMARK    7  A    between atoms: C_27  and  C_28
REMARK    8  A    between atoms: C_28  and  C_29
REMARK    9  A    between atoms: C_29  and  O_32
REMARK                            x       y       z     vdW  Elec       q    Type
REMARK                         _______ _______ _______ _____ _____    ______ ____
ROOT
ATOM      1  C   UNL     1       9.163  29.494  16.021  0.00  0.00    +0.000 C 
ATOM      2  C   UNL     1       9.389  28.216  15.218  0.00  0.00    +0.000 C 
ATOM      3  C   UNL     1       7.567  29.746  15.859  0.00  0.00    +0.000 C 
ATOM      4  C   UNL     1       8.134  27.691  14.787  0.00  0.00    +0.000 C 
ATOM      5  C   UNL     1       7.013  28.605  15.198  0.00  0.00    +0.000 C 
ATOM      6  C   UNL     1       9.833  30.683  15.473  0.00  0.00    +0.000 C 
ATOM      7  C   UNL     1       7.039  31.093  15.609  0.00  0.00    +0.000 C 
ATOM      8  C   UNL     1       9.426  29.255  17.535  0.00  0.00    +0.000 C 
ATOM      9  C   UNL     1       9.508  32.099  15.030  0.00  0.00    +0.000 C 
ATOM     10  C   UNL     1       8.006  32.060  15.223  0.00  0.00    +0.000 C 
ENDROOT
BRANCH   7  11
ATOM     11  C   UNL     1       5.779  31.394  15.587  0.00  0.00    +0.000 C 
ATOM     12  C   UNL     1       4.290  31.762  15.552  0.00  0.00    +0.000 C 
BRANCH  12  13
ATOM     13  C   UNL     1       3.032  32.079  15.516  0.00  0.00    +0.000 A 
ATOM     14  C   UNL     1       2.059  31.184  16.067  0.00  0.00    +0.000 A 
ATOM     15  C   UNL     1       2.433  33.300  14.888  0.00  0.00    +0.000 A 
ATOM     16  C   UNL     1       0.637  31.215  16.141  0.00  0.00    +0.000 A 
ATOM     17  C   UNL     1       0.208  32.414  15.505  0.00  0.00    +0.000 A 
ATOM     18  C   UNL     1       0.946  33.464  14.886  0.00  0.00    +0.000 A 
ATOM     19  C   UNL     1       3.191  34.262  14.330  0.00  0.00    +0.000 C 
BRANCH  16  20
ATOM     20  O   UNL     1      -0.029  30.682  17.206  0.00  0.00    +0.000 OA
ATOM     21  H   UNL     1       0.571  30.528  17.956  0.00  0.00    +0.000 HD
ENDBRANCH  16  20
BRANCH  18  22
ATOM     22  O   UNL     1       0.339  34.566  14.332  0.00  0.00    +0.000 OA
ATOM     23  H   UNL     1       0.636  34.687  13.410  0.00  0.00    +0.000 HD
ENDBRANCH  18  22
ENDBRANCH  12  13
ENDBRANCH   7  11
BRANCH   2  24
ATOM     24  C   UNL     1      10.644  27.551  15.063  0.00  0.00    +0.000 C 
ATOM     25  C   UNL     1      11.095  26.427  15.960  0.00  0.00    +0.000 C 
BRANCH  24  26
ATOM     26  C   UNL     1      11.628  28.042  14.162  0.00  0.00    +0.000 C 
ATOM     27  C   UNL     1      12.693  28.583  13.200  0.00  0.00    +0.000 C 
BRANCH  27  28
ATOM     28  C   UNL     1      13.760  29.136  12.246  0.00  0.00    +0.000 C 
BRANCH  28  29
ATOM     29  C   UNL     1      14.778  29.665  11.340  0.00  0.00    +0.000 C 
ATOM     30  C   UNL     1      15.229  28.644  10.289  0.00  0.00    +0.000 C 
ATOM     31  C   UNL     1      14.366  30.982  10.671  0.00  0.00    +0.000 C 
BRANCH  29  32
ATOM     32  O   UNL     1      15.937  29.975  12.082  0.00  0.00    +0.000 OA
ATOM     33  H   UNL     1      16.369  30.555  11.438  0.00  0.00    +0.000 HD
ENDBRANCH  29  32
ENDBRANCH  28  29
ENDBRANCH  27  28
ENDBRANCH  24  26
ENDBRANCH   2  24
TORSDOF 9
ENDMDL
MODEL 2
REMARK VINA RESULT:      -8.4      1.602      2.437
REMARK  Name = Calcitriol.pdbqt.pdb
REMARK  9 active torsions:
REMARK  status: ('A' for Active; 'I' for Inactive)
REMARK    1  A    between atoms: C_2  and  C_24
REMARK    2  A    between atoms: C_7  and  C_11
REMARK    3  A    between atoms: C_12  and  C_13
REMARK    4  A    between atoms: C_16  and  O_20
REMARK    5  A    between atoms: C_18  and  O_22
REMARK    6  A    between atoms: C_24  and  C_26
REMARK    7  A    between atoms: C_27  and  C_28
REMARK    8  A    between atoms: C_28  and  C_29
REMARK    9  A    between atoms: C_29  and  O_32
REMARK                            x       y       z     vdW  Elec       q    Type
REMARK                         _______ _______ _______ _____ _____    ______ ____
ROOT
ATOM      1  C   UNL     1       9.993  29.114  15.972  0.00  0.00    +0.000 C 
ATOM      2  C   UNL     1      10.560  28.004  15.092  0.00  0.00    +0.000 C 
ATOM      3  C   UNL     1       8.389  28.910  15.827  0.00  0.00    +0.000 C 
ATOM      4  C   UNL     1       9.499  27.169  14.631  0.00  0.00    +0.000 C 
ATOM      5  C   UNL     1       8.171  27.699  15.098  0.00  0.00    +0.000 C 
ATOM      6  C   UNL     1      10.287  30.476  15.498  0.00  0.00    +0.000 C 
ATOM      7  C   UNL     1       7.495  30.062  15.661  0.00  0.00    +0.000 C 
ATOM      8  C   UNL     1      10.341  28.872  17.468  0.00  0.00    +0.000 C 
ATOM      9  C   UNL     1       9.563  31.763  15.143  0.00  0.00    +0.000 C 
ATOM     10  C   UNL     1       8.138  31.285  15.335  0.00  0.00    +0.000 C 
ENDROOT
BRANCH   7  11
ATOM     11  C   UNL     1       6.200  29.991  15.658  0.00  0.00    +0.000 C 
ATOM     12  C   UNL     1       4.669  29.910  15.641  0.00  0.00    +0.000 C 
BRANCH  12  13
ATOM     13  C   UNL     1       3.373  29.839  15.617  0.00  0.00    +0.000 A 
ATOM     14  C   UNL     1       2.596  30.852  16.266  0.00  0.00    +0.000 A 
ATOM     15  C   UNL     1       2.547  28.746  15.012  0.00  0.00    +0.000 A 
ATOM     16  C   UNL     1       1.196  31.034  16.455  0.00  0.00    +0.000 A 
ATOM     17  C   UNL     1       0.540  29.928  15.843  0.00  0.00    +0.000 A 
ATOM     18  C   UNL     1       1.057  28.803  15.139  0.00  0.00    +0.000 A 
ATOM     19  C   UNL     1       3.100  27.715  14.347  0.00  0.00    +0.000 C 
BRANCH  16  20
ATOM     20  O   UNL     1       0.641  32.280  16.485  0.00  0.00    +0.000 OA
ATOM     21  H   UNL     1       1.152  32.906  15.945  0.00  0.00    +0.000 HD
ENDBRANCH  16  20
BRANCH  18  22
ATOM     22  O   UNL     1       0.246  27.834  14.598  0.00  0.00    +0.000 OA
ATOM     23  H   UNL     1      -0.332  27.454  15.288  0.00  0.00    +0.000 HD
ENDBRANCH  18  22
ENDBRANCH  12  13
ENDBRANCH   7  11
BRANCH   2  24
ATOM     24  C   UNL     1      11.949  27.736  14.896  0.00  0.00    +0.000 C 
ATOM     25  C   UNL     1      12.784  26.958  15.880  0.00  0.00    +0.000 C 
BRANCH  24  26
ATOM     26  C   UNL     1      12.674  28.354  13.840  0.00  0.00    +0.000 C 
ATOM     27  C   UNL     1      13.442  29.026  12.694  0.00  0.00    +0.000 C 
BRANCH  27  28
ATOM     28  C   UNL     1      14.197  29.701  11.543  0.00  0.00    +0.000 C 
BRANCH  28  29
ATOM     29  C   UNL     1      14.915  30.343  10.442  0.00  0.00    +0.000 C 
ATOM     30  C   UNL     1      14.971  29.473   9.181  0.00  0.00    +0.000 C 
ATOM     31  C   UNL     1      14.385  31.742  10.110  0.00  0.00    +0.000 C 
BRANCH  29  32
ATOM     32  O   UNL     1      16.259  30.537  10.823  0.00  0.00    +0.000 OA
ATOM     33  H   UNL     1      16.562  29.620  10.752  0.00  0.00    +0.000 HD
ENDBRANCH  29  32
ENDBRANCH  28  29
ENDBRANCH  27  28
ENDBRANCH  24  26
ENDBRANCH   2  24
TORSDOF 9
ENDMDL
MODEL 3
REMARK VINA RESULT:      -7.7      4.844      6.870
REMARK  Name = Calcitriol.pdbqt.pdb
REMARK  9 active torsions:
REMARK  status: ('A' for Active; 'I' for Inactive)
REMARK    1  A    between atoms: C_2  and  C_24
REMARK    2  A    between atoms: C_7  and  C_11
REMARK    3  A    between atoms: C_12  and  C_13
REMARK    4  A    between atoms: C_16  and  O_20
REMARK    5  A    between atoms: C_18  and  O_22
REMARK    6  A    between atoms: C_24  and  C_26
REMARK    7  A    between atoms: C_27  and  C_28
REMARK    8  A    between atoms: C_28  and  C_29
REMARK    9  A    between atoms: C_29  and  O_32
REMARK                            x       y       z     vdW  Elec       q    Type
REMARK                         _______ _______ _______ _____ _____    ______ ____
ROOT
ATOM      1  C   UNL     1       9.831  35.999  16.199  0.00  0.00    +0.000 C 
ATOM      2  C   UNL     1       9.743  37.516  16.060  0.00  0.00    +0.000 C 
ATOM      3  C   UNL     1       8.326  35.513  15.830  0.00  0.00    +0.000 C 
ATOM      4  C   UNL     1       8.466  37.877  15.538  0.00  0.00    +0.000 C 
ATOM      5  C   UNL     1       7.603  36.657  15.368  0.00  0.00    +0.000 C 
ATOM      6  C   UNL     1      10.101  35.527  17.567  0.00  0.00    +0.000 C 
ATOM      7  C   UNL     1       7.661  34.464  16.613  0.00  0.00    +0.000 C 
ATOM      8  C   UNL     1      10.773  35.395  15.119  0.00  0.00    +0.000 C 
ATOM      9  C   UNL     1       9.522  34.582  18.604  0.00  0.00    +0.000 C 
ATOM     10  C   UNL     1       8.281  34.148  17.851  0.00  0.00    +0.000 C 
ENDROOT
BRANCH   7  11
ATOM     11  C   UNL     1       6.514  33.941  16.312  0.00  0.00    +0.000 C 
ATOM     12  C   UNL     1       5.153  33.334  15.951  0.00  0.00    +0.000 C 
BRANCH  12  13
ATOM     13  C   UNL     1       3.998  32.828  15.640  0.00  0.00    +0.000 A 
ATOM     14  C   UNL     1       2.943  33.689  15.198  0.00  0.00    +0.000 A 
ATOM     15  C   UNL     1       3.594  31.390  15.743  0.00  0.00    +0.000 A 
ATOM     16  C   UNL     1       1.584  33.458  14.836  0.00  0.00    +0.000 A 
ATOM     17  C   UNL     1       1.338  32.064  14.987  0.00  0.00    +0.000 A 
ATOM     18  C   UNL     1       2.191  31.000  15.399  0.00  0.00    +0.000 A 
ATOM     19  C   UNL     1       4.455  30.430  16.128  0.00  0.00    +0.000 C 
BRANCH  16  20
ATOM     20  O   UNL     1       0.973  34.202  13.868  0.00  0.00    +0.000 OA
ATOM     21  H   UNL     1       1.492  34.995  13.653  0.00  0.00    +0.000 HD
ENDBRANCH  16  20
BRANCH  18  22
ATOM     22  O   UNL     1       1.763  29.696  15.467  0.00  0.00    +0.000 OA
ATOM     23  H   UNL     1       1.107  29.519  14.766  0.00  0.00    +0.000 HD
ENDBRANCH  18  22
ENDBRANCH  12  13
ENDBRANCH   7  11
BRANCH   2  24
ATOM     24  C   UNL     1      10.827  38.426  16.260  0.00  0.00    +0.000 C 
ATOM     25  C   UNL     1      10.627  39.896  16.529  0.00  0.00    +0.000 C 
BRANCH  24  26
ATOM     26  C   UNL     1      12.172  38.028  16.031  0.00  0.00    +0.000 C 
ATOM     27  C   UNL     1      13.627  37.602  15.800  0.00  0.00    +0.000 C 
BRANCH  27  28
ATOM     28  C   UNL     1      15.086  37.182  15.581  0.00  0.00    +0.000 C 
BRANCH  28  29
ATOM     29  C   UNL     1      16.476  36.776  15.372  0.00  0.00    +0.000 C 
ATOM     30  C   UNL     1      16.887  36.800  13.895  0.00  0.00    +0.000 C 
ATOM     31  C   UNL     1      17.472  37.573  16.222  0.00  0.00    +0.000 C 
BRANCH  29  32
ATOM     32  O   UNL     1      16.629  35.436  15.782  0.00  0.00    +0.000 OA
ATOM     33  H   UNL     1      16.287  35.522  16.684  0.00  0.00    +0.000 HD
ENDBRANCH  29  32
ENDBRANCH  28  29
ENDBRANCH  27  28
ENDBRANCH  24  26
ENDBRANCH   2  24
TORSDOF 9
ENDMDL
MODEL 4
REMARK VINA RESULT:      -7.5      6.551      8.667
REMARK  Name = Calcitriol.pdbqt.pdb
REMARK  9 active torsions:
REMARK  status: ('A' for Active; 'I' for Inactive)
REMARK    1  A    between atoms: C_2  and  C_24
REMARK    2  A    between atoms: C_7  and  C_11
REMARK    3  A    between atoms: C_12  and  C_13
REMARK    4  A    between atoms: C_16  and  O_20
REMARK    5  A    between atoms: C_18  and  O_22
REMARK    6  A    between atoms: C_24  and  C_26
REMARK    7  A    between atoms: C_27  and  C_28
REMARK    8  A    between atoms: C_28  and  C_29
REMARK    9  A    between atoms: C_29  and  O_32
REMARK                            x       y       z     vdW  Elec       q    Type
REMARK                         _______ _______ _______ _____ _____    ______ ____
ROOT
ATOM      1  C   UNL     1      10.287  37.020  16.570  0.00  0.00    +0.000 C 
ATOM      2  C   UNL     1      11.620  36.504  16.037  0.00  0.00    +0.000 C 
ATOM      3  C   UNL     1       9.318  35.723  16.442  0.00  0.00    +0.000 C 
ATOM      4  C   UNL     1      11.528  35.102  15.789  0.00  0.00    +0.000 C 
ATOM      5  C   UNL     1      10.133  34.611  16.060  0.00  0.00    +0.000 C 
ATOM      6  C   UNL     1       9.675  38.082  15.754  0.00  0.00    +0.000 C 
ATOM      7  C   UNL     1       7.942  35.856  15.947  0.00  0.00    +0.000 C 
ATOM      8  C   UNL     1      10.384  37.357  18.085  0.00  0.00    +0.000 C 
ATOM      9  C   UNL     1       8.369  38.395  15.046  0.00  0.00    +0.000 C 
ATOM     10  C   UNL     1       7.642  37.095  15.321  0.00  0.00    +0.000 C 
ENDROOT
BRANCH   7  11
ATOM     11  C   UNL     1       7.074  34.894  15.928  0.00  0.00    +0.000 C 
ATOM     12  C   UNL     1       6.036  33.765  15.902  0.00  0.00    +0.000 C 
BRANCH  12  13
ATOM     13  C   UNL     1       5.152  32.815  15.875  0.00  0.00    +0.000 A 
ATOM     14  C   UNL     1       3.759  33.141  15.931  0.00  0.00    +0.000 A 
ATOM     15  C   UNL     1       5.421  31.342  15.846  0.00  0.00    +0.000 A 
ATOM     16  C   UNL     1       2.574  32.351  15.965  0.00  0.00    +0.000 A 
ATOM     17  C   UNL     1       2.975  30.986  15.941  0.00  0.00    +0.000 A 
ATOM     18  C   UNL     1       4.268  30.389  15.884  0.00  0.00    +0.000 A 
ATOM     19  C   UNL     1       6.669  30.844  15.780  0.00  0.00    +0.000 C 
BRANCH  16  20
ATOM     20  O   UNL     1       1.421  32.778  15.372  0.00  0.00    +0.000 OA
ATOM     21  H   UNL     1       1.035  33.530  15.851  0.00  0.00    +0.000 HD
ENDBRANCH  16  20
BRANCH  18  22
ATOM     22  O   UNL     1       4.451  29.027  15.853  0.00  0.00    +0.000 OA
ATOM     23  H   UNL     1       3.661  28.588  15.483  0.00  0.00    +0.000 HD
ENDBRANCH  18  22
ENDBRANCH  12  13
ENDBRANCH   7  11
BRANCH   2  24
ATOM     24  C   UNL     1      12.826  37.266  15.958  0.00  0.00    +0.000 C 
ATOM     25  C   UNL     1      14.189  36.636  15.827  0.00  0.00    +0.000 C 
BRANCH  24  26
ATOM     26  C   UNL     1      12.824  38.669  16.187  0.00  0.00    +0.000 C 
ATOM     27  C   UNL     1      12.838  40.182  16.441  0.00  0.00    +0.000 C 
BRANCH  27  28
ATOM     28  C   UNL     1      12.865  41.693  16.700  0.00  0.00    +0.000 C 
BRANCH  28  29
ATOM     29  C   UNL     1      12.893  43.134  16.950  0.00  0.00    +0.000 C 
ATOM     30  C   UNL     1      12.391  43.505  18.351  0.00  0.00    +0.000 C 
ATOM     31  C   UNL     1      14.263  43.767  16.682  0.00  0.00    +0.000 C 
BRANCH  29  32
ATOM     32  O   UNL     1      12.009  43.772  16.055  0.00  0.00    +0.000 OA
ATOM     33  H   UNL     1      11.175  43.543  16.490  0.00  0.00    +0.000 HD
ENDBRANCH  29  32
ENDBRANCH  28  29
ENDBRANCH  27  28
ENDBRANCH  24  26
ENDBRANCH   2  24
TORSDOF 9
ENDMDL
MODEL 5
REMARK VINA RESULT:      -7.4      6.086      8.733
REMARK  Name = Calcitriol.pdbqt.pdb
REMARK  9 active torsions:
REMARK  status: ('A' for Active; 'I' for Inactive)
REMARK    1  A    between atoms: C_2  and  C_24
REMARK    2  A    between atoms: C_7  and  C_11
REMARK    3  A    between atoms: C_12  and  C_13
REMARK    4  A    between atoms: C_16  and  O_20
REMARK    5  A    between atoms: C_18  and  O_22
REMARK    6  A    between atoms: C_24  and  C_26
REMARK    7  A    between atoms: C_27  and  C_28
REMARK    8  A    between atoms: C_28  and  C_29
REMARK    9  A    between atoms: C_29  and  O_32
REMARK                            x       y       z     vdW  Elec       q    Type
REMARK                         _______ _______ _______ _____ _____    ______ ____
ROOT
ATOM      1  C   UNL     1       9.881  35.637  16.161  0.00  0.00    +0.000 C 
ATOM      2  C   UNL     1       9.892  37.127  15.833  0.00  0.00    +0.000 C 
ATOM      3  C   UNL     1       8.360  35.198  15.801  0.00  0.00    +0.000 C 
ATOM      4  C   UNL     1       8.656  37.494  15.224  0.00  0.00    +0.000 C 
ATOM      5  C   UNL     1       7.723  36.315  15.175  0.00  0.00    +0.000 C 
ATOM      6  C   UNL     1      10.082  35.326  17.585  0.00  0.00    +0.000 C 
ATOM      7  C   UNL     1       7.608  34.297  16.683  0.00  0.00    +0.000 C 
ATOM      8  C   UNL     1      10.813  34.848  15.199  0.00  0.00    +0.000 C 
ATOM      9  C   UNL     1       9.415  34.554  18.710  0.00  0.00    +0.000 C 
ATOM     10  C   UNL     1       8.172  34.102  17.972  0.00  0.00    +0.000 C 
ENDROOT
BRANCH   7  11
ATOM     11  C   UNL     1       6.440  33.807  16.407  0.00  0.00    +0.000 C 
ATOM     12  C   UNL     1       5.053  33.242  16.076  0.00  0.00    +0.000 C 
BRANCH  12  13
ATOM     13  C   UNL     1       3.878  32.770  15.791  0.00  0.00    +0.000 A 
ATOM     14  C   UNL     1       2.849  33.658  15.339  0.00  0.00    +0.000 A 
ATOM     15  C   UNL     1       3.423  31.351  15.935  0.00  0.00    +0.000 A 
ATOM     16  C   UNL     1       1.479  33.467  14.997  0.00  0.00    +0.000 A 
ATOM     17  C   UNL     1       1.184  32.088  15.187  0.00  0.00    +0.000 A 
ATOM     18  C   UNL     1       2.002  31.004  15.617  0.00  0.00    +0.000 A 
ATOM     19  C   UNL     1       4.253  30.371  16.336  0.00  0.00    +0.000 C 
BRANCH  16  20
ATOM     20  O   UNL     1       0.884  34.208  14.017  0.00  0.00    +0.000 OA
ATOM     21  H   UNL     1       0.048  34.596  14.326  0.00  0.00    +0.000 HD
ENDBRANCH  16  20
BRANCH  18  22
ATOM     22  O   UNL     1       1.529  29.718  15.723  0.00  0.00    +0.000 OA
ATOM     23  H   UNL     1       0.940  29.512  14.971  0.00  0.00    +0.000 HD
ENDBRANCH  18  22
ENDBRANCH  12  13
ENDBRANCH   7  11
BRANCH   2  24
ATOM     24  C   UNL     1      11.024  37.990  15.958  0.00  0.00    +0.000 C 
ATOM     25  C   UNL     1      12.252  37.865  15.092  0.00  0.00    +0.000 C 
BRANCH  24  26
ATOM     26  C   UNL     1      11.135  38.905  17.040  0.00  0.00    +0.000 C 
ATOM     27  C   UNL     1      11.248  39.880  18.219  0.00  0.00    +0.000 C 
BRANCH  27  28
ATOM     28  C   UNL     1      11.356  40.846  19.405  0.00  0.00    +0.000 C 
BRANCH  28  29
ATOM     29  C   UNL     1      11.464  41.768  20.536  0.00  0.00    +0.000 C 
ATOM     30  C   UNL     1      10.770  41.243  21.799  0.00  0.00    +0.000 C 
ATOM     31  C   UNL     1      12.908  42.179  20.844  0.00  0.00    +0.000 C 
BRANCH  29  32
ATOM     32  O   UNL     1      10.798  42.968  20.214  0.00  0.00    +0.000 OA
ATOM     33  H   UNL     1       9.949  42.779  20.640  0.00  0.00    +0.000 HD
ENDBRANCH  29  32
ENDBRANCH  28  29
ENDBRANCH  27  28
ENDBRANCH  24  26
ENDBRANCH   2  24
TORSDOF 9
ENDMDL
MODEL 6
REMARK VINA RESULT:      -7.0      5.175      7.156
REMARK  Name = Calcitriol.pdbqt.pdb
REMARK  9 active torsions:
REMARK  status: ('A' for Active; 'I' for Inactive)
REMARK    1  A    between atoms: C_2  and  C_24
REMARK    2  A    between atoms: C_7  and  C_11
REMARK    3  A    between atoms: C_12  and  C_13
REMARK    4  A    between atoms: C_16  and  O_20
REMARK    5  A    between atoms: C_18  and  O_22
REMARK    6  A    between atoms: C_24  and  C_26
REMARK    7  A    between atoms: C_27  and  C_28
REMARK    8  A    between atoms: C_28  and  C_29
REMARK    9  A    between atoms: C_29  and  O_32
REMARK                            x       y       z     vdW  Elec       q    Type
REMARK                         _______ _______ _______ _____ _____    ______ ____
ROOT
ATOM      1  C   UNL     1      10.215  36.584  16.901  0.00  0.00    +0.000 C 
ATOM      2  C   UNL     1      11.585  36.507  16.233  0.00  0.00    +0.000 C 
ATOM      3  C   UNL     1       9.583  35.118  16.601  0.00  0.00    +0.000 C 
ATOM      4  C   UNL     1      11.815  35.182  15.759  0.00  0.00    +0.000 C 
ATOM      5  C   UNL     1      10.608  34.319  16.004  0.00  0.00    +0.000 C 
ATOM      6  C   UNL     1       9.299  37.567  16.301  0.00  0.00    +0.000 C 
ATOM      7  C   UNL     1       8.180  34.973  16.196  0.00  0.00    +0.000 C 
ATOM      8  C   UNL     1      10.355  36.702  18.445  0.00  0.00    +0.000 C 
ATOM      9  C   UNL     1       7.902  37.643  15.713  0.00  0.00    +0.000 C 
ATOM     10  C   UNL     1       7.537  36.175  15.798  0.00  0.00    +0.000 C 
ENDROOT
BRANCH   7  11
ATOM     11  C   UNL     1       7.572  33.837  16.054  0.00  0.00    +0.000 C 
ATOM     12  C   UNL     1       6.860  32.490  15.875  0.00  0.00    +0.000 C 
BRANCH  12  13
ATOM     13  C   UNL     1       6.264  31.347  15.717  0.00  0.00    +0.000 A 
ATOM     14  C   UNL     1       6.891  30.323  14.937  0.00  0.00    +0.000 A 
ATOM     15  C   UNL     1       4.910  30.965  16.229  0.00  0.00    +0.000 A 
ATOM     16  C   UNL     1       6.491  29.013  14.547  0.00  0.00    +0.000 A 
ATOM     17  C   UNL     1       5.194  28.788  15.091  0.00  0.00    +0.000 A 
ATOM     18  C   UNL     1       4.356  29.617  15.891  0.00  0.00    +0.000 A 
ATOM     19  C   UNL     1       4.174  31.793  16.993  0.00  0.00    +0.000 C 
BRANCH  16  20
ATOM     20  O   UNL     1       7.401  28.006  14.405  0.00  0.00    +0.000 OA
ATOM     21  H   UNL     1       7.336  27.366  15.134  0.00  0.00    +0.000 HD
ENDBRANCH  16  20
BRANCH  18  22
ATOM     22  O   UNL     1       3.123  29.207  16.339  0.00  0.00    +0.000 OA
ATOM     23  H   UNL     1       3.031  29.394  17.293  0.00  0.00    +0.000 HD
ENDBRANCH  18  22
ENDBRANCH  12  13
ENDBRANCH   7  11
BRANCH   2  24
ATOM     24  C   UNL     1      12.559  37.552  16.230  0.00  0.00    +0.000 C 
ATOM     25  C   UNL     1      12.230  38.984  16.569  0.00  0.00    +0.000 C 
BRANCH  24  26
ATOM     26  C   UNL     1      13.869  37.334  15.721  0.00  0.00    +0.000 C 
ATOM     27  C   UNL     1      15.288  37.106  15.186  0.00  0.00    +0.000 C 
BRANCH  27  28
ATOM     28  C   UNL     1      16.712  36.886  14.661  0.00  0.00    +0.000 C 
BRANCH  28  29
ATOM     29  C   UNL     1      18.072  36.678  14.164  0.00  0.00    +0.000 C 
ATOM     30  C   UNL     1      18.122  36.429  12.652  0.00  0.00    +0.000 C 
ATOM     31  C   UNL     1      19.037  37.801  14.558  0.00  0.00    +0.000 C 
BRANCH  29  32
ATOM     32  O   UNL     1      18.603  35.511  14.753  0.00  0.00    +0.000 OA
ATOM     33  H   UNL     1      18.209  34.858  14.156  0.00  0.00    +0.000 HD
ENDBRANCH  29  32
ENDBRANCH  28  29
ENDBRANCH  27  28
ENDBRANCH  24  26
ENDBRANCH   2  24
TORSDOF 9
ENDMDL
MODEL 7
REMARK VINA RESULT:      -6.6     18.887     21.868
REMARK  Name = Calcitriol.pdbqt.pdb
REMARK  9 active torsions:
REMARK  status: ('A' for Active; 'I' for Inactive)
REMARK    1  A    between atoms: C_2  and  C_24
REMARK    2  A    between atoms: C_7  and  C_11
REMARK    3  A    between atoms: C_12  and  C_13
REMARK    4  A    between atoms: C_16  and  O_20
REMARK    5  A    between atoms: C_18  and  O_22
REMARK    6  A    between atoms: C_24  and  C_26
REMARK    7  A    between atoms: C_27  and  C_28
REMARK    8  A    between atoms: C_28  and  C_29
REMARK    9  A    between atoms: C_29  and  O_32
REMARK                            x       y       z     vdW  Elec       q    Type
REMARK                         _______ _______ _______ _____ _____    ______ ____
ROOT
ATOM      1  C   UNL     1      -9.119  42.932  19.225  0.00  0.00    +0.000 C 
ATOM      2  C   UNL     1      -9.765  42.903  20.607  0.00  0.00    +0.000 C 
ATOM      3  C   UNL     1     -10.275  42.310  18.270  0.00  0.00    +0.000 C 
ATOM      4  C   UNL     1     -11.127  42.496  20.491  0.00  0.00    +0.000 C 
ATOM      5  C   UNL     1     -11.456  42.158  19.063  0.00  0.00    +0.000 C 
ATOM      6  C   UNL     1      -7.943  42.058  19.084  0.00  0.00    +0.000 C 
ATOM      7  C   UNL     1      -9.943  41.341  17.218  0.00  0.00    +0.000 C 
ATOM      8  C   UNL     1      -8.886  44.394  18.749  0.00  0.00    +0.000 C 
ATOM      9  C   UNL     1      -7.428  40.939  18.196  0.00  0.00    +0.000 C 
ATOM     10  C   UNL     1      -8.642  40.778  17.303  0.00  0.00    +0.000 C 
ENDROOT
BRANCH   7  11
ATOM     11  C   UNL     1     -10.786  40.892  16.343  0.00  0.00    +0.000 C 
ATOM     12  C   UNL     1     -11.778  40.367  15.297  0.00  0.00    +0.000 C 
BRANCH  12  13
ATOM     13  C   UNL     1     -12.611  39.925  14.404  0.00  0.00    +0.000 A 
ATOM     14  C   UNL     1     -13.960  39.626  14.781  0.00  0.00    +0.000 A 
ATOM     15  C   UNL     1     -12.308  39.620  12.970  0.00  0.00    +0.000 A 
ATOM     16  C   UNL     1     -15.075  39.097  14.070  0.00  0.00    +0.000 A 
ATOM     17  C   UNL     1     -14.646  38.849  12.735  0.00  0.00    +0.000 A 
ATOM     18  C   UNL     1     -13.387  39.051  12.102  0.00  0.00    +0.000 A 
ATOM     19  C   UNL     1     -11.097  39.848  12.430  0.00  0.00    +0.000 C 
BRANCH  16  20
ATOM     20  O   UNL     1     -16.350  39.488  14.360  0.00  0.00    +0.000 OA
ATOM     21  H   UNL     1     -16.470  40.441  14.209  0.00  0.00    +0.000 HD
ENDBRANCH  16  20
BRANCH  18  22
ATOM     22  O   UNL     1     -13.171  38.759  10.776  0.00  0.00    +0.000 OA
ATOM     23  H   UNL     1     -13.807  38.083  10.472  0.00  0.00    +0.000 HD
ENDBRANCH  18  22
ENDBRANCH  12  13
ENDBRANCH   7  11
BRANCH   2  24
ATOM     24  C   UNL     1      -9.155  43.372  21.811  0.00  0.00    +0.000 C 
ATOM     25  C   UNL     1      -9.945  43.759  23.035  0.00  0.00    +0.000 C 
BRANCH  24  26
ATOM     26  C   UNL     1      -7.768  43.678  21.861  0.00  0.00    +0.000 C 
ATOM     27  C   UNL     1      -6.269  43.997  21.927  0.00  0.00    +0.000 C 
BRANCH  27  28
ATOM     28  C   UNL     1      -4.769  44.309  22.005  0.00  0.00    +0.000 C 
BRANCH  28  29
ATOM     29  C   UNL     1      -3.338  44.604  22.074  0.00  0.00    +0.000 C 
ATOM     30  C   UNL     1      -2.747  44.361  23.468  0.00  0.00    +0.000 C 
ATOM     31  C   UNL     1      -2.518  43.874  21.004  0.00  0.00    +0.000 C 
BRANCH  29  32
ATOM     32  O   UNL     1      -3.141  45.977  21.818  0.00  0.00    +0.000 OA
ATOM     33  H   UNL     1      -2.734  45.901  20.942  0.00  0.00    +0.000 HD
ENDBRANCH  29  32
ENDBRANCH  28  29
ENDBRANCH  27  28
ENDBRANCH  24  26
ENDBRANCH   2  24
TORSDOF 9
ENDMDL
MODEL 8
REMARK VINA RESULT:      -6.5     23.829     25.771
REMARK  Name = Calcitriol.pdbqt.pdb
REMARK  9 active torsions:
REMARK  status: ('A' for Active; 'I' for Inactive)
REMARK    1  A    between atoms: C_2  and  C_24
REMARK    2  A    between atoms: C_7  and  C_11
REMARK    3  A    between atoms: C_12  and  C_13
REMARK    4  A    between atoms: C_16  and  O_20
REMARK    5  A    between atoms: C_18  and  O_22
REMARK    6  A    between atoms: C_24  and  C_26
REMARK    7  A    between atoms: C_27  and  C_28
REMARK    8  A    between atoms: C_28  and  C_29
REMARK    9  A    between atoms: C_29  and  O_32
REMARK                            x       y       z     vdW  Elec       q    Type
REMARK                         _______ _______ _______ _____ _____    ______ ____
ROOT
ATOM      1  C   UNL     1     -11.199  19.180  29.624  0.00  0.00    +0.000 C 
ATOM      2  C   UNL     1      -9.962  20.043  29.859  0.00  0.00    +0.000 C 
ATOM      3  C   UNL     1     -11.697  19.652  28.153  0.00  0.00    +0.000 C 
ATOM      4  C   UNL     1      -9.662  20.784  28.677  0.00  0.00    +0.000 C 
ATOM      5  C   UNL     1     -10.702  20.530  27.620  0.00  0.00    +0.000 C 
ATOM      6  C   UNL     1     -12.311  19.447  30.550  0.00  0.00    +0.000 C 
ATOM      7  C   UNL     1     -13.122  19.869  27.874  0.00  0.00    +0.000 C 
ATOM      8  C   UNL     1     -10.815  17.678  29.505  0.00  0.00    +0.000 C 
ATOM      9  C   UNL     1     -13.788  19.801  30.519  0.00  0.00    +0.000 C 
ATOM     10  C   UNL     1     -13.959  19.938  29.020  0.00  0.00    +0.000 C 
ENDROOT
BRANCH   7  11
ATOM     11  C   UNL     1     -13.609  20.129  26.702  0.00  0.00    +0.000 C 
ATOM     12  C   UNL     1     -14.196  20.430  25.317  0.00  0.00    +0.000 C 
BRANCH  12  13
ATOM     13  C   UNL     1     -14.702  20.684  24.149  0.00  0.00    +0.000 A 
ATOM     14  C   UNL     1     -14.041  20.207  22.972  0.00  0.00    +0.000 A 
ATOM     15  C   UNL     1     -15.923  21.501  23.860  0.00  0.00    +0.000 A 
ATOM     16  C   UNL     1     -14.306  20.350  21.579  0.00  0.00    +0.000 A 
ATOM     17  C   UNL     1     -15.478  21.149  21.453  0.00  0.00    +0.000 A 
ATOM     18  C   UNL     1     -16.320  21.741  22.437  0.00  0.00    +0.000 A 
ATOM     19  C   UNL     1     -16.684  22.022  24.840  0.00  0.00    +0.000 C 
BRANCH  16  20
ATOM     20  O   UNL     1     -14.009  19.354  20.695  0.00  0.00    +0.000 OA
ATOM     21  H   UNL     1     -13.402  19.666  20.003  0.00  0.00    +0.000 HD
ENDBRANCH  16  20
BRANCH  18  22
ATOM     22  O   UNL     1     -17.434  22.476  22.109  0.00  0.00    +0.000 OA
ATOM     23  H   UNL     1     -17.265  23.006  21.307  0.00  0.00    +0.000 HD
ENDBRANCH  18  22
ENDBRANCH  12  13
ENDBRANCH   7  11
BRANCH   2  24
ATOM     24  C   UNL     1      -9.131  19.994  31.020  0.00  0.00    +0.000 C 
ATOM     25  C   UNL     1      -9.421  20.781  32.272  0.00  0.00    +0.000 C 
BRANCH  24  26
ATOM     26  C   UNL     1      -7.871  19.336  30.994  0.00  0.00    +0.000 C 
ATOM     27  C   UNL     1      -6.518  18.614  30.958  0.00  0.00    +0.000 C 
BRANCH  27  28
ATOM     28  C   UNL     1      -5.171  17.881  30.917  0.00  0.00    +0.000 C 
BRANCH  28  29
ATOM     29  C   UNL     1      -3.885  17.185  30.879  0.00  0.00    +0.000 C 
ATOM     30  C   UNL     1      -2.824  17.847  31.765  0.00  0.00    +0.000 C 
ATOM     31  C   UNL     1      -3.998  15.690  31.196  0.00  0.00    +0.000 C 
BRANCH  29  32
ATOM     32  O   UNL     1      -3.370  17.247  29.568  0.00  0.00    +0.000 OA
ATOM     33  H   UNL     1      -2.439  17.399  29.787  0.00  0.00    +0.000 HD
ENDBRANCH  29  32
ENDBRANCH  28  29
ENDBRANCH  27  28
ENDBRANCH  24  26
ENDBRANCH   2  24
TORSDOF 9
ENDMDL
MODEL 9
REMARK VINA RESULT:      -6.4     23.742     26.740
REMARK  Name = Calcitriol.pdbqt.pdb
REMARK  9 active torsions:
REMARK  status: ('A' for Active; 'I' for Inactive)
REMARK    1  A    between atoms: C_2  and  C_24
REMARK    2  A    between atoms: C_7  and  C_11
REMARK    3  A    between atoms: C_12  and  C_13
REMARK    4  A    between atoms: C_16  and  O_20
REMARK    5  A    between atoms: C_18  and  O_22
REMARK    6  A    between atoms: C_24  and  C_26
REMARK    7  A    between atoms: C_27  and  C_28
REMARK    8  A    between atoms: C_28  and  C_29
REMARK    9  A    between atoms: C_29  and  O_32
REMARK                            x       y       z     vdW  Elec       q    Type
REMARK                         _______ _______ _______ _____ _____    ______ ____
ROOT
ATOM      1  C   UNL     1     -14.661  40.093   8.006  0.00  0.00    +0.000 C 
ATOM      2  C   UNL     1     -13.197  40.425   7.729  0.00  0.00    +0.000 C 
ATOM      3  C   UNL     1     -14.729  38.494   7.728  0.00  0.00    +0.000 C 
ATOM      4  C   UNL     1     -12.469  39.221   7.491  0.00  0.00    +0.000 C 
ATOM      5  C   UNL     1     -13.392  38.034   7.516  0.00  0.00    +0.000 C 
ATOM      6  C   UNL     1     -15.614  40.721   7.077  0.00  0.00    +0.000 C 
ATOM      7  C   UNL     1     -15.856  37.905   6.993  0.00  0.00    +0.000 C 
ATOM      8  C   UNL     1     -15.004  40.300   9.508  0.00  0.00    +0.000 C 
ATOM      9  C   UNL     1     -16.747  40.339   6.142  0.00  0.00    +0.000 C 
ATOM     10  C   UNL     1     -16.679  38.834   6.303  0.00  0.00    +0.000 C 
ENDROOT
BRANCH   7  11
ATOM     11  C   UNL     1     -16.042  36.632   6.835  0.00  0.00    +0.000 C 
ATOM     12  C   UNL     1     -16.260  35.125   6.662  0.00  0.00    +0.000 C 
BRANCH  12  13
ATOM     13  C   UNL     1     -16.447  33.847   6.524  0.00  0.00    +0.000 A 
ATOM     14  C   UNL     1     -15.354  33.010   6.130  0.00  0.00    +0.000 A 
ATOM     15  C   UNL     1     -17.740  33.109   6.680  0.00  0.00    +0.000 A 
ATOM     16  C   UNL     1     -15.244  31.616   5.855  0.00  0.00    +0.000 A 
ATOM     17  C   UNL     1     -16.537  31.047   6.033  0.00  0.00    +0.000 A 
ATOM     18  C   UNL     1     -17.776  31.636   6.417  0.00  0.00    +0.000 A 
ATOM     19  C   UNL     1     -18.875  33.725   7.059  0.00  0.00    +0.000 C 
BRANCH  16  20
ATOM     20  O   UNL     1     -14.103  30.925   6.143  0.00  0.00    +0.000 OA
ATOM     21  H   UNL     1     -14.294  30.135   6.675  0.00  0.00    +0.000 HD
ENDBRANCH  16  20
BRANCH  18  22
ATOM     22  O   UNL     1     -18.931  30.904   6.551  0.00  0.00    +0.000 OA
ATOM     23  H   UNL     1     -19.030  30.594   7.472  0.00  0.00    +0.000 HD
ENDBRANCH  18  22
ENDBRANCH  12  13
ENDBRANCH   7  11
BRANCH   2  24
ATOM     24  C   UNL     1     -12.608  41.720   7.854  0.00  0.00    +0.000 C 
ATOM     25  C   UNL     1     -11.557  42.049   8.883  0.00  0.00    +0.000 C 
BRANCH  24  26
ATOM     26  C   UNL     1     -13.120  42.832   7.130  0.00  0.00    +0.000 C 
ATOM     27  C   UNL     1     -13.673  44.040   6.364  0.00  0.00    +0.000 C 
BRANCH  27  28
ATOM     28  C   UNL     1     -14.230  45.254   5.610  0.00  0.00    +0.000 C 
BRANCH  28  29
ATOM     29  C   UNL     1     -14.765  46.412   4.894  0.00  0.00    +0.000 C 
ATOM     30  C   UNL     1     -15.828  46.032   3.857  0.00  0.00    +0.000 C 
ATOM     31  C   UNL     1     -15.288  47.510   5.826  0.00  0.00    +0.000 C 
BRANCH  29  32
ATOM     32  O   UNL     1     -13.724  47.017   4.158  0.00  0.00    +0.000 OA
ATOM     33  H   UNL     1     -14.118  47.895   4.050  0.00  0.00    +0.000 HD
ENDBRANCH  29  32
ENDBRANCH  28  29
ENDBRANCH  27  28
ENDBRANCH  24  26
ENDBRANCH   2  24
TORSDOF 9
ENDMDL
