MODEL 1
REMARK VINA RESULT:      -8.6      0.000      0.000
REMARK  Name = Cdk12_Inhibitor.pdbqt.pdb
REMARK  6 active torsions:
REMARK  status: ('A' for Active; 'I' for Inactive)
REMARK    1  A    between atoms: N_1  and  C_23
REMARK    2  A    between atoms: N_9  and  C_11
REMARK    3  A    between atoms: C_14  and  S_17
REMARK    4  A    between atoms: S_17  and  N_20
REMARK    5  A    between atoms: C_23  and  N_25
REMARK    6  A    between atoms: N_25  and  C_27
REMARK                            x       y       z     vdW  Elec       q    Type
REMARK                         _______ _______ _______ _____ _____    ______ ____
ROOT
ATOM      1  N   UNL     1       7.104  33.458  16.326  0.00  0.00    +0.000 N 
ATOM      2  N   UNL     1       5.772  33.650  16.139  0.00  0.00    +0.000 NA
ATOM      3  N   UNL     1       6.367  31.596  15.384  0.00  0.00    +0.000 NA
ATOM      4  N   UNL     1       8.706  31.717  15.702  0.00  0.00    +0.000 N 
ATOM      5  C   UNL     1       5.370  32.500  15.607  0.00  0.00    +0.000 A 
ATOM      6  C   UNL     1       7.446  32.213  15.791  0.00  0.00    +0.000 A 
ATOM      7  H   UNL     1       9.414  32.345  15.320  0.00  0.00    +0.000 HD
ATOM      8  H   UNL     1       8.741  30.833  15.195  0.00  0.00    +0.000 HD
ATOM      9  N   UNL     1       4.130  32.123  15.251  0.00  0.00    +0.000 N 
ATOM     10  H   UNL     1       4.054  31.191  14.862  0.00  0.00    +0.000 HD
ENDROOT
BRANCH   9  11
ATOM     11  C   UNL     1       2.907  32.807  15.356  0.00  0.00    +0.000 A 
ATOM     12  C   UNL     1       2.539  33.703  14.343  0.00  0.00    +0.000 A 
ATOM     13  C   UNL     1       1.345  34.416  14.408  0.00  0.00    +0.000 A 
ATOM     14  C   UNL     1       0.516  34.243  15.508  0.00  0.00    +0.000 A 
ATOM     15  C   UNL     1       0.839  33.348  16.521  0.00  0.00    +0.000 A 
ATOM     16  C   UNL     1       2.037  32.645  16.441  0.00  0.00    +0.000 A 
BRANCH  14  17
ATOM     17  S   UNL     1      -1.015  35.083  15.570  0.00  0.00    +0.000 S 
ATOM     18  O   UNL     1      -1.611  34.892  16.873  0.00  0.00    +0.000 OA
ATOM     19  O   UNL     1      -0.870  36.389  14.976  0.00  0.00    +0.000 OA
BRANCH  17  20
ATOM     20  N   UNL     1      -1.958  34.188  14.506  0.00  0.00    +0.000 NA
ATOM     21  H   UNL     1      -2.869  34.002  14.928  0.00  0.00    +0.000 HD
ATOM     22  H   UNL     1      -2.011  34.669  13.608  0.00  0.00    +0.000 HD
ENDBRANCH  17  20
ENDBRANCH  14  17
ENDBRANCH   9  11
BRANCH   1  23
ATOM     23  C   UNL     1       7.895  34.440  16.991  0.00  0.00    +0.000 C 
ATOM     24  S   UNL     1       8.130  34.518  18.660  0.00  0.00    +0.000 S 
BRANCH  23  25
ATOM     25  N   UNL     1       8.547  35.237  16.042  0.00  0.00    +0.000 N 
ATOM     26  H   UNL     1       9.130  34.738  15.363  0.00  0.00    +0.000 HD
BRANCH  25  27
ATOM     27  C   UNL     1       8.732  36.645  16.016  0.00  0.00    +0.000 A 
ATOM     28  C   UNL     1       7.757  37.405  15.358  0.00  0.00    +0.000 A 
ATOM     29  F   UNL     1       6.718  36.781  14.780  0.00  0.00    +0.000 F 
ATOM     30  C   UNL     1       7.836  38.793  15.278  0.00  0.00    +0.000 A 
ATOM     31  C   UNL     1       8.899  39.451  15.887  0.00  0.00    +0.000 A 
ATOM     32  C   UNL     1       9.846  38.726  16.604  0.00  0.00    +0.000 A 
ATOM     33  C   UNL     1       9.755  37.335  16.672  0.00  0.00    +0.000 A 
ATOM     34  F   UNL     1      10.580  36.702  17.517  0.00  0.00    +0.000 F 
ENDBRANCH  25  27
ENDBRANCH  23  25
ENDBRANCH   1  23
TORSDOF 6
ENDMDL
MODEL 2
REMARK VINA RESULT:      -8.3      2.880      3.888
REMARK  Name = Cdk12_Inhibitor.pdbqt.pdb
REMARK  6 active torsions:
REMARK  status: ('A' for Active; 'I' for Inactive)
REMARK    1  A    between atoms: N_1  and  C_23
REMARK    2  A    between atoms: N_9  and  C_11
REMARK    3  A    between atoms: C_14  and  S_17
REMARK    4  A    between atoms: S_17  and  N_20
REMARK    5  A    between atoms: C_23  and  N_25
REMARK    6  A    between atoms: N_25  and  C_27
REMARK                            x       y       z     vdW  Elec       q    Type
REMARK                         _______ _______ _______ _____ _____    ______ ____
ROOT
ATOM      1  N   UNL     1       7.266  29.502  15.457  0.00  0.00    +0.000 N 
ATOM      2  N   UNL     1       6.042  30.090  15.480  0.00  0.00    +0.000 NA
ATOM      3  N   UNL     1       5.846  27.932  14.811  0.00  0.00    +0.000 NA
ATOM      4  N   UNL     1       8.131  27.334  14.722  0.00  0.00    +0.000 N 
ATOM      5  C   UNL     1       5.224  29.106  15.120  0.00  0.00    +0.000 A 
ATOM      6  C   UNL     1       7.115  28.197  14.978  0.00  0.00    +0.000 A 
ATOM      7  H   UNL     1       8.911  27.701  14.175  0.00  0.00    +0.000 HD
ATOM      8  H   UNL     1       7.806  26.468  14.292  0.00  0.00    +0.000 HD
ATOM      9  N   UNL     1       3.884  29.119  15.009  0.00  0.00    +0.000 N 
ATOM     10  H   UNL     1       3.463  28.246  14.718  0.00  0.00    +0.000 HD
ENDROOT
BRANCH   9  11
ATOM     11  C   UNL     1       2.963  30.151  15.259  0.00  0.00    +0.000 A 
ATOM     12  C   UNL     1       1.672  29.821  15.695  0.00  0.00    +0.000 A 
ATOM     13  C   UNL     1       0.719  30.805  15.942  0.00  0.00    +0.000 A 
ATOM     14  C   UNL     1       1.056  32.136  15.734  0.00  0.00    +0.000 A 
ATOM     15  C   UNL     1       2.331  32.502  15.322  0.00  0.00    +0.000 A 
ATOM     16  C   UNL     1       3.271  31.505  15.077  0.00  0.00    +0.000 A 
BRANCH  14  17
ATOM     17  S   UNL     1      -0.111  33.384  16.102  0.00  0.00    +0.000 S 
ATOM     18  O   UNL     1      -1.381  32.771  16.417  0.00  0.00    +0.000 OA
ATOM     19  O   UNL     1       0.498  34.373  16.958  0.00  0.00    +0.000 OA
BRANCH  17  20
ATOM     20  N   UNL     1      -0.325  34.125  14.610  0.00  0.00    +0.000 NA
ATOM     21  H   UNL     1      -0.864  34.983  14.726  0.00  0.00    +0.000 HD
ATOM     22  H   UNL     1       0.582  34.266  14.164  0.00  0.00    +0.000 HD
ENDBRANCH  17  20
ENDBRANCH  14  17
ENDBRANCH   9  11
BRANCH   1  23
ATOM     23  C   UNL     1       8.423  30.210  15.896  0.00  0.00    +0.000 C 
ATOM     24  S   UNL     1       9.468  29.687  17.113  0.00  0.00    +0.000 S 
BRANCH  23  25
ATOM     25  N   UNL     1       8.627  31.326  15.076  0.00  0.00    +0.000 N 
ATOM     26  H   UNL     1       8.670  31.140  14.069  0.00  0.00    +0.000 HD
BRANCH  25  27
ATOM     27  C   UNL     1       9.033  32.642  15.423  0.00  0.00    +0.000 A 
ATOM     28  C   UNL     1      10.179  33.144  14.795  0.00  0.00    +0.000 A 
ATOM     29  F   UNL     1      10.840  32.368  13.920  0.00  0.00    +0.000 F 
ATOM     30  C   UNL     1      10.661  34.424  15.056  0.00  0.00    +0.000 A 
ATOM     31  C   UNL     1       9.975  35.242  15.947  0.00  0.00    +0.000 A 
ATOM     32  C   UNL     1       8.797  34.792  16.535  0.00  0.00    +0.000 A 
ATOM     33  C   UNL     1       8.328  33.506  16.266  0.00  0.00    +0.000 A 
ATOM     34  F   UNL     1       7.104  33.188  16.709  0.00  0.00    +0.000 F 
ENDBRANCH  25  27
ENDBRANCH  23  25
ENDBRANCH   1  23
TORSDOF 6
ENDMDL
MODEL 3
REMARK VINA RESULT:      -7.5      9.634     12.918
REMARK  Name = Cdk12_Inhibitor.pdbqt.pdb
REMARK  6 active torsions:
REMARK  status: ('A' for Active; 'I' for Inactive)
REMARK    1  A    between atoms: N_1  and  C_23
REMARK    2  A    between atoms: N_9  and  C_11
REMARK    3  A    between atoms: C_14  and  S_17
REMARK    4  A    between atoms: S_17  and  N_20
REMARK    5  A    between atoms: C_23  and  N_25
REMARK    6  A    between atoms: N_25  and  C_27
REMARK                            x       y       z     vdW  Elec       q    Type
REMARK                         _______ _______ _______ _____ _____    ______ ____
ROOT
ATOM      1  N   UNL     1      -3.772  43.334  15.590  0.00  0.00    +0.000 N 
ATOM      2  N   UNL     1      -2.425  43.491  15.666  0.00  0.00    +0.000 NA
ATOM      3  N   UNL     1      -3.389  44.170  17.604  0.00  0.00    +0.000 NA
ATOM      4  N   UNL     1      -5.667  43.926  17.021  0.00  0.00    +0.000 N 
ATOM      5  C   UNL     1      -2.242  43.960  16.897  0.00  0.00    +0.000 A 
ATOM      6  C   UNL     1      -4.337  43.823  16.772  0.00  0.00    +0.000 A 
ATOM      7  H   UNL     1      -6.234  44.356  16.289  0.00  0.00    +0.000 HD
ATOM      8  H   UNL     1      -5.862  44.394  17.907  0.00  0.00    +0.000 HD
ATOM      9  N   UNL     1      -1.091  44.263  17.522  0.00  0.00    +0.000 N 
ATOM     10  H   UNL     1      -1.188  44.607  18.469  0.00  0.00    +0.000 HD
ENDROOT
BRANCH   9  11
ATOM     11  C   UNL     1       0.239  44.154  17.080  0.00  0.00    +0.000 A 
ATOM     12  C   UNL     1       0.730  45.091  16.161  0.00  0.00    +0.000 A 
ATOM     13  C   UNL     1       2.036  45.017  15.681  0.00  0.00    +0.000 A 
ATOM     14  C   UNL     1       2.855  43.983  16.115  0.00  0.00    +0.000 A 
ATOM     15  C   UNL     1       2.408  43.048  17.040  0.00  0.00    +0.000 A 
ATOM     16  C   UNL     1       1.100  43.135  17.507  0.00  0.00    +0.000 A 
BRANCH  14  17
ATOM     17  S   UNL     1       4.513  43.916  15.570  0.00  0.00    +0.000 S 
ATOM     18  O   UNL     1       5.038  42.589  15.800  0.00  0.00    +0.000 OA
ATOM     19  O   UNL     1       4.626  44.575  14.292  0.00  0.00    +0.000 OA
BRANCH  17  20
ATOM     20  N   UNL     1       5.294  44.909  16.677  0.00  0.00    +0.000 NA
ATOM     21  H   UNL     1       5.664  45.732  16.201  0.00  0.00    +0.000 HD
ATOM     22  H   UNL     1       4.661  45.128  17.447  0.00  0.00    +0.000 HD
ENDBRANCH  17  20
ENDBRANCH  14  17
ENDBRANCH   9  11
BRANCH   1  23
ATOM     23  C   UNL     1      -4.373  42.737  14.443  0.00  0.00    +0.000 C 
ATOM     24  S   UNL     1      -4.713  43.546  13.003  0.00  0.00    +0.000 S 
BRANCH  23  25
ATOM     25  N   UNL     1      -4.509  41.359  14.651  0.00  0.00    +0.000 N 
ATOM     26  H   UNL     1      -5.460  41.029  14.851  0.00  0.00    +0.000 HD
BRANCH  25  27
ATOM     27  C   UNL     1      -3.512  40.374  14.877  0.00  0.00    +0.000 A 
ATOM     28  C   UNL     1      -2.794  39.925  13.762  0.00  0.00    +0.000 A 
ATOM     29  F   UNL     1      -3.084  40.425  12.551  0.00  0.00    +0.000 F 
ATOM     30  C   UNL     1      -1.790  38.967  13.872  0.00  0.00    +0.000 A 
ATOM     31  C   UNL     1      -1.469  38.454  15.124  0.00  0.00    +0.000 A 
ATOM     32  C   UNL     1      -2.121  38.932  16.256  0.00  0.00    +0.000 A 
ATOM     33  C   UNL     1      -3.128  39.890  16.130  0.00  0.00    +0.000 A 
ATOM     34  F   UNL     1      -3.597  40.446  17.257  0.00  0.00    +0.000 F 
ENDBRANCH  25  27
ENDBRANCH  23  25
ENDBRANCH   1  23
TORSDOF 6
ENDMDL
MODEL 4
REMARK VINA RESULT:      -7.3      2.898      3.747
REMARK  Name = Cdk12_Inhibitor.pdbqt.pdb
REMARK  6 active torsions:
REMARK  status: ('A' for Active; 'I' for Inactive)
REMARK    1  A    between atoms: N_1  and  C_23
REMARK    2  A    between atoms: N_9  and  C_11
REMARK    3  A    between atoms: C_14  and  S_17
REMARK    4  A    between atoms: S_17  and  N_20
REMARK    5  A    between atoms: C_23  and  N_25
REMARK    6  A    between atoms: N_25  and  C_27
REMARK                            x       y       z     vdW  Elec       q    Type
REMARK                         _______ _______ _______ _____ _____    ______ ____
ROOT
ATOM      1  N   UNL     1       8.088  29.679  15.553  0.00  0.00    +0.000 N 
ATOM      2  N   UNL     1       6.817  30.156  15.511  0.00  0.00    +0.000 NA
ATOM      3  N   UNL     1       6.817  27.928  15.084  0.00  0.00    +0.000 NA
ATOM      4  N   UNL     1       9.146  27.529  15.061  0.00  0.00    +0.000 N 
ATOM      5  C   UNL     1       6.091  29.070  15.262  0.00  0.00    +0.000 A 
ATOM      6  C   UNL     1       8.057  28.321  15.221  0.00  0.00    +0.000 A 
ATOM      7  H   UNL     1       9.897  27.901  14.477  0.00  0.00    +0.000 HD
ATOM      8  H   UNL     1       8.903  26.595  14.729  0.00  0.00    +0.000 HD
ATOM      9  N   UNL     1       4.757  28.953  15.150  0.00  0.00    +0.000 N 
ATOM     10  H   UNL     1       4.417  28.020  14.957  0.00  0.00    +0.000 HD
ENDROOT
BRANCH   9  11
ATOM     11  C   UNL     1       3.746  29.921  15.285  0.00  0.00    +0.000 A 
ATOM     12  C   UNL     1       2.415  29.501  15.412  0.00  0.00    +0.000 A 
ATOM     13  C   UNL     1       1.376  30.421  15.533  0.00  0.00    +0.000 A 
ATOM     14  C   UNL     1       1.672  31.777  15.511  0.00  0.00    +0.000 A 
ATOM     15  C   UNL     1       2.981  32.229  15.407  0.00  0.00    +0.000 A 
ATOM     16  C   UNL     1       4.008  31.296  15.284  0.00  0.00    +0.000 A 
BRANCH  14  17
ATOM     17  S   UNL     1       0.385  32.939  15.727  0.00  0.00    +0.000 S 
ATOM     18  O   UNL     1       0.801  33.940  16.682  0.00  0.00    +0.000 OA
ATOM     19  O   UNL     1      -0.167  33.289  14.440  0.00  0.00    +0.000 OA
BRANCH  17  20
ATOM     20  N   UNL     1      -0.792  32.030  16.508  0.00  0.00    +0.000 NA
ATOM     21  H   UNL     1      -0.588  31.037  16.399  0.00  0.00    +0.000 HD
ATOM     22  H   UNL     1      -0.868  32.331  17.481  0.00  0.00    +0.000 HD
ENDBRANCH  17  20
ENDBRANCH  14  17
ENDBRANCH   9  11
BRANCH   1  23
ATOM     23  C   UNL     1       9.174  30.530  15.911  0.00  0.00    +0.000 C 
ATOM     24  S   UNL     1      10.690  30.520  15.171  0.00  0.00    +0.000 S 
BRANCH  23  25
ATOM     25  N   UNL     1       8.746  31.455  16.872  0.00  0.00    +0.000 N 
ATOM     26  H   UNL     1       8.043  31.116  17.537  0.00  0.00    +0.000 HD
BRANCH  25  27
ATOM     27  C   UNL     1       8.940  32.861  16.925  0.00  0.00    +0.000 A 
ATOM     28  C   UNL     1       7.835  33.670  16.635  0.00  0.00    +0.000 A 
ATOM     29  F   UNL     1       6.667  33.092  16.311  0.00  0.00    +0.000 F 
ATOM     30  C   UNL     1       7.913  35.059  16.664  0.00  0.00    +0.000 A 
ATOM     31  C   UNL     1       9.113  35.668  17.014  0.00  0.00    +0.000 A 
ATOM     32  C   UNL     1      10.208  34.888  17.371  0.00  0.00    +0.000 A 
ATOM     33  C   UNL     1      10.116  33.495  17.334  0.00  0.00    +0.000 A 
ATOM     34  F   UNL     1      11.132  32.794  17.856  0.00  0.00    +0.000 F 
ENDBRANCH  25  27
ENDBRANCH  23  25
ENDBRANCH   1  23
TORSDOF 6
ENDMDL
MODEL 5
REMARK VINA RESULT:      -7.0      4.811      5.880
REMARK  Name = Cdk12_Inhibitor.pdbqt.pdb
REMARK  6 active torsions:
REMARK  status: ('A' for Active; 'I' for Inactive)
REMARK    1  A    between atoms: N_1  and  C_23
REMARK    2  A    between atoms: N_9  and  C_11
REMARK    3  A    between atoms: C_14  and  S_17
REMARK    4  A    between atoms: S_17  and  N_20
REMARK    5  A    between atoms: C_23  and  N_25
REMARK    6  A    between atoms: N_25  and  C_27
REMARK                            x       y       z     vdW  Elec       q    Type
REMARK                         _______ _______ _______ _____ _____    ______ ____
ROOT
ATOM      1  N   UNL     1       8.427  29.714  15.577  0.00  0.00    +0.000 N 
ATOM      2  N   UNL     1       7.075  29.848  15.562  0.00  0.00    +0.000 NA
ATOM      3  N   UNL     1       7.649  27.762  14.881  0.00  0.00    +0.000 NA
ATOM      4  N   UNL     1      10.002  27.983  14.863  0.00  0.00    +0.000 N 
ATOM      5  C   UNL     1       6.654  28.647  15.174  0.00  0.00    +0.000 A 
ATOM      6  C   UNL     1       8.746  28.443  15.090  0.00  0.00    +0.000 A 
ATOM      7  H   UNL     1      10.625  28.603  14.343  0.00  0.00    +0.000 HD
ATOM      8  H   UNL     1      10.006  27.064  14.420  0.00  0.00    +0.000 HD
ATOM      9  N   UNL     1       5.395  28.204  15.021  0.00  0.00    +0.000 N 
ATOM     10  H   UNL     1       5.306  27.243  14.714  0.00  0.00    +0.000 HD
ENDROOT
BRANCH   9  11
ATOM     11  C   UNL     1       4.169  28.854  15.245  0.00  0.00    +0.000 A 
ATOM     12  C   UNL     1       4.153  30.040  15.992  0.00  0.00    +0.000 A 
ATOM     13  C   UNL     1       2.963  30.713  16.254  0.00  0.00    +0.000 A 
ATOM     14  C   UNL     1       1.771  30.185  15.776  0.00  0.00    +0.000 A 
ATOM     15  C   UNL     1       1.751  29.023  15.015  0.00  0.00    +0.000 A 
ATOM     16  C   UNL     1       2.949  28.361  14.764  0.00  0.00    +0.000 A 
BRANCH  14  17
ATOM     17  S   UNL     1       0.279  31.054  16.042  0.00  0.00    +0.000 S 
ATOM     18  O   UNL     1      -0.446  31.150  14.797  0.00  0.00    +0.000 OA
ATOM     19  O   UNL     1      -0.341  30.583  17.257  0.00  0.00    +0.000 OA
BRANCH  17  20
ATOM     20  N   UNL     1       0.823  32.609  16.369  0.00  0.00    +0.000 NA
ATOM     21  H   UNL     1       1.816  32.584  16.602  0.00  0.00    +0.000 HD
ATOM     22  H   UNL     1       0.600  33.223  15.584  0.00  0.00    +0.000 HD
ENDBRANCH  17  20
ENDBRANCH  14  17
ENDBRANCH   9  11
BRANCH   1  23
ATOM     23  C   UNL     1       9.258  30.769  16.054  0.00  0.00    +0.000 C 
ATOM     24  S   UNL     1      10.010  31.920  15.077  0.00  0.00    +0.000 S 
BRANCH  23  25
ATOM     25  N   UNL     1       9.243  30.780  17.454  0.00  0.00    +0.000 N 
ATOM     26  H   UNL     1       8.363  31.077  17.890  0.00  0.00    +0.000 HD
BRANCH  25  27
ATOM     27  C   UNL     1      10.322  30.685  18.373  0.00  0.00    +0.000 A 
ATOM     28  C   UNL     1      10.768  29.400  18.704  0.00  0.00    +0.000 A 
ATOM     29  F   UNL     1      10.159  28.334  18.161  0.00  0.00    +0.000 F 
ATOM     30  C   UNL     1      11.823  29.194  19.588  0.00  0.00    +0.000 A 
ATOM     31  C   UNL     1      12.472  30.291  20.144  0.00  0.00    +0.000 A 
ATOM     32  C   UNL     1      12.092  31.579  19.781  0.00  0.00    +0.000 A 
ATOM     33  C   UNL     1      11.030  31.770  18.896  0.00  0.00    +0.000 A 
ATOM     34  F   UNL     1      10.822  33.013  18.440  0.00  0.00    +0.000 F 
ENDBRANCH  25  27
ENDBRANCH  23  25
ENDBRANCH   1  23
TORSDOF 6
ENDMDL
MODEL 6
REMARK VINA RESULT:      -6.9      3.745      5.906
REMARK  Name = Cdk12_Inhibitor.pdbqt.pdb
REMARK  6 active torsions:
REMARK  status: ('A' for Active; 'I' for Inactive)
REMARK    1  A    between atoms: N_1  and  C_23
REMARK    2  A    between atoms: N_9  and  C_11
REMARK    3  A    between atoms: C_14  and  S_17
REMARK    4  A    between atoms: S_17  and  N_20
REMARK    5  A    between atoms: C_23  and  N_25
REMARK    6  A    between atoms: N_25  and  C_27
REMARK                            x       y       z     vdW  Elec       q    Type
REMARK                         _______ _______ _______ _____ _____    ______ ____
ROOT
ATOM      1  N   UNL     1       8.909  32.773  16.586  0.00  0.00    +0.000 N 
ATOM      2  N   UNL     1       7.581  32.511  16.468  0.00  0.00    +0.000 NA
ATOM      3  N   UNL     1       7.955  34.732  16.201  0.00  0.00    +0.000 NA
ATOM      4  N   UNL     1      10.274  34.802  16.651  0.00  0.00    +0.000 N 
ATOM      5  C   UNL     1       7.058  33.705  16.205  0.00  0.00    +0.000 A 
ATOM      6  C   UNL     1       9.093  34.154  16.482  0.00  0.00    +0.000 A 
ATOM      7  H   UNL     1      10.816  34.550  17.478  0.00  0.00    +0.000 HD
ATOM      8  H   UNL     1      10.168  35.817  16.623  0.00  0.00    +0.000 HD
ATOM      9  N   UNL     1       5.776  34.029  15.960  0.00  0.00    +0.000 N 
ATOM     10  H   UNL     1       5.602  35.009  15.781  0.00  0.00    +0.000 HD
ENDROOT
BRANCH   9  11
ATOM     11  C   UNL     1       4.632  33.215  15.885  0.00  0.00    +0.000 A 
ATOM     12  C   UNL     1       3.598  33.575  15.010  0.00  0.00    +0.000 A 
ATOM     13  C   UNL     1       2.438  32.811  14.910  0.00  0.00    +0.000 A 
ATOM     14  C   UNL     1       2.304  31.682  15.708  0.00  0.00    +0.000 A 
ATOM     15  C   UNL     1       3.317  31.285  16.572  0.00  0.00    +0.000 A 
ATOM     16  C   UNL     1       4.469  32.061  16.661  0.00  0.00    +0.000 A 
BRANCH  14  17
ATOM     17  S   UNL     1       0.882  30.680  15.546  0.00  0.00    +0.000 S 
ATOM     18  O   UNL     1       1.240  29.448  14.882  0.00  0.00    +0.000 OA
ATOM     19  O   UNL     1       0.139  30.697  16.782  0.00  0.00    +0.000 OA
BRANCH  17  20
ATOM     20  N   UNL     1      -0.039  31.541  14.436  0.00  0.00    +0.000 NA
ATOM     21  H   UNL     1       0.568  31.930  13.714  0.00  0.00    +0.000 HD
ATOM     22  H   UNL     1      -0.783  30.945  14.072  0.00  0.00    +0.000 HD
ENDBRANCH  17  20
ENDBRANCH  14  17
ENDBRANCH   9  11
BRANCH   1  23
ATOM     23  C   UNL     1       9.847  31.714  16.763  0.00  0.00    +0.000 C 
ATOM     24  S   UNL     1      10.602  31.330  18.222  0.00  0.00    +0.000 S 
BRANCH  23  25
ATOM     25  N   UNL     1       9.940  30.968  15.581  0.00  0.00    +0.000 N 
ATOM     26  H   UNL     1       9.933  31.509  14.710  0.00  0.00    +0.000 HD
BRANCH  25  27
ATOM     27  C   UNL     1       9.792  29.571  15.378  0.00  0.00    +0.000 A 
ATOM     28  C   UNL     1       8.505  29.099  15.093  0.00  0.00    +0.000 A 
ATOM     29  F   UNL     1       7.484  29.970  15.039  0.00  0.00    +0.000 F 
ATOM     30  C   UNL     1       8.249  27.750  14.869  0.00  0.00    +0.000 A 
ATOM     31  C   UNL     1       9.300  26.840  14.906  0.00  0.00    +0.000 A 
ATOM     32  C   UNL     1      10.599  27.291  15.121  0.00  0.00    +0.000 A 
ATOM     33  C   UNL     1      10.840  28.647  15.347  0.00  0.00    +0.000 A 
ATOM     34  F   UNL     1      12.117  29.053  15.369  0.00  0.00    +0.000 F 
ENDBRANCH  25  27
ENDBRANCH  23  25
ENDBRANCH   1  23
TORSDOF 6
ENDMDL
MODEL 7
REMARK VINA RESULT:      -6.8      4.912      7.940
REMARK  Name = Cdk12_Inhibitor.pdbqt.pdb
REMARK  6 active torsions:
REMARK  status: ('A' for Active; 'I' for Inactive)
REMARK    1  A    between atoms: N_1  and  C_23
REMARK    2  A    between atoms: N_9  and  C_11
REMARK    3  A    between atoms: C_14  and  S_17
REMARK    4  A    between atoms: S_17  and  N_20
REMARK    5  A    between atoms: C_23  and  N_25
REMARK    6  A    between atoms: N_25  and  C_27
REMARK                            x       y       z     vdW  Elec       q    Type
REMARK                         _______ _______ _______ _____ _____    ______ ____
ROOT
ATOM      1  N   UNL     1       9.723  30.295  17.084  0.00  0.00    +0.000 N 
ATOM      2  N   UNL     1       9.479  31.619  16.907  0.00  0.00    +0.000 NA
ATOM      3  N   UNL     1      10.408  31.274  18.948  0.00  0.00    +0.000 NA
ATOM      4  N   UNL     1      10.502  28.912  18.946  0.00  0.00    +0.000 N 
ATOM      5  C   UNL     1       9.935  32.166  18.031  0.00  0.00    +0.000 A 
ATOM      6  C   UNL     1      10.233  30.112  18.373  0.00  0.00    +0.000 A 
ATOM      7  H   UNL     1       9.774  28.201  18.874  0.00  0.00    +0.000 HD
ATOM      8  H   UNL     1      10.779  29.002  19.925  0.00  0.00    +0.000 HD
ATOM      9  N   UNL     1       9.978  33.463  18.381  0.00  0.00    +0.000 N 
ATOM     10  H   UNL     1      10.373  33.654  19.293  0.00  0.00    +0.000 HD
ENDROOT
BRANCH   9  11
ATOM     11  C   UNL     1       9.584  34.610  17.670  0.00  0.00    +0.000 A 
ATOM     12  C   UNL     1       8.220  34.827  17.430  0.00  0.00    +0.000 A 
ATOM     13  C   UNL     1       7.780  35.940  16.718  0.00  0.00    +0.000 A 
ATOM     14  C   UNL     1       8.718  36.838  16.226  0.00  0.00    +0.000 A 
ATOM     15  C   UNL     1      10.076  36.665  16.462  0.00  0.00    +0.000 A 
ATOM     16  C   UNL     1      10.499  35.546  17.173  0.00  0.00    +0.000 A 
BRANCH  14  17
ATOM     17  S   UNL     1       8.175  38.271  15.387  0.00  0.00    +0.000 S 
ATOM     18  O   UNL     1       6.756  38.440  15.599  0.00  0.00    +0.000 OA
ATOM     19  O   UNL     1       9.116  39.342  15.607  0.00  0.00    +0.000 OA
BRANCH  17  20
ATOM     20  N   UNL     1       8.341  37.828  13.775  0.00  0.00    +0.000 NA
ATOM     21  H   UNL     1       8.948  37.011  13.704  0.00  0.00    +0.000 HD
ATOM     22  H   UNL     1       7.419  37.694  13.359  0.00  0.00    +0.000 HD
ENDBRANCH  17  20
ENDBRANCH  14  17
ENDBRANCH   9  11
BRANCH   1  23
ATOM     23  C   UNL     1       9.473  29.362  16.036  0.00  0.00    +0.000 C 
ATOM     24  S   UNL     1      10.202  27.847  15.901  0.00  0.00    +0.000 S 
BRANCH  23  25
ATOM     25  N   UNL     1       8.440  29.840  15.220  0.00  0.00    +0.000 N 
ATOM     26  H   UNL     1       8.681  30.625  14.607  0.00  0.00    +0.000 HD
BRANCH  25  27
ATOM     27  C   UNL     1       7.045  29.580  15.280  0.00  0.00    +0.000 A 
ATOM     28  C   UNL     1       6.199  30.679  15.475  0.00  0.00    +0.000 A 
ATOM     29  F   UNL     1       6.734  31.903  15.608  0.00  0.00    +0.000 F 
ATOM     30  C   UNL     1       4.816  30.538  15.542  0.00  0.00    +0.000 A 
ATOM     31  C   UNL     1       4.249  29.278  15.389  0.00  0.00    +0.000 A 
ATOM     32  C   UNL     1       5.063  28.179  15.129  0.00  0.00    +0.000 A 
ATOM     33  C   UNL     1       6.449  28.335  15.067  0.00  0.00    +0.000 A 
ATOM     34  F   UNL     1       7.170  27.290  14.638  0.00  0.00    +0.000 F 
ENDBRANCH  25  27
ENDBRANCH  23  25
ENDBRANCH   1  23
TORSDOF 6
ENDMDL
MODEL 8
REMARK VINA RESULT:      -6.6     10.647     14.307
REMARK  Name = Cdk12_Inhibitor.pdbqt.pdb
REMARK  6 active torsions:
REMARK  status: ('A' for Active; 'I' for Inactive)
REMARK    1  A    between atoms: N_1  and  C_23
REMARK    2  A    between atoms: N_9  and  C_11
REMARK    3  A    between atoms: C_14  and  S_17
REMARK    4  A    between atoms: S_17  and  N_20
REMARK    5  A    between atoms: C_23  and  N_25
REMARK    6  A    between atoms: N_25  and  C_27
REMARK                            x       y       z     vdW  Elec       q    Type
REMARK                         _______ _______ _______ _____ _____    ______ ____
ROOT
ATOM      1  N   UNL     1      -5.855  43.595  13.300  0.00  0.00    +0.000 N 
ATOM      2  N   UNL     1      -4.708  43.176  13.895  0.00  0.00    +0.000 NA
ATOM      3  N   UNL     1      -6.157  41.441  13.708  0.00  0.00    +0.000 NA
ATOM      4  N   UNL     1      -8.031  42.582  12.829  0.00  0.00    +0.000 N 
ATOM      5  C   UNL     1      -4.922  41.878  14.088  0.00  0.00    +0.000 A 
ATOM      6  C   UNL     1      -6.746  42.519  13.261  0.00  0.00    +0.000 A 
ATOM      7  H   UNL     1      -8.597  43.348  13.196  0.00  0.00    +0.000 HD
ATOM      8  H   UNL     1      -8.532  41.705  12.972  0.00  0.00    +0.000 HD
ATOM      9  N   UNL     1      -4.098  40.956  14.615  0.00  0.00    +0.000 N 
ATOM     10  H   UNL     1      -4.472  40.017  14.666  0.00  0.00    +0.000 HD
ENDROOT
BRANCH   9  11
ATOM     11  C   UNL     1      -2.779  41.080  15.088  0.00  0.00    +0.000 A 
ATOM     12  C   UNL     1      -1.739  41.255  14.165  0.00  0.00    +0.000 A 
ATOM     13  C   UNL     1      -0.416  41.368  14.582  0.00  0.00    +0.000 A 
ATOM     14  C   UNL     1      -0.127  41.287  15.938  0.00  0.00    +0.000 A 
ATOM     15  C   UNL     1      -1.135  41.133  16.882  0.00  0.00    +0.000 A 
ATOM     16  C   UNL     1      -2.452  41.020  16.448  0.00  0.00    +0.000 A 
BRANCH  14  17
ATOM     17  S   UNL     1       1.522  41.491  16.478  0.00  0.00    +0.000 S 
ATOM     18  O   UNL     1       2.001  42.791  16.067  0.00  0.00    +0.000 OA
ATOM     19  O   UNL     1       1.643  41.023  17.838  0.00  0.00    +0.000 OA
BRANCH  17  20
ATOM     20  N   UNL     1       2.351  40.382  15.527  0.00  0.00    +0.000 NA
ATOM     21  H   UNL     1       1.718  39.635  15.241  0.00  0.00    +0.000 HD
ATOM     22  H   UNL     1       2.798  40.865  14.748  0.00  0.00    +0.000 HD
ENDBRANCH  17  20
ENDBRANCH  14  17
ENDBRANCH   9  11
BRANCH   1  23
ATOM     23  C   UNL     1      -5.981  44.933  12.824  0.00  0.00    +0.000 C 
ATOM     24  S   UNL     1      -7.264  45.967  13.186  0.00  0.00    +0.000 S 
BRANCH  23  25
ATOM     25  N   UNL     1      -4.821  45.294  12.128  0.00  0.00    +0.000 N 
ATOM     26  H   UNL     1      -4.056  45.671  12.698  0.00  0.00    +0.000 HD
BRANCH  25  27
ATOM     27  C   UNL     1      -4.616  45.456  10.732  0.00  0.00    +0.000 A 
ATOM     28  C   UNL     1      -3.409  46.040  10.327  0.00  0.00    +0.000 A 
ATOM     29  F   UNL     1      -2.523  46.426  11.259  0.00  0.00    +0.000 F 
ATOM     30  C   UNL     1      -3.103  46.240   8.984  0.00  0.00    +0.000 A 
ATOM     31  C   UNL     1      -4.006  45.829   8.010  0.00  0.00    +0.000 A 
ATOM     32  C   UNL     1      -5.183  45.186   8.382  0.00  0.00    +0.000 A 
ATOM     33  C   UNL     1      -5.477  44.996   9.733  0.00  0.00    +0.000 A 
ATOM     34  F   UNL     1      -6.526  44.217  10.034  0.00  0.00    +0.000 F 
ENDBRANCH  25  27
ENDBRANCH  23  25
ENDBRANCH   1  23
TORSDOF 6
ENDMDL
MODEL 9
REMARK VINA RESULT:      -6.6     15.763     18.015
REMARK  Name = Cdk12_Inhibitor.pdbqt.pdb
REMARK  6 active torsions:
REMARK  status: ('A' for Active; 'I' for Inactive)
REMARK    1  A    between atoms: N_1  and  C_23
REMARK    2  A    between atoms: N_9  and  C_11
REMARK    3  A    between atoms: C_14  and  S_17
REMARK    4  A    between atoms: S_17  and  N_20
REMARK    5  A    between atoms: C_23  and  N_25
REMARK    6  A    between atoms: N_25  and  C_27
REMARK                            x       y       z     vdW  Elec       q    Type
REMARK                         _______ _______ _______ _____ _____    ______ ____
ROOT
ATOM      1  N   UNL     1      -7.579  42.236  12.198  0.00  0.00    +0.000 N 
ATOM      2  N   UNL     1      -6.843  43.015  11.364  0.00  0.00    +0.000 NA
ATOM      3  N   UNL     1      -6.563  43.703  13.507  0.00  0.00    +0.000 NA
ATOM      4  N   UNL     1      -8.099  42.269  14.589  0.00  0.00    +0.000 N 
ATOM      5  C   UNL     1      -6.228  43.854  12.193  0.00  0.00    +0.000 A 
ATOM      6  C   UNL     1      -7.434  42.728  13.498  0.00  0.00    +0.000 A 
ATOM      7  H   UNL     1      -9.108  42.150  14.488  0.00  0.00    +0.000 HD
ATOM      8  H   UNL     1      -7.914  42.830  15.421  0.00  0.00    +0.000 HD
ATOM      9  N   UNL     1      -5.344  44.825  11.909  0.00  0.00    +0.000 N 
ATOM     10  H   UNL     1      -4.998  45.345  12.705  0.00  0.00    +0.000 HD
ENDROOT
BRANCH   9  11
ATOM     11  C   UNL     1      -4.795  45.222  10.677  0.00  0.00    +0.000 A 
ATOM     12  C   UNL     1      -3.599  45.952  10.668  0.00  0.00    +0.000 A 
ATOM     13  C   UNL     1      -3.024  46.381   9.475  0.00  0.00    +0.000 A 
ATOM     14  C   UNL     1      -3.661  46.090   8.276  0.00  0.00    +0.000 A 
ATOM     15  C   UNL     1      -4.837  45.351   8.246  0.00  0.00    +0.000 A 
ATOM     16  C   UNL     1      -5.401  44.932   9.448  0.00  0.00    +0.000 A 
BRANCH  14  17
ATOM     17  S   UNL     1      -2.916  46.567   6.770  0.00  0.00    +0.000 S 
ATOM     18  O   UNL     1      -1.557  46.080   6.735  0.00  0.00    +0.000 OA
ATOM     19  O   UNL     1      -3.840  46.342   5.685  0.00  0.00    +0.000 OA
BRANCH  17  20
ATOM     20  N   UNL     1      -2.795  48.234   6.941  0.00  0.00    +0.000 NA
ATOM     21  H   UNL     1      -3.175  48.515   7.845  0.00  0.00    +0.000 HD
ATOM     22  H   UNL     1      -1.828  48.524   6.792  0.00  0.00    +0.000 HD
ENDBRANCH  17  20
ENDBRANCH  14  17
ENDBRANCH   9  11
BRANCH   1  23
ATOM     23  C   UNL     1      -8.312  41.121  11.696  0.00  0.00    +0.000 C 
ATOM     24  S   UNL     1      -7.623  39.675  11.166  0.00  0.00    +0.000 S 
BRANCH  23  25
ATOM     25  N   UNL     1      -9.684  41.362  11.836  0.00  0.00    +0.000 N 
ATOM     26  H   UNL     1      -9.941  42.149  12.441  0.00  0.00    +0.000 HD
BRANCH  25  27
ATOM     27  C   UNL     1     -10.789  40.544  11.477  0.00  0.00    +0.000 A 
ATOM     28  C   UNL     1     -11.423  39.840  12.508  0.00  0.00    +0.000 A 
ATOM     29  F   UNL     1     -10.960  39.955  13.762  0.00  0.00    +0.000 F 
ATOM     30  C   UNL     1     -12.519  39.016  12.268  0.00  0.00    +0.000 A 
ATOM     31  C   UNL     1     -13.018  38.902  10.975  0.00  0.00    +0.000 A 
ATOM     32  C   UNL     1     -12.447  39.642   9.945  0.00  0.00    +0.000 A 
ATOM     33  C   UNL     1     -11.347  40.462  10.199  0.00  0.00    +0.000 A 
ATOM     34  F   UNL     1     -10.950  41.286   9.220  0.00  0.00    +0.000 F 
ENDBRANCH  25  27
ENDBRANCH  23  25
ENDBRANCH   1  23
TORSDOF 6
ENDMDL
