MODEL 1
REMARK VINA RESULT:      -7.9      0.000      0.000
REMARK  Name = CHEMBL35349.pdbqt.pdb
REMARK  2 active torsions:
REMARK  status: ('A' for Active; 'I' for Inactive)
REMARK    1  A    between atoms: C_2  and  C_11
REMARK    2  A    between atoms: C_5  and  O_21
REMARK                            x       y       z     vdW  Elec       q    Type
REMARK                         _______ _______ _______ _____ _____    ______ ____
ROOT
ATOM      1  N   UNL     1     -17.825  29.199  22.113  0.00  0.00    +0.000 N 
ATOM      2  C   UNL     1     -16.279  30.728  22.621  0.00  0.00    +0.000 A 
ATOM      3  C   UNL     1     -15.907  30.064  21.401  0.00  0.00    +0.000 A 
ATOM      4  C   UNL     1     -16.890  29.119  21.114  0.00  0.00    +0.000 A 
ATOM      5  C   UNL     1     -17.477  30.157  23.027  0.00  0.00    +0.000 A 
ATOM      6  C   UNL     1     -14.820  30.182  20.513  0.00  0.00    +0.000 A 
ATOM      7  C   UNL     1     -16.849  28.286  19.991  0.00  0.00    +0.000 A 
ATOM      8  C   UNL     1     -14.758  29.361  19.385  0.00  0.00    +0.000 A 
ATOM      9  C   UNL     1     -15.758  28.430  19.132  0.00  0.00    +0.000 A 
ATOM     10  H   UNL     1     -18.660  28.635  22.179  0.00  0.00    +0.000 HD
ENDROOT
BRANCH   2  11
ATOM     11  C   UNL     1     -15.550  31.780  23.292  0.00  0.00    +0.000 C 
ATOM     12  N   UNL     1     -14.860  31.571  24.384  0.00  0.00    +0.000 NA
ATOM     13  C   UNL     1     -14.295  32.811  24.742  0.00  0.00    +0.000 A 
ATOM     14  C   UNL     1     -14.618  33.852  23.875  0.00  0.00    +0.000 A 
ATOM     15  C   UNL     1     -13.486  33.063  25.834  0.00  0.00    +0.000 A 
ATOM     16  C   UNL     1     -15.462  33.243  22.867  0.00  0.00    +0.000 C 
ATOM     17  C   UNL     1     -14.181  35.150  24.025  0.00  0.00    +0.000 A 
ATOM     18  O   UNL     1     -15.990  33.747  21.903  0.00  0.00    +0.000 OA
ATOM     19  C   UNL     1     -13.366  35.398  25.127  0.00  0.00    +0.000 A 
ATOM     20  C   UNL     1     -13.022  34.369  26.021  0.00  0.00    +0.000 A 
ENDBRANCH   2  11
BRANCH   5  21
ATOM     21  O   UNL     1     -18.294  30.348  24.057  0.00  0.00    +0.000 OA
ATOM     22  H   UNL     1     -18.902  29.580  24.154  0.00  0.00    +0.000 HD
ENDBRANCH   5  21
TORSDOF 2
ENDMDL
MODEL 2
REMARK VINA RESULT:      -7.0     43.226     44.754
REMARK  Name = CHEMBL35349.pdbqt.pdb
REMARK  2 active torsions:
REMARK  status: ('A' for Active; 'I' for Inactive)
REMARK    1  A    between atoms: C_2  and  C_11
REMARK    2  A    between atoms: C_5  and  O_21
REMARK                            x       y       z     vdW  Elec       q    Type
REMARK                         _______ _______ _______ _____ _____    ______ ____
ROOT
ATOM      1  N   UNL     1       8.456  57.083  -6.382  0.00  0.00    +0.000 N 
ATOM      2  C   UNL     1       6.278  57.240  -6.847  0.00  0.00    +0.000 A 
ATOM      3  C   UNL     1       6.964  56.669  -7.974  0.00  0.00    +0.000 A 
ATOM      4  C   UNL     1       8.317  56.586  -7.652  0.00  0.00    +0.000 A 
ATOM      5  C   UNL     1       7.245  57.481  -5.882  0.00  0.00    +0.000 A 
ATOM      6  C   UNL     1       6.555  56.215  -9.244  0.00  0.00    +0.000 A 
ATOM      7  C   UNL     1       9.284  56.076  -8.524  0.00  0.00    +0.000 A 
ATOM      8  C   UNL     1       7.503  55.701 -10.132  0.00  0.00    +0.000 A 
ATOM      9  C   UNL     1       8.844  55.635  -9.773  0.00  0.00    +0.000 A 
ATOM     10  H   UNL     1       9.325  57.153  -5.873  0.00  0.00    +0.000 HD
ENDROOT
BRANCH   2  11
ATOM     11  C   UNL     1       4.862  57.508  -6.740  0.00  0.00    +0.000 C 
ATOM     12  N   UNL     1       4.392  58.695  -6.455  0.00  0.00    +0.000 NA
ATOM     13  C   UNL     1       2.988  58.575  -6.437  0.00  0.00    +0.000 A 
ATOM     14  C   UNL     1       2.527  57.290  -6.713  0.00  0.00    +0.000 A 
ATOM     15  C   UNL     1       2.078  59.583  -6.179  0.00  0.00    +0.000 A 
ATOM     16  C   UNL     1       3.726  56.507  -6.930  0.00  0.00    +0.000 C 
ATOM     17  C   UNL     1       1.196  56.936  -6.751  0.00  0.00    +0.000 A 
ATOM     18  O   UNL     1       3.837  55.334  -7.200  0.00  0.00    +0.000 OA
ATOM     19  C   UNL     1       0.282  57.955  -6.489  0.00  0.00    +0.000 A 
ATOM     20  C   UNL     1       0.716  59.262  -6.206  0.00  0.00    +0.000 A 
ENDBRANCH   2  11
BRANCH   5  21
ATOM     21  O   UNL     1       7.225  57.986  -4.653  0.00  0.00    +0.000 OA
ATOM     22  H   UNL     1       7.956  58.635  -4.542  0.00  0.00    +0.000 HD
ENDBRANCH   5  21
TORSDOF 2
ENDMDL
MODEL 3
REMARK VINA RESULT:      -6.9     23.009     24.796
REMARK  Name = CHEMBL35349.pdbqt.pdb
REMARK  2 active torsions:
REMARK  status: ('A' for Active; 'I' for Inactive)
REMARK    1  A    between atoms: C_2  and  C_11
REMARK    2  A    between atoms: C_5  and  O_21
REMARK                            x       y       z     vdW  Elec       q    Type
REMARK                         _______ _______ _______ _____ _____    ______ ____
ROOT
ATOM      1  N   UNL     1       8.773  36.805  18.254  0.00  0.00    +0.000 N 
ATOM      2  C   UNL     1       7.890  35.169  17.018  0.00  0.00    +0.000 A 
ATOM      3  C   UNL     1       8.055  36.343  16.204  0.00  0.00    +0.000 A 
ATOM      4  C   UNL     1       8.606  37.342  17.004  0.00  0.00    +0.000 A 
ATOM      5  C   UNL     1       8.350  35.504  18.284  0.00  0.00    +0.000 A 
ATOM      6  C   UNL     1       7.783  36.648  14.855  0.00  0.00    +0.000 A 
ATOM      7  C   UNL     1       8.901  38.627  16.535  0.00  0.00    +0.000 A 
ATOM      8  C   UNL     1       8.070  37.923  14.364  0.00  0.00    +0.000 A 
ATOM      9  C   UNL     1       8.620  38.893  15.194  0.00  0.00    +0.000 A 
ATOM     10  H   UNL     1       9.155  37.291  19.053  0.00  0.00    +0.000 HD
ENDROOT
BRANCH   2  11
ATOM     11  C   UNL     1       7.353  33.894  16.600  0.00  0.00    +0.000 C 
ATOM     12  N   UNL     1       6.069  33.681  16.473  0.00  0.00    +0.000 NA
ATOM     13  C   UNL     1       5.926  32.343  16.055  0.00  0.00    +0.000 A 
ATOM     14  C   UNL     1       7.133  31.665  15.905  0.00  0.00    +0.000 A 
ATOM     15  C   UNL     1       4.739  31.683  15.794  0.00  0.00    +0.000 A 
ATOM     16  C   UNL     1       8.148  32.638  16.253  0.00  0.00    +0.000 C 
ATOM     17  C   UNL     1       7.240  30.351  15.507  0.00  0.00    +0.000 A 
ATOM     18  O   UNL     1       9.351  32.518  16.275  0.00  0.00    +0.000 OA
ATOM     19  C   UNL     1       6.041  29.690  15.246  0.00  0.00    +0.000 A 
ATOM     20  C   UNL     1       4.806  30.346  15.388  0.00  0.00    +0.000 A 
ENDBRANCH   2  11
BRANCH   5  21
ATOM     21  O   UNL     1       8.452  34.851  19.436  0.00  0.00    +0.000 OA
ATOM     22  H   UNL     1       8.986  35.375  20.076  0.00  0.00    +0.000 HD
ENDBRANCH   5  21
TORSDOF 2
ENDMDL
MODEL 4
REMARK VINA RESULT:      -6.6     43.378     44.901
REMARK  Name = CHEMBL35349.pdbqt.pdb
REMARK  2 active torsions:
REMARK  status: ('A' for Active; 'I' for Inactive)
REMARK    1  A    between atoms: C_2  and  C_11
REMARK    2  A    between atoms: C_5  and  O_21
REMARK                            x       y       z     vdW  Elec       q    Type
REMARK                         _______ _______ _______ _____ _____    ______ ____
ROOT
ATOM      1  N   UNL     1       8.445  57.044  -6.416  0.00  0.00    +0.000 N 
ATOM      2  C   UNL     1       6.275  57.300  -6.875  0.00  0.00    +0.000 A 
ATOM      3  C   UNL     1       6.932  56.703  -8.006  0.00  0.00    +0.000 A 
ATOM      4  C   UNL     1       8.281  56.559  -7.688  0.00  0.00    +0.000 A 
ATOM      5  C   UNL     1       7.254  57.493  -5.911  0.00  0.00    +0.000 A 
ATOM      6  C   UNL     1       6.500  56.273  -9.277  0.00  0.00    +0.000 A 
ATOM      7  C   UNL     1       9.222  56.009  -8.565  0.00  0.00    +0.000 A 
ATOM      8  C   UNL     1       7.422  55.720 -10.169  0.00  0.00    +0.000 A 
ATOM      9  C   UNL     1       8.760  55.593  -9.813  0.00  0.00    +0.000 A 
ATOM     10  H   UNL     1       9.318  57.073  -5.909  0.00  0.00    +0.000 HD
ENDROOT
BRANCH   2  11
ATOM     11  C   UNL     1       4.872  57.631  -6.763  0.00  0.00    +0.000 C 
ATOM     12  N   UNL     1       3.927  56.737  -6.899  0.00  0.00    +0.000 NA
ATOM     13  C   UNL     1       2.706  57.419  -6.727  0.00  0.00    +0.000 A 
ATOM     14  C   UNL     1       2.849  58.781  -6.475  0.00  0.00    +0.000 A 
ATOM     15  C   UNL     1       1.439  56.869  -6.786  0.00  0.00    +0.000 A 
ATOM     16  C   UNL     1       4.280  59.009  -6.482  0.00  0.00    +0.000 C 
ATOM     17  C   UNL     1       1.797  59.648  -6.275  0.00  0.00    +0.000 A 
ATOM     18  O   UNL     1       4.894  60.036  -6.310  0.00  0.00    +0.000 OA
ATOM     19  C   UNL     1       0.522  59.088  -6.336  0.00  0.00    +0.000 A 
ATOM     20  C   UNL     1       0.344  57.717  -6.588  0.00  0.00    +0.000 A 
ENDBRANCH   2  11
BRANCH   5  21
ATOM     21  O   UNL     1       7.259  57.994  -4.681  0.00  0.00    +0.000 OA
ATOM     22  H   UNL     1       8.172  57.977  -4.312  0.00  0.00    +0.000 HD
ENDBRANCH   5  21
TORSDOF 2
ENDMDL
MODEL 5
REMARK VINA RESULT:      -6.2     34.987     37.633
REMARK  Name = CHEMBL35349.pdbqt.pdb
REMARK  2 active torsions:
REMARK  status: ('A' for Active; 'I' for Inactive)
REMARK    1  A    between atoms: C_2  and  C_11
REMARK    2  A    between atoms: C_5  and  O_21
REMARK                            x       y       z     vdW  Elec       q    Type
REMARK                         _______ _______ _______ _____ _____    ______ ____
ROOT
ATOM      1  N   UNL     1       0.518  64.811   6.434  0.00  0.00    +0.000 N 
ATOM      2  C   UNL     1      -0.843  63.699   7.811  0.00  0.00    +0.000 A 
ATOM      3  C   UNL     1      -1.604  64.212   6.703  0.00  0.00    +0.000 A 
ATOM      4  C   UNL     1      -0.726  64.899   5.866  0.00  0.00    +0.000 A 
ATOM      5  C   UNL     1       0.470  64.097   7.601  0.00  0.00    +0.000 A 
ATOM      6  C   UNL     1      -2.963  64.154   6.336  0.00  0.00    +0.000 A 
ATOM      7  C   UNL     1      -1.129  65.530   4.685  0.00  0.00    +0.000 A 
ATOM      8  C   UNL     1      -3.388  64.776   5.161  0.00  0.00    +0.000 A 
ATOM      9  C   UNL     1      -2.482  65.452   4.352  0.00  0.00    +0.000 A 
ATOM     10  H   UNL     1       1.363  65.214   6.056  0.00  0.00    +0.000 HD
ENDROOT
BRANCH   2  11
ATOM     11  C   UNL     1      -1.346  62.924   8.922  0.00  0.00    +0.000 C 
ATOM     12  N   UNL     1      -1.140  63.267  10.168  0.00  0.00    +0.000 NA
ATOM     13  C   UNL     1      -1.770  62.287  10.961  0.00  0.00    +0.000 A 
ATOM     14  C   UNL     1      -2.399  61.284  10.227  0.00  0.00    +0.000 A 
ATOM     15  C   UNL     1      -1.811  62.246  12.342  0.00  0.00    +0.000 A 
ATOM     16  C   UNL     1      -2.162  61.637   8.842  0.00  0.00    +0.000 C 
ATOM     17  C   UNL     1      -3.078  60.224  10.786  0.00  0.00    +0.000 A 
ATOM     18  O   UNL     1      -2.513  61.068   7.834  0.00  0.00    +0.000 OA
ATOM     19  C   UNL     1      -3.115  60.186  12.179  0.00  0.00    +0.000 A 
ATOM     20  C   UNL     1      -2.490  61.183  12.948  0.00  0.00    +0.000 A 
ENDBRANCH   2  11
BRANCH   5  21
ATOM     21  O   UNL     1       1.607  63.929   8.265  0.00  0.00    +0.000 OA
ATOM     22  H   UNL     1       2.131  63.200   7.862  0.00  0.00    +0.000 HD
ENDBRANCH   5  21
TORSDOF 2
ENDMDL
MODEL 6
REMARK VINA RESULT:      -5.9     35.853     37.079
REMARK  Name = CHEMBL35349.pdbqt.pdb
REMARK  2 active torsions:
REMARK  status: ('A' for Active; 'I' for Inactive)
REMARK    1  A    between atoms: C_2  and  C_11
REMARK    2  A    between atoms: C_5  and  O_21
REMARK                            x       y       z     vdW  Elec       q    Type
REMARK                         _______ _______ _______ _____ _____    ______ ____
ROOT
ATOM      1  N   UNL     1      16.342  27.863   2.838  0.00  0.00    +0.000 N 
ATOM      2  C   UNL     1      14.700  28.390   1.420  0.00  0.00    +0.000 A 
ATOM      3  C   UNL     1      14.378  27.154   2.081  0.00  0.00    +0.000 A 
ATOM      4  C   UNL     1      15.421  26.855   2.956  0.00  0.00    +0.000 A 
ATOM      5  C   UNL     1      15.930  28.793   1.921  0.00  0.00    +0.000 A 
ATOM      6  C   UNL     1      13.291  26.261   2.013  0.00  0.00    +0.000 A 
ATOM      7  C   UNL     1      15.439  25.715   3.767  0.00  0.00    +0.000 A 
ATOM      8  C   UNL     1      13.287  25.117   2.814  0.00  0.00    +0.000 A 
ATOM      9  C   UNL     1      14.346  24.853   3.675  0.00  0.00    +0.000 A 
ATOM     10  H   UNL     1      17.211  27.924   3.349  0.00  0.00    +0.000 HD
ENDROOT
BRANCH   2  11
ATOM     11  C   UNL     1      13.902  29.076   0.429  0.00  0.00    +0.000 C 
ATOM     12  N   UNL     1      14.250  29.141  -0.831  0.00  0.00    +0.000 NA
ATOM     13  C   UNL     1      13.243  29.879  -1.485  0.00  0.00    +0.000 A 
ATOM     14  C   UNL     1      12.218  30.305  -0.644  0.00  0.00    +0.000 A 
ATOM     15  C   UNL     1      13.196  30.195  -2.830  0.00  0.00    +0.000 A 
ATOM     16  C   UNL     1      12.584  29.807   0.666  0.00  0.00    +0.000 C 
ATOM     17  C   UNL     1      11.130  31.040  -1.061  0.00  0.00    +0.000 A 
ATOM     18  O   UNL     1      12.004  29.924   1.720  0.00  0.00    +0.000 OA
ATOM     19  C   UNL     1      11.087  31.358  -2.417  0.00  0.00    +0.000 A 
ATOM     20  C   UNL     1      12.106  30.942  -3.291  0.00  0.00    +0.000 A 
ENDBRANCH   2  11
BRANCH   5  21
ATOM     21  O   UNL     1      16.726  29.832   1.701  0.00  0.00    +0.000 OA
ATOM     22  H   UNL     1      16.536  30.548   2.350  0.00  0.00    +0.000 HD
ENDBRANCH   5  21
TORSDOF 2
ENDMDL
MODEL 7
REMARK VINA RESULT:      -5.9     43.951     45.620
REMARK  Name = CHEMBL35349.pdbqt.pdb
REMARK  2 active torsions:
REMARK  status: ('A' for Active; 'I' for Inactive)
REMARK    1  A    between atoms: C_2  and  C_11
REMARK    2  A    between atoms: C_5  and  O_21
REMARK                            x       y       z     vdW  Elec       q    Type
REMARK                         _______ _______ _______ _____ _____    ______ ____
ROOT
ATOM      1  N   UNL     1      21.127  39.917  -1.454  0.00  0.00    +0.000 N 
ATOM      2  C   UNL     1      20.133  41.234  -2.958  0.00  0.00    +0.000 A 
ATOM      3  C   UNL     1      21.320  41.883  -2.469  0.00  0.00    +0.000 A 
ATOM      4  C   UNL     1      21.914  41.036  -1.535  0.00  0.00    +0.000 A 
ATOM      5  C   UNL     1      20.054  40.016  -2.299  0.00  0.00    +0.000 A 
ATOM      6  C   UNL     1      21.944  43.117  -2.737  0.00  0.00    +0.000 A 
ATOM      7  C   UNL     1      23.094  41.352  -0.854  0.00  0.00    +0.000 A 
ATOM      8  C   UNL     1      23.124  43.454  -2.070  0.00  0.00    +0.000 A 
ATOM      9  C   UNL     1      23.686  42.582  -1.144  0.00  0.00    +0.000 A 
ATOM     10  H   UNL     1      21.301  39.121  -0.857  0.00  0.00    +0.000 HD
ENDROOT
BRANCH   2  11
ATOM     11  C   UNL     1      19.207  41.749  -3.941  0.00  0.00    +0.000 C 
ATOM     12  N   UNL     1      18.127  42.409  -3.610  0.00  0.00    +0.000 NA
ATOM     13  C   UNL     1      17.481  42.747  -4.816  0.00  0.00    +0.000 A 
ATOM     14  C   UNL     1      18.145  42.304  -5.957  0.00  0.00    +0.000 A 
ATOM     15  C   UNL     1      16.298  43.450  -4.948  0.00  0.00    +0.000 A 
ATOM     16  C   UNL     1      19.321  41.620  -5.457  0.00  0.00    +0.000 C 
ATOM     17  C   UNL     1      17.702  42.517  -7.244  0.00  0.00    +0.000 A 
ATOM     18  O   UNL     1      20.204  41.066  -6.069  0.00  0.00    +0.000 OA
ATOM     19  C   UNL     1      16.509  43.226  -7.371  0.00  0.00    +0.000 A 
ATOM     20  C   UNL     1      15.815  43.687  -6.239  0.00  0.00    +0.000 A 
ENDBRANCH   2  11
BRANCH   5  21
ATOM     21  O   UNL     1      19.200  38.999  -2.327  0.00  0.00    +0.000 OA
ATOM     22  H   UNL     1      18.348  39.284  -2.728  0.00  0.00    +0.000 HD
ENDBRANCH   5  21
TORSDOF 2
ENDMDL
MODEL 8
REMARK VINA RESULT:      -5.8     25.956     27.874
REMARK  Name = CHEMBL35349.pdbqt.pdb
REMARK  2 active torsions:
REMARK  status: ('A' for Active; 'I' for Inactive)
REMARK    1  A    between atoms: C_2  and  C_11
REMARK    2  A    between atoms: C_5  and  O_21
REMARK                            x       y       z     vdW  Elec       q    Type
REMARK                         _______ _______ _______ _____ _____    ______ ____
ROOT
ATOM      1  N   UNL     1      10.254  40.103  16.611  0.00  0.00    +0.000 N 
ATOM      2  C   UNL     1      10.359  37.894  16.308  0.00  0.00    +0.000 A 
ATOM      3  C   UNL     1      11.689  38.414  16.473  0.00  0.00    +0.000 A 
ATOM      4  C   UNL     1      11.587  39.791  16.658  0.00  0.00    +0.000 A 
ATOM      5  C   UNL     1       9.500  38.979  16.401  0.00  0.00    +0.000 A 
ATOM      6  C   UNL     1      12.974  37.836  16.479  0.00  0.00    +0.000 A 
ATOM      7  C   UNL     1      12.695  40.624  16.850  0.00  0.00    +0.000 A 
ATOM      8  C   UNL     1      14.095  38.647  16.670  0.00  0.00    +0.000 A 
ATOM      9  C   UNL     1      13.952  40.018  16.852  0.00  0.00    +0.000 A 
ATOM     10  H   UNL     1       9.865  41.030  16.714  0.00  0.00    +0.000 HD
ENDROOT
BRANCH   2  11
ATOM     11  C   UNL     1       9.989  36.513  16.090  0.00  0.00    +0.000 C 
ATOM     12  N   UNL     1      10.657  35.727  15.285  0.00  0.00    +0.000 NA
ATOM     13  C   UNL     1      10.012  34.474  15.327  0.00  0.00    +0.000 A 
ATOM     14  C   UNL     1       8.905  34.435  16.171  0.00  0.00    +0.000 A 
ATOM     15  C   UNL     1      10.375  33.337  14.630  0.00  0.00    +0.000 A 
ATOM     16  C   UNL     1       8.818  35.771  16.726  0.00  0.00    +0.000 C 
ATOM     17  C   UNL     1       8.121  33.320  16.370  0.00  0.00    +0.000 A 
ATOM     18  O   UNL     1       8.018  36.224  17.511  0.00  0.00    +0.000 OA
ATOM     19  C   UNL     1       8.491  32.177  15.665  0.00  0.00    +0.000 A 
ATOM     20  C   UNL     1       9.604  32.184  14.805  0.00  0.00    +0.000 A 
ENDBRANCH   2  11
BRANCH   5  21
ATOM     21  O   UNL     1       8.182  39.129  16.333  0.00  0.00    +0.000 OA
ATOM     22  H   UNL     1       7.733  38.408  16.830  0.00  0.00    +0.000 HD
ENDBRANCH   5  21
TORSDOF 2
ENDMDL
MODEL 9
REMARK VINA RESULT:      -5.8      3.782      7.534
REMARK  Name = CHEMBL35349.pdbqt.pdb
REMARK  2 active torsions:
REMARK  status: ('A' for Active; 'I' for Inactive)
REMARK    1  A    between atoms: C_2  and  C_11
REMARK    2  A    between atoms: C_5  and  O_21
REMARK                            x       y       z     vdW  Elec       q    Type
REMARK                         _______ _______ _______ _____ _____    ______ ____
ROOT
ATOM      1  N   UNL     1     -13.717  28.909  22.153  0.00  0.00    +0.000 N 
ATOM      2  C   UNL     1     -15.504  28.629  20.844  0.00  0.00    +0.000 A 
ATOM      3  C   UNL     1     -15.938  28.935  22.181  0.00  0.00    +0.000 A 
ATOM      4  C   UNL     1     -14.801  29.103  22.969  0.00  0.00    +0.000 A 
ATOM      5  C   UNL     1     -14.117  28.624  20.875  0.00  0.00    +0.000 A 
ATOM      6  C   UNL     1     -17.198  29.084  22.794  0.00  0.00    +0.000 A 
ATOM      7  C   UNL     1     -14.851  29.411  24.333  0.00  0.00    +0.000 A 
ATOM      8  C   UNL     1     -17.273  29.392  24.154  0.00  0.00    +0.000 A 
ATOM      9  C   UNL     1     -16.115  29.552  24.906  0.00  0.00    +0.000 A 
ATOM     10  H   UNL     1     -12.750  28.966  22.440  0.00  0.00    +0.000 HD
ENDROOT
BRANCH   2  11
ATOM     11  C   UNL     1     -16.346  28.377  19.697  0.00  0.00    +0.000 C 
ATOM     12  N   UNL     1     -16.096  28.885  18.518  0.00  0.00    +0.000 NA
ATOM     13  C   UNL     1     -17.118  28.426  17.661  0.00  0.00    +0.000 A 
ATOM     14  C   UNL     1     -18.053  27.606  18.286  0.00  0.00    +0.000 A 
ATOM     15  C   UNL     1     -17.256  28.714  16.316  0.00  0.00    +0.000 A 
ATOM     16  C   UNL     1     -17.609  27.520  19.662  0.00  0.00    +0.000 C 
ATOM     17  C   UNL     1     -19.137  27.042  17.649  0.00  0.00    +0.000 A 
ATOM     18  O   UNL     1     -18.098  26.920  20.590  0.00  0.00    +0.000 OA
ATOM     19  C   UNL     1     -19.273  27.335  16.294  0.00  0.00    +0.000 A 
ATOM     20  C   UNL     1     -18.345  28.161  15.634  0.00  0.00    +0.000 A 
ENDBRANCH   2  11
BRANCH   5  21
ATOM     21  O   UNL     1     -13.170  28.411  19.969  0.00  0.00    +0.000 OA
ATOM     22  H   UNL     1     -13.528  28.559  19.063  0.00  0.00    +0.000 HD
ENDBRANCH   5  21
TORSDOF 2
ENDMDL
