MODEL 1
REMARK VINA RESULT:      -6.9      0.000      0.000
REMARK  Name = Chlortetracycline.pdbqt.pdb
REMARK  7 active torsions:
REMARK  status: ('A' for Active; 'I' for Inactive)
REMARK    1  A    between atoms: C_7  and  O_30
REMARK    2  A    between atoms: C_8  and  N_32
REMARK    3  A    between atoms: C_9  and  O_37
REMARK    4  A    between atoms: C_12  and  O_28
REMARK    5  A    between atoms: C_15  and  O_35
REMARK    6  A    between atoms: C_16  and  C_23
REMARK    7  A    between atoms: C_20  and  O_39
REMARK                            x       y       z     vdW  Elec       q    Type
REMARK                         _______ _______ _______ _____ _____    ______ ____
ROOT
ATOM      1 CL   UNL     1      -9.414  17.686  33.386  0.00  0.00    +0.000 Cl
ATOM      2  O   UNL     1     -11.503  20.061  26.223  0.00  0.00    +0.000 OA
ATOM      3  O   UNL     1     -16.478  20.388  29.846  0.00  0.00    +0.000 OA
ATOM      4  C   UNL     1     -14.181  18.401  28.223  0.00  0.00    +0.000 C 
ATOM      5  C   UNL     1     -11.912  18.610  29.555  0.00  0.00    +0.000 C 
ATOM      6  C   UNL     1     -13.220  18.193  29.234  0.00  0.00    +0.000 C 
ATOM      7  C   UNL     1     -13.669  19.268  27.098  0.00  0.00    +0.000 C 
ATOM      8  C   UNL     1     -15.574  18.588  28.590  0.00  0.00    +0.000 C 
ATOM      9  C   UNL     1     -11.038  18.099  30.666  0.00  0.00    +0.000 C 
ATOM     10  C   UNL     1     -11.362  19.472  28.531  0.00  0.00    +0.000 C 
ATOM     11  C   UNL     1     -12.113  19.631  27.213  0.00  0.00    +0.000 C 
ATOM     12  C   UNL     1     -14.435  20.588  26.959  0.00  0.00    +0.000 C 
ATOM     13  C   UNL     1      -9.858  19.006  30.978  0.00  0.00    +0.000 A 
ATOM     14  C   UNL     1     -15.944  20.014  28.813  0.00  0.00    +0.000 C 
ATOM     15  C   UNL     1     -10.186  20.099  28.725  0.00  0.00    +0.000 C 
ATOM     16  C   UNL     1     -15.467  20.958  27.753  0.00  0.00    +0.000 C 
ATOM     17  C   UNL     1      -9.468  20.005  30.034  0.00  0.00    +0.000 A 
ATOM     18  C   UNL     1     -10.577  16.673  30.302  0.00  0.00    +0.000 C 
ATOM     19  C   UNL     1      -9.119  18.889  32.179  0.00  0.00    +0.000 A 
ATOM     20  C   UNL     1      -8.410  20.875  30.378  0.00  0.00    +0.000 A 
ATOM     21  C   UNL     1      -8.060  19.745  32.466  0.00  0.00    +0.000 A 
ATOM     22  C   UNL     1      -7.715  20.745  31.577  0.00  0.00    +0.000 A 
ENDROOT
BRANCH  16  23
ATOM     23  C   UNL     1     -16.222  22.227  27.557  0.00  0.00    +0.000 C 
ATOM     24  O   UNL     1     -16.980  22.392  26.610  0.00  0.00    +0.000 OA
ATOM     25  N   UNL     1     -16.022  23.214  28.471  0.00  0.00    +0.000 N 
ATOM     26  H   UNL     1     -15.206  23.191  29.074  0.00  0.00    +0.000 HD
ATOM     27  H   UNL     1     -16.440  24.112  28.273  0.00  0.00    +0.000 HD
ENDBRANCH  16  23
BRANCH   8  28
ATOM     28  N   UNL     1     -16.591  17.654  28.188  0.00  0.00    +0.000 NA
ATOM     29  C   UNL     1     -16.851  16.604  29.163  0.00  0.00    +0.000 C 
ATOM     30  C   UNL     1     -17.856  18.274  27.850  0.00  0.00    +0.000 C 
ENDBRANCH   8  28
BRANCH  12  31
ATOM     31  O   UNL     1     -14.047  21.389  25.881  0.00  0.00    +0.000 OA
ATOM     32  H   UNL     1     -14.671  21.229  25.136  0.00  0.00    +0.000 HD
ENDBRANCH  12  31
BRANCH   7  33
ATOM     33  O   UNL     1     -13.905  18.583  25.867  0.00  0.00    +0.000 OA
ATOM     34  H   UNL     1     -14.697  18.970  25.451  0.00  0.00    +0.000 HD
ENDBRANCH   7  33
BRANCH  15  35
ATOM     35  O   UNL     1      -9.561  20.841  27.746  0.00  0.00    +0.000 OA
ATOM     36  H   UNL     1     -10.133  20.912  26.953  0.00  0.00    +0.000 HD
ENDBRANCH  15  35
BRANCH   9  37
ATOM     37  O   UNL     1     -11.879  17.972  31.796  0.00  0.00    +0.000 OA
ATOM     38  H   UNL     1     -12.247  17.080  31.659  0.00  0.00    +0.000 HD
ENDBRANCH   9  37
BRANCH  20  39
ATOM     39  O   UNL     1      -8.050  21.919  29.569  0.00  0.00    +0.000 OA
ATOM     40  H   UNL     1      -7.204  21.715  29.134  0.00  0.00    +0.000 HD
ENDBRANCH  20  39
TORSDOF 7
ENDMDL
MODEL 2
REMARK VINA RESULT:      -6.6     29.669     31.773
REMARK  Name = Chlortetracycline.pdbqt.pdb
REMARK  7 active torsions:
REMARK  status: ('A' for Active; 'I' for Inactive)
REMARK    1  A    between atoms: C_7  and  O_30
REMARK    2  A    between atoms: C_8  and  N_32
REMARK    3  A    between atoms: C_9  and  O_37
REMARK    4  A    between atoms: C_12  and  O_28
REMARK    5  A    between atoms: C_15  and  O_35
REMARK    6  A    between atoms: C_16  and  C_23
REMARK    7  A    between atoms: C_20  and  O_39
REMARK                            x       y       z     vdW  Elec       q    Type
REMARK                         _______ _______ _______ _____ _____    ______ ____
ROOT
ATOM      1 CL   UNL     1      -6.324  22.484   1.575  0.00  0.00    +0.000 Cl
ATOM      2  O   UNL     1       1.398  21.354   2.210  0.00  0.00    +0.000 OA
ATOM      3  O   UNL     1       0.353  24.317  -3.093  0.00  0.00    +0.000 OA
ATOM      4  C   UNL     1       0.052  21.411  -1.270  0.00  0.00    +0.000 C 
ATOM      5  C   UNL     1      -1.820  21.834   0.541  0.00  0.00    +0.000 C 
ATOM      6  C   UNL     1      -1.235  21.558  -0.711  0.00  0.00    +0.000 C 
ATOM      7  C   UNL     1       1.152  21.502  -0.240  0.00  0.00    +0.000 C 
ATOM      8  C   UNL     1       0.338  22.003  -2.565  0.00  0.00    +0.000 C 
ATOM      9  C   UNL     1      -3.280  21.789   0.896  0.00  0.00    +0.000 C 
ATOM     10  C   UNL     1      -0.821  21.964   1.580  0.00  0.00    +0.000 C 
ATOM     11  C   UNL     1       0.624  21.586   1.270  0.00  0.00    +0.000 C 
ATOM     12  C   UNL     1       2.087  22.695  -0.462  0.00  0.00    +0.000 C 
ATOM     13  C   UNL     1      -3.613  22.502   2.198  0.00  0.00    +0.000 A 
ATOM     14  C   UNL     1       0.867  23.393  -2.479  0.00  0.00    +0.000 C 
ATOM     15  C   UNL     1      -1.166  22.381   2.813  0.00  0.00    +0.000 C 
ATOM     16  C   UNL     1       1.957  23.588  -1.471  0.00  0.00    +0.000 C 
ATOM     17  C   UNL     1      -2.565  22.816   3.117  0.00  0.00    +0.000 A 
ATOM     18  C   UNL     1      -3.725  20.313   0.928  0.00  0.00    +0.000 C 
ATOM     19  C   UNL     1      -4.939  22.860   2.539  0.00  0.00    +0.000 A 
ATOM     20  C   UNL     1      -2.894  23.535   4.287  0.00  0.00    +0.000 A 
ATOM     21  C   UNL     1      -5.226  23.539   3.720  0.00  0.00    +0.000 A 
ATOM     22  C   UNL     1      -4.207  23.890   4.585  0.00  0.00    +0.000 A 
ENDROOT
BRANCH  16  23
ATOM     23  C   UNL     1       2.916  24.708  -1.687  0.00  0.00    +0.000 C 
ATOM     24  O   UNL     1       4.085  24.514  -1.993  0.00  0.00    +0.000 OA
ATOM     25  N   UNL     1       2.440  25.971  -1.512  0.00  0.00    +0.000 N 
ATOM     26  H   UNL     1       1.581  26.124  -0.996  0.00  0.00    +0.000 HD
ATOM     27  H   UNL     1       3.117  26.721  -1.542  0.00  0.00    +0.000 HD
ENDBRANCH  16  23
BRANCH   8  28
ATOM     28  N   UNL     1       0.675  21.194  -3.706  0.00  0.00    +0.000 NA
ATOM     29  C   UNL     1       2.083  21.242  -4.073  0.00  0.00    +0.000 C 
ATOM     30  C   UNL     1       0.295  19.802  -3.570  0.00  0.00    +0.000 C 
ENDBRANCH   8  28
BRANCH  12  31
ATOM     31  O   UNL     1       3.167  22.775   0.421  0.00  0.00    +0.000 OA
ATOM     32  H   UNL     1       3.993  22.865  -0.107  0.00  0.00    +0.000 HD
ENDBRANCH  12  31
BRANCH   7  33
ATOM     33  O   UNL     1       1.991  20.355  -0.385  0.00  0.00    +0.000 OA
ATOM     34  H   UNL     1       1.608  19.631   0.145  0.00  0.00    +0.000 HD
ENDBRANCH   7  33
BRANCH  15  35
ATOM     35  O   UNL     1      -0.280  22.417   3.868  0.00  0.00    +0.000 OA
ATOM     36  H   UNL     1       0.633  22.561   3.543  0.00  0.00    +0.000 HD
ENDBRANCH  15  35
BRANCH   9  37
ATOM     37  O   UNL     1      -3.963  22.390  -0.186  0.00  0.00    +0.000 OA
ATOM     38  H   UNL     1      -4.691  21.757  -0.326  0.00  0.00    +0.000 HD
ENDBRANCH   9  37
BRANCH  20  39
ATOM     39  O   UNL     1      -1.930  23.959   5.161  0.00  0.00    +0.000 OA
ATOM     40  H   UNL     1      -2.136  23.635   6.054  0.00  0.00    +0.000 HD
ENDBRANCH  20  39
TORSDOF 7
ENDMDL
MODEL 3
REMARK VINA RESULT:      -6.2     14.540     18.598
REMARK  Name = Chlortetracycline.pdbqt.pdb
REMARK  7 active torsions:
REMARK  status: ('A' for Active; 'I' for Inactive)
REMARK    1  A    between atoms: C_7  and  O_30
REMARK    2  A    between atoms: C_8  and  N_32
REMARK    3  A    between atoms: C_9  and  O_37
REMARK    4  A    between atoms: C_12  and  O_28
REMARK    5  A    between atoms: C_15  and  O_35
REMARK    6  A    between atoms: C_16  and  C_23
REMARK    7  A    between atoms: C_20  and  O_39
REMARK                            x       y       z     vdW  Elec       q    Type
REMARK                         _______ _______ _______ _____ _____    ______ ____
ROOT
ATOM      1 CL   UNL     1     -22.579  38.330  22.134  0.00  0.00    +0.000 Cl
ATOM      2  O   UNL     1     -18.194  35.050  27.730  0.00  0.00    +0.000 OA
ATOM      3  O   UNL     1     -15.377  34.109  22.330  0.00  0.00    +0.000 OA
ATOM      4  C   UNL     1     -18.048  33.402  24.385  0.00  0.00    +0.000 C 
ATOM      5  C   UNL     1     -19.598  35.538  24.389  0.00  0.00    +0.000 C 
ATOM      6  C   UNL     1     -19.003  34.340  23.943  0.00  0.00    +0.000 C 
ATOM      7  C   UNL     1     -17.536  33.697  25.775  0.00  0.00    +0.000 C 
ATOM      8  C   UNL     1     -17.073  32.878  23.444  0.00  0.00    +0.000 C 
ATOM      9  C   UNL     1     -20.739  36.282  23.755  0.00  0.00    +0.000 C 
ATOM     10  C   UNL     1     -19.133  35.904  25.710  0.00  0.00    +0.000 C 
ATOM     11  C   UNL     1     -18.294  34.906  26.503  0.00  0.00    +0.000 C 
ATOM     12  C   UNL     1     -16.038  34.014  25.810  0.00  0.00    +0.000 C 
ATOM     13  C   UNL     1     -20.886  37.712  24.252  0.00  0.00    +0.000 A 
ATOM     14  C   UNL     1     -15.817  33.675  23.385  0.00  0.00    +0.000 C 
ATOM     15  C   UNL     1     -19.462  37.094  26.245  0.00  0.00    +0.000 C 
ATOM     16  C   UNL     1     -15.237  34.032  24.718  0.00  0.00    +0.000 C 
ATOM     17  C   UNL     1     -20.230  38.109  25.458  0.00  0.00    +0.000 A 
ATOM     18  C   UNL     1     -22.031  35.469  23.978  0.00  0.00    +0.000 C 
ATOM     19  C   UNL     1     -21.664  38.670  23.561  0.00  0.00    +0.000 A 
ATOM     20  C   UNL     1     -20.329  39.459  25.861  0.00  0.00    +0.000 A 
ATOM     21  C   UNL     1     -21.765  39.984  24.011  0.00  0.00    +0.000 A 
ATOM     22  C   UNL     1     -21.089  40.382  25.148  0.00  0.00    +0.000 A 
ENDROOT
BRANCH  16  23
ATOM     23  C   UNL     1     -13.772  34.294  24.796  0.00  0.00    +0.000 C 
ATOM     24  O   UNL     1     -12.990  33.479  25.270  0.00  0.00    +0.000 OA
ATOM     25  N   UNL     1     -13.333  35.494  24.330  0.00  0.00    +0.000 N 
ATOM     26  H   UNL     1     -13.984  36.262  24.207  0.00  0.00    +0.000 HD
ATOM     27  H   UNL     1     -12.360  35.718  24.492  0.00  0.00    +0.000 HD
ENDBRANCH  16  23
BRANCH   8  28
ATOM     28  N   UNL     1     -17.036  31.483  23.095  0.00  0.00    +0.000 NA
ATOM     29  C   UNL     1     -16.013  30.723  23.799  0.00  0.00    +0.000 C 
ATOM     30  C   UNL     1     -18.302  30.801  23.273  0.00  0.00    +0.000 C 
ENDBRANCH   8  28
BRANCH  12  31
ATOM     31  O   UNL     1     -15.504  34.218  27.085  0.00  0.00    +0.000 OA
ATOM     32  H   UNL     1     -14.633  34.668  26.988  0.00  0.00    +0.000 HD
ENDBRANCH  12  31
BRANCH   7  33
ATOM     33  O   UNL     1     -17.673  32.512  26.560  0.00  0.00    +0.000 OA
ATOM     34  H   UNL     1     -16.878  31.964  26.423  0.00  0.00    +0.000 HD
ENDBRANCH   7  33
BRANCH  15  35
ATOM     35  O   UNL     1     -19.143  37.450  27.538  0.00  0.00    +0.000 OA
ATOM     36  H   UNL     1     -19.642  38.250  27.805  0.00  0.00    +0.000 HD
ENDBRANCH  15  35
BRANCH   9  37
ATOM     37  O   UNL     1     -20.490  36.264  22.363  0.00  0.00    +0.000 OA
ATOM     38  H   UNL     1     -20.178  35.350  22.238  0.00  0.00    +0.000 HD
ENDBRANCH   9  37
BRANCH  20  39
ATOM     39  O   UNL     1     -19.645  39.933  26.947  0.00  0.00    +0.000 OA
ATOM     40  H   UNL     1     -19.483  39.206  27.572  0.00  0.00    +0.000 HD
ENDBRANCH  20  39
TORSDOF 7
ENDMDL
MODEL 4
REMARK VINA RESULT:      -6.1     32.077     34.141
REMARK  Name = Chlortetracycline.pdbqt.pdb
REMARK  7 active torsions:
REMARK  status: ('A' for Active; 'I' for Inactive)
REMARK    1  A    between atoms: C_7  and  O_30
REMARK    2  A    between atoms: C_8  and  N_32
REMARK    3  A    between atoms: C_9  and  O_37
REMARK    4  A    between atoms: C_12  and  O_28
REMARK    5  A    between atoms: C_15  and  O_35
REMARK    6  A    between atoms: C_16  and  C_23
REMARK    7  A    between atoms: C_20  and  O_39
REMARK                            x       y       z     vdW  Elec       q    Type
REMARK                         _______ _______ _______ _____ _____    ______ ____
ROOT
ATOM      1 CL   UNL     1      -8.009  23.161  -0.372  0.00  0.00    +0.000 Cl
ATOM      2  O   UNL     1      -0.677  21.628  -2.652  0.00  0.00    +0.000 OA
ATOM      3  O   UNL     1      -2.282  27.094  -5.005  0.00  0.00    +0.000 OA
ATOM      4  C   UNL     1      -2.712  23.677  -5.016  0.00  0.00    +0.000 C 
ATOM      5  C   UNL     1      -4.036  23.065  -2.816  0.00  0.00    +0.000 C 
ATOM      6  C   UNL     1      -3.797  23.524  -4.127  0.00  0.00    +0.000 C 
ATOM      7  C   UNL     1      -1.417  23.138  -4.457  0.00  0.00    +0.000 C 
ATOM      8  C   UNL     1      -2.609  24.886  -5.813  0.00  0.00    +0.000 C 
ATOM      9  C   UNL     1      -5.367  22.874  -2.144  0.00  0.00    +0.000 C 
ATOM     10  C   UNL     1      -2.828  22.556  -2.201  0.00  0.00    +0.000 C 
ATOM     11  C   UNL     1      -1.580  22.374  -3.059  0.00  0.00    +0.000 C 
ATOM     12  C   UNL     1      -0.349  24.219  -4.262  0.00  0.00    +0.000 C 
ATOM     13  C   UNL     1      -5.272  22.739  -0.632  0.00  0.00    +0.000 A 
ATOM     14  C   UNL     1      -1.828  25.969  -5.154  0.00  0.00    +0.000 C 
ATOM     15  C   UNL     1      -2.815  22.217  -0.898  0.00  0.00    +0.000 C 
ATOM     16  C   UNL     1      -0.528  25.529  -4.554  0.00  0.00    +0.000 C 
ATOM     17  C   UNL     1      -4.010  22.449  -0.029  0.00  0.00    +0.000 A 
ATOM     18  C   UNL     1      -6.058  21.651  -2.780  0.00  0.00    +0.000 C 
ATOM     19  C   UNL     1      -6.403  22.885   0.206  0.00  0.00    +0.000 A 
ATOM     20  C   UNL     1      -3.939  22.394   1.381  0.00  0.00    +0.000 A 
ATOM     21  C   UNL     1      -6.297  22.789   1.591  0.00  0.00    +0.000 A 
ATOM     22  C   UNL     1      -5.068  22.560   2.179  0.00  0.00    +0.000 A 
ENDROOT
BRANCH  16  23
ATOM     23  C   UNL     1       0.551  26.545  -4.400  0.00  0.00    +0.000 C 
ATOM     24  O   UNL     1       1.679  26.367  -4.840  0.00  0.00    +0.000 OA
ATOM     25  N   UNL     1       0.234  27.685  -3.729  0.00  0.00    +0.000 N 
ATOM     26  H   UNL     1      -0.586  27.714  -3.133  0.00  0.00    +0.000 HD
ATOM     27  H   UNL     1       0.995  28.319  -3.522  0.00  0.00    +0.000 HD
ENDBRANCH  16  23
BRANCH   8  28
ATOM     28  N   UNL     1      -2.683  24.850  -7.250  0.00  0.00    +0.000 NA
ATOM     29  C   UNL     1      -1.427  25.163  -7.916  0.00  0.00    +0.000 C 
ATOM     30  C   UNL     1      -3.170  23.593  -7.780  0.00  0.00    +0.000 C 
ENDBRANCH   8  28
BRANCH  12  31
ATOM     31  O   UNL     1       0.893  23.754  -3.821  0.00  0.00    +0.000 OA
ATOM     32  H   UNL     1       1.452  24.532  -3.594  0.00  0.00    +0.000 HD
ENDBRANCH  12  31
BRANCH   7  33
ATOM     33  O   UNL     1      -0.855  22.245  -5.421  0.00  0.00    +0.000 OA
ATOM     34  H   UNL     1      -0.831  22.705  -6.281  0.00  0.00    +0.000 HD
ENDBRANCH   7  33
BRANCH  15  35
ATOM     35  O   UNL     1      -1.731  21.625  -0.288  0.00  0.00    +0.000 OA
ATOM     36  H   UNL     1      -2.024  20.894   0.296  0.00  0.00    +0.000 HD
ENDBRANCH  15  35
BRANCH   9  37
ATOM     37  O   UNL     1      -6.145  24.001  -2.494  0.00  0.00    +0.000 OA
ATOM     38  H   UNL     1      -6.363  24.362  -1.615  0.00  0.00    +0.000 HD
ENDBRANCH   9  37
BRANCH  20  39
ATOM     39  O   UNL     1      -2.747  22.222   2.031  0.00  0.00    +0.000 OA
ATOM     40  H   UNL     1      -2.538  21.273   2.079  0.00  0.00    +0.000 HD
ENDBRANCH  20  39
TORSDOF 7
ENDMDL
MODEL 5
REMARK VINA RESULT:      -6.0     29.561     32.629
REMARK  Name = Chlortetracycline.pdbqt.pdb
REMARK  7 active torsions:
REMARK  status: ('A' for Active; 'I' for Inactive)
REMARK    1  A    between atoms: C_7  and  O_30
REMARK    2  A    between atoms: C_8  and  N_32
REMARK    3  A    between atoms: C_9  and  O_37
REMARK    4  A    between atoms: C_12  and  O_28
REMARK    5  A    between atoms: C_15  and  O_35
REMARK    6  A    between atoms: C_16  and  C_23
REMARK    7  A    between atoms: C_20  and  O_39
REMARK                            x       y       z     vdW  Elec       q    Type
REMARK                         _______ _______ _______ _____ _____    ______ ____
ROOT
ATOM      1 CL   UNL     1      17.636  37.473  16.671  0.00  0.00    +0.000 Cl
ATOM      2  O   UNL     1      10.023  39.073  15.780  0.00  0.00    +0.000 OA
ATOM      3  O   UNL     1      10.497  33.383  18.099  0.00  0.00    +0.000 OA
ATOM      4  C   UNL     1      10.976  35.484  15.413  0.00  0.00    +0.000 C 
ATOM      5  C   UNL     1      13.040  37.019  16.001  0.00  0.00    +0.000 C 
ATOM      6  C   UNL     1      12.317  35.879  15.597  0.00  0.00    +0.000 C 
ATOM      7  C   UNL     1       9.997  36.611  15.643  0.00  0.00    +0.000 C 
ATOM      8  C   UNL     1      10.552  34.169  15.860  0.00  0.00    +0.000 C 
ATOM      9  C   UNL     1      14.530  37.216  15.967  0.00  0.00    +0.000 C 
ATOM     10  C   UNL     1      12.163  38.139  16.269  0.00  0.00    +0.000 C 
ATOM     11  C   UNL     1      10.690  38.034  15.888  0.00  0.00    +0.000 C 
ATOM     12  C   UNL     1       9.053  36.356  16.822  0.00  0.00    +0.000 C 
ATOM     13  C   UNL     1      15.011  38.383  16.815  0.00  0.00    +0.000 A 
ATOM     14  C   UNL     1      10.048  34.151  17.261  0.00  0.00    +0.000 C 
ATOM     15  C   UNL     1      12.646  39.270  16.816  0.00  0.00    +0.000 C 
ATOM     16  C   UNL     1       9.078  35.242  17.592  0.00  0.00    +0.000 C 
ATOM     17  C   UNL     1      14.074  39.368  17.254  0.00  0.00    +0.000 A 
ATOM     18  C   UNL     1      14.964  37.369  14.495  0.00  0.00    +0.000 C 
ATOM     19  C   UNL     1      16.369  38.533  17.183  0.00  0.00    +0.000 A 
ATOM     20  C   UNL     1      14.536  40.404  18.095  0.00  0.00    +0.000 A 
ATOM     21  C   UNL     1      16.791  39.589  17.986  0.00  0.00    +0.000 A 
ATOM     22  C   UNL     1      15.877  40.514  18.454  0.00  0.00    +0.000 A 
ENDROOT
BRANCH  16  23
ATOM     23  C   UNL     1       8.110  35.005  18.700  0.00  0.00    +0.000 C 
ATOM     24  O   UNL     1       7.839  35.869  19.523  0.00  0.00    +0.000 OA
ATOM     25  N   UNL     1       7.545  33.769  18.773  0.00  0.00    +0.000 N 
ATOM     26  H   UNL     1       7.968  32.987  18.285  0.00  0.00    +0.000 HD
ATOM     27  H   UNL     1       6.983  33.572  19.590  0.00  0.00    +0.000 HD
ENDBRANCH  16  23
BRANCH   8  28
ATOM     28  N   UNL     1      10.085  33.173  14.933  0.00  0.00    +0.000 NA
ATOM     29  C   UNL     1      11.009  32.065  14.737  0.00  0.00    +0.000 C 
ATOM     30  C   UNL     1       8.789  32.620  15.271  0.00  0.00    +0.000 C 
ENDBRANCH   8  28
BRANCH  12  31
ATOM     31  O   UNL     1       8.078  37.337  17.025  0.00  0.00    +0.000 OA
ATOM     32  H   UNL     1       8.301  37.830  17.848  0.00  0.00    +0.000 HD
ENDBRANCH  12  31
BRANCH   7  33
ATOM     33  O   UNL     1       9.138  36.692  14.504  0.00  0.00    +0.000 OA
ATOM     34  H   UNL     1       9.688  36.605  13.704  0.00  0.00    +0.000 HD
ENDBRANCH   7  33
BRANCH  15  35
ATOM     35  O   UNL     1      11.883  40.405  16.990  0.00  0.00    +0.000 OA
ATOM     36  H   UNL     1      11.393  40.360  17.838  0.00  0.00    +0.000 HD
ENDBRANCH  15  35
BRANCH   9  37
ATOM     37  O   UNL     1      15.094  36.003  16.426  0.00  0.00    +0.000 OA
ATOM     38  H   UNL     1      15.519  35.672  15.614  0.00  0.00    +0.000 HD
ENDBRANCH   9  37
BRANCH  20  39
ATOM     39  O   UNL     1      13.678  41.323  18.635  0.00  0.00    +0.000 OA
ATOM     40  H   UNL     1      14.181  41.963  19.168  0.00  0.00    +0.000 HD
ENDBRANCH  20  39
TORSDOF 7
ENDMDL
MODEL 6
REMARK VINA RESULT:      -5.9     54.512     56.454
REMARK  Name = Chlortetracycline.pdbqt.pdb
REMARK  7 active torsions:
REMARK  status: ('A' for Active; 'I' for Inactive)
REMARK    1  A    between atoms: C_7  and  O_30
REMARK    2  A    between atoms: C_8  and  N_32
REMARK    3  A    between atoms: C_9  and  O_37
REMARK    4  A    between atoms: C_12  and  O_28
REMARK    5  A    between atoms: C_15  and  O_35
REMARK    6  A    between atoms: C_16  and  C_23
REMARK    7  A    between atoms: C_20  and  O_39
REMARK                            x       y       z     vdW  Elec       q    Type
REMARK                         _______ _______ _______ _____ _____    ______ ____
ROOT
ATOM      1 CL   UNL     1       6.689  59.615  -7.089  0.00  0.00    +0.000 Cl
ATOM      2  O   UNL     1      -0.949  57.951  -6.642  0.00  0.00    +0.000 OA
ATOM      3  O   UNL     1      -0.103  61.652 -11.497  0.00  0.00    +0.000 OA
ATOM      4  C   UNL     1      -0.101  61.292  -8.072  0.00  0.00    +0.000 C 
ATOM      5  C   UNL     1       2.045  59.888  -7.452  0.00  0.00    +0.000 C 
ATOM      6  C   UNL     1       1.254  60.995  -7.819  0.00  0.00    +0.000 C 
ATOM      7  C   UNL     1      -1.015  60.117  -7.821  0.00  0.00    +0.000 C 
ATOM      8  C   UNL     1      -0.446  62.140  -9.200  0.00  0.00    +0.000 C 
ATOM      9  C   UNL     1       3.506  59.887  -7.097  0.00  0.00    +0.000 C 
ATOM     10  C   UNL     1       1.238  58.709  -7.221  0.00  0.00    +0.000 C 
ATOM     11  C   UNL     1      -0.281  58.847  -7.177  0.00  0.00    +0.000 C 
ATOM     12  C   UNL     1      -1.733  59.633  -9.085  0.00  0.00    +0.000 C 
ATOM     13  C   UNL     1       4.139  58.504  -7.125  0.00  0.00    +0.000 A 
ATOM     14  C   UNL     1      -0.691  61.384 -10.459  0.00  0.00    +0.000 C 
ATOM     15  C   UNL     1       1.819  57.512  -7.015  0.00  0.00    +0.000 C 
ATOM     16  C   UNL     1      -1.578  60.188 -10.310  0.00  0.00    +0.000 C 
ATOM     17  C   UNL     1       3.302  57.346  -7.117  0.00  0.00    +0.000 A 
ATOM     18  C   UNL     1       3.670  60.557  -5.718  0.00  0.00    +0.000 C 
ATOM     19  C   UNL     1       5.542  58.322  -7.151  0.00  0.00    +0.000 A 
ATOM     20  C   UNL     1       3.915  56.077  -7.210  0.00  0.00    +0.000 A 
ATOM     21  C   UNL     1       6.108  57.052  -7.208  0.00  0.00    +0.000 A 
ATOM     22  C   UNL     1       5.299  55.932  -7.252  0.00  0.00    +0.000 A 
ENDROOT
BRANCH  16  23
ATOM     23  C   UNL     1      -2.333  59.723 -11.508  0.00  0.00    +0.000 C 
ATOM     24  O   UNL     1      -2.373  58.545 -11.835  0.00  0.00    +0.000 OA
ATOM     25  N   UNL     1      -2.969  60.674 -12.245  0.00  0.00    +0.000 N 
ATOM     26  H   UNL     1      -2.710  61.650 -12.149  0.00  0.00    +0.000 HD
ATOM     27  H   UNL     1      -3.379  60.376 -13.120  0.00  0.00    +0.000 HD
ENDBRANCH  16  23
BRANCH   8  28
ATOM     28  N   UNL     1      -1.079  63.419  -9.015  0.00  0.00    +0.000 NA
ATOM     29  C   UNL     1      -2.495  63.434  -9.351  0.00  0.00    +0.000 C 
ATOM     30  C   UNL     1      -0.930  63.958  -7.678  0.00  0.00    +0.000 C 
ENDBRANCH   8  28
BRANCH  12  31
ATOM     31  O   UNL     1      -2.650  58.596  -8.887  0.00  0.00    +0.000 OA
ATOM     32  H   UNL     1      -2.198  57.742  -9.077  0.00  0.00    +0.000 HD
ENDBRANCH  12  31
BRANCH   7  33
ATOM     33  O   UNL     1      -2.064  60.548  -6.953  0.00  0.00    +0.000 OA
ATOM     34  H   UNL     1      -2.408  61.395  -7.290  0.00  0.00    +0.000 HD
ENDBRANCH   7  33
BRANCH  15  35
ATOM     35  O   UNL     1       1.107  56.380  -6.680  0.00  0.00    +0.000 OA
ATOM     36  H   UNL     1       1.434  55.609  -7.190  0.00  0.00    +0.000 HD
ENDBRANCH  15  35
BRANCH   9  37
ATOM     37  O   UNL     1       4.135  60.739  -8.034  0.00  0.00    +0.000 OA
ATOM     38  H   UNL     1       4.061  61.601  -7.585  0.00  0.00    +0.000 HD
ENDBRANCH   9  37
BRANCH  20  39
ATOM     39  O   UNL     1       3.174  54.930  -7.310  0.00  0.00    +0.000 OA
ATOM     40  H   UNL     1       2.259  55.156  -7.548  0.00  0.00    +0.000 HD
ENDBRANCH  20  39
TORSDOF 7
ENDMDL
MODEL 7
REMARK VINA RESULT:      -5.7      6.045      9.569
REMARK  Name = Chlortetracycline.pdbqt.pdb
REMARK  7 active torsions:
REMARK  status: ('A' for Active; 'I' for Inactive)
REMARK    1  A    between atoms: C_7  and  O_30
REMARK    2  A    between atoms: C_8  and  N_32
REMARK    3  A    between atoms: C_9  and  O_37
REMARK    4  A    between atoms: C_12  and  O_28
REMARK    5  A    between atoms: C_15  and  O_35
REMARK    6  A    between atoms: C_16  and  C_23
REMARK    7  A    between atoms: C_20  and  O_39
REMARK                            x       y       z     vdW  Elec       q    Type
REMARK                         _______ _______ _______ _____ _____    ______ ____
ROOT
ATOM      1 CL   UNL     1       1.042  20.462  30.681  0.00  0.00    +0.000 Cl
ATOM      2  O   UNL     1      -5.305  16.156  32.256  0.00  0.00    +0.000 OA
ATOM      3  O   UNL     1      -7.186  21.868  30.907  0.00  0.00    +0.000 OA
ATOM      4  C   UNL     1      -5.556  19.780  33.108  0.00  0.00    +0.000 C 
ATOM      5  C   UNL     1      -3.240  19.163  32.005  0.00  0.00    +0.000 C 
ATOM      6  C   UNL     1      -4.217  19.915  32.688  0.00  0.00    +0.000 C 
ATOM      7  C   UNL     1      -6.127  18.413  32.816  0.00  0.00    +0.000 C 
ATOM      8  C   UNL     1      -6.468  20.900  32.952  0.00  0.00    +0.000 C 
ATOM      9  C   UNL     1      -1.790  19.509  31.813  0.00  0.00    +0.000 C 
ATOM     10  C   UNL     1      -3.726  17.843  31.664  0.00  0.00    +0.000 C 
ATOM     11  C   UNL     1      -5.055  17.370  32.243  0.00  0.00    +0.000 C 
ATOM     12  C   UNL     1      -7.299  18.449  31.829  0.00  0.00    +0.000 C 
ATOM     13  C   UNL     1      -1.109  18.697  30.722  0.00  0.00    +0.000 A 
ATOM     14  C   UNL     1      -7.194  20.899  31.652  0.00  0.00    +0.000 C 
ATOM     15  C   UNL     1      -3.000  17.030  30.873  0.00  0.00    +0.000 C 
ATOM     16  C   UNL     1      -7.787  19.579  31.266  0.00  0.00    +0.000 C 
ATOM     17  C   UNL     1      -1.726  17.500  30.245  0.00  0.00    +0.000 A 
ATOM     18  C   UNL     1      -1.071  19.352  33.169  0.00  0.00    +0.000 C 
ATOM     19  C   UNL     1       0.132  19.086  30.162  0.00  0.00    +0.000 A 
ATOM     20  C   UNL     1      -1.104  16.802  29.187  0.00  0.00    +0.000 A 
ATOM     21  C   UNL     1       0.729  18.350  29.143  0.00  0.00    +0.000 A 
ATOM     22  C   UNL     1       0.108  17.221  28.645  0.00  0.00    +0.000 A 
ENDROOT
BRANCH  16  23
ATOM     23  C   UNL     1      -8.962  19.582  30.349  0.00  0.00    +0.000 C 
ATOM     24  O   UNL     1      -8.990  18.909  29.326  0.00  0.00    +0.000 OA
ATOM     25  N   UNL     1     -10.007  20.383  30.687  0.00  0.00    +0.000 N 
ATOM     26  H   UNL     1      -9.877  21.135  31.355  0.00  0.00    +0.000 HD
ATOM     27  H   UNL     1     -10.750  20.476  30.007  0.00  0.00    +0.000 HD
ENDBRANCH  16  23
BRANCH   8  28
ATOM     28  N   UNL     1      -7.066  21.549  34.088  0.00  0.00    +0.000 NA
ATOM     29  C   UNL     1      -6.713  22.956  34.221  0.00  0.00    +0.000 C 
ATOM     30  C   UNL     1      -8.510  21.444  34.131  0.00  0.00    +0.000 C 
ENDBRANCH   8  28
BRANCH  12  31
ATOM     31  O   UNL     1      -7.910  17.215  31.589  0.00  0.00    +0.000 OA
ATOM     32  H   UNL     1      -7.968  17.083  30.615  0.00  0.00    +0.000 HD
ENDBRANCH  12  31
BRANCH   7  33
ATOM     33  O   UNL     1      -6.689  17.899  34.025  0.00  0.00    +0.000 OA
ATOM     34  H   UNL     1      -7.658  17.876  33.922  0.00  0.00    +0.000 HD
ENDBRANCH   7  33
BRANCH  15  35
ATOM     35  O   UNL     1      -3.358  15.726  30.606  0.00  0.00    +0.000 OA
ATOM     36  H   UNL     1      -2.723  15.319  29.981  0.00  0.00    +0.000 HD
ENDBRANCH  15  35
BRANCH   9  37
ATOM     37  O   UNL     1      -1.757  20.888  31.500  0.00  0.00    +0.000 OA
ATOM     38  H   UNL     1      -0.948  20.940  30.958  0.00  0.00    +0.000 HD
ENDBRANCH   9  37
BRANCH  20  39
ATOM     39  O   UNL     1      -1.688  15.707  28.611  0.00  0.00    +0.000 OA
ATOM     40  H   UNL     1      -2.074  15.957  27.754  0.00  0.00    +0.000 HD
ENDBRANCH  20  39
TORSDOF 7
ENDMDL
MODEL 8
REMARK VINA RESULT:      -5.6     15.404     18.728
REMARK  Name = Chlortetracycline.pdbqt.pdb
REMARK  7 active torsions:
REMARK  status: ('A' for Active; 'I' for Inactive)
REMARK    1  A    between atoms: C_7  and  O_30
REMARK    2  A    between atoms: C_8  and  N_32
REMARK    3  A    between atoms: C_9  and  O_37
REMARK    4  A    between atoms: C_12  and  O_28
REMARK    5  A    between atoms: C_15  and  O_35
REMARK    6  A    between atoms: C_16  and  C_23
REMARK    7  A    between atoms: C_20  and  O_39
REMARK                            x       y       z     vdW  Elec       q    Type
REMARK                         _______ _______ _______ _____ _____    ______ ____
ROOT
ATOM      1 CL   UNL     1     -21.569  40.991  25.308  0.00  0.00    +0.000 Cl
ATOM      2  O   UNL     1     -17.490  34.838  27.917  0.00  0.00    +0.000 OA
ATOM      3  O   UNL     1     -17.899  34.369  21.786  0.00  0.00    +0.000 OA
ATOM      4  C   UNL     1     -19.504  34.253  24.831  0.00  0.00    +0.000 C 
ATOM      5  C   UNL     1     -19.684  36.740  25.695  0.00  0.00    +0.000 C 
ATOM      6  C   UNL     1     -19.975  35.577  24.954  0.00  0.00    +0.000 C 
ATOM      7  C   UNL     1     -18.407  33.927  25.816  0.00  0.00    +0.000 C 
ATOM      8  C   UNL     1     -19.370  33.664  23.510  0.00  0.00    +0.000 C 
ATOM      9  C   UNL     1     -20.470  38.021  25.730  0.00  0.00    +0.000 C 
ATOM     10  C   UNL     1     -18.618  36.513  26.647  0.00  0.00    +0.000 C 
ATOM     11  C   UNL     1     -18.127  35.088  26.884  0.00  0.00    +0.000 C 
ATOM     12  C   UNL     1     -17.072  33.596  25.143  0.00  0.00    +0.000 C 
ATOM     13  C   UNL     1     -19.699  39.194  26.314  0.00  0.00    +0.000 A 
ATOM     14  C   UNL     1     -18.030  33.876  22.897  0.00  0.00    +0.000 C 
ATOM     15  C   UNL     1     -18.089  37.539  27.339  0.00  0.00    +0.000 C 
ATOM     16  C   UNL     1     -16.873  33.591  23.804  0.00  0.00    +0.000 C 
ATOM     17  C   UNL     1     -18.514  38.949  27.074  0.00  0.00    +0.000 A 
ATOM     18  C   UNL     1     -21.781  37.764  26.502  0.00  0.00    +0.000 C 
ATOM     19  C   UNL     1     -20.121  40.533  26.135  0.00  0.00    +0.000 A 
ATOM     20  C   UNL     1     -17.782  40.060  27.549  0.00  0.00    +0.000 A 
ATOM     21  C   UNL     1     -19.389  41.599  26.649  0.00  0.00    +0.000 A 
ATOM     22  C   UNL     1     -18.215  41.366  27.341  0.00  0.00    +0.000 A 
ENDROOT
BRANCH  16  23
ATOM     23  C   UNL     1     -15.573  33.214  23.182  0.00  0.00    +0.000 C 
ATOM     24  O   UNL     1     -14.509  33.684  23.564  0.00  0.00    +0.000 OA
ATOM     25  N   UNL     1     -15.615  32.331  22.148  0.00  0.00    +0.000 N 
ATOM     26  H   UNL     1     -16.487  32.166  21.655  0.00  0.00    +0.000 HD
ATOM     27  H   UNL     1     -14.750  32.168  21.651  0.00  0.00    +0.000 HD
ENDBRANCH  16  23
BRANCH   8  28
ATOM     28  N   UNL     1     -20.152  32.524  23.111  0.00  0.00    +0.000 NA
ATOM     29  C   UNL     1     -19.537  31.243  23.428  0.00  0.00    +0.000 C 
ATOM     30  C   UNL     1     -21.497  32.519  23.647  0.00  0.00    +0.000 C 
ENDBRANCH   8  28
BRANCH  12  31
ATOM     31  O   UNL     1     -16.048  33.212  26.014  0.00  0.00    +0.000 OA
ATOM     32  H   UNL     1     -16.222  33.617  26.894  0.00  0.00    +0.000 HD
ENDBRANCH  12  31
BRANCH   7  33
ATOM     33  O   UNL     1     -18.771  32.729  26.505  0.00  0.00    +0.000 OA
ATOM     34  H   UNL     1     -18.363  31.976  26.039  0.00  0.00    +0.000 HD
ENDBRANCH   7  33
BRANCH  15  35
ATOM     35  O   UNL     1     -17.153  37.369  28.336  0.00  0.00    +0.000 OA
ATOM     36  H   UNL     1     -16.966  38.224  28.779  0.00  0.00    +0.000 HD
ENDBRANCH  15  35
BRANCH   9  37
ATOM     37  O   UNL     1     -20.840  38.287  24.391  0.00  0.00    +0.000 OA
ATOM     38  H   UNL     1     -20.015  38.668  24.039  0.00  0.00    +0.000 HD
ENDBRANCH   9  37
BRANCH  20  39
ATOM     39  O   UNL     1     -16.586  39.905  28.196  0.00  0.00    +0.000 OA
ATOM     40  H   UNL     1     -16.714  39.354  28.987  0.00  0.00    +0.000 HD
ENDBRANCH  20  39
TORSDOF 7
ENDMDL
MODEL 9
REMARK VINA RESULT:      -5.6     37.312     39.437
REMARK  Name = Chlortetracycline.pdbqt.pdb
REMARK  7 active torsions:
REMARK  status: ('A' for Active; 'I' for Inactive)
REMARK    1  A    between atoms: C_7  and  O_30
REMARK    2  A    between atoms: C_8  and  N_32
REMARK    3  A    between atoms: C_9  and  O_37
REMARK    4  A    between atoms: C_12  and  O_28
REMARK    5  A    between atoms: C_15  and  O_35
REMARK    6  A    between atoms: C_16  and  C_23
REMARK    7  A    between atoms: C_20  and  O_39
REMARK                            x       y       z     vdW  Elec       q    Type
REMARK                         _______ _______ _______ _____ _____    ______ ____
ROOT
ATOM      1 CL   UNL     1       1.674  21.863 -12.215  0.00  0.00    +0.000 Cl
ATOM      2  O   UNL     1      -2.603  25.337  -6.653  0.00  0.00    +0.000 OA
ATOM      3  O   UNL     1       3.319  25.706  -4.987  0.00  0.00    +0.000 OA
ATOM      4  C   UNL     1       0.552  23.718  -5.493  0.00  0.00    +0.000 C 
ATOM      5  C   UNL     1       0.220  23.521  -8.103  0.00  0.00    +0.000 C 
ATOM      6  C   UNL     1       0.753  23.285  -6.820  0.00  0.00    +0.000 C 
ATOM      7  C   UNL     1      -0.616  24.666  -5.356  0.00  0.00    +0.000 C 
ATOM      8  C   UNL     1       1.704  23.999  -4.653  0.00  0.00    +0.000 C 
ATOM      9  C   UNL     1       0.540  22.785  -9.374  0.00  0.00    +0.000 C 
ATOM     10  C   UNL     1      -0.892  24.446  -8.057  0.00  0.00    +0.000 C 
ATOM     11  C   UNL     1      -1.465  24.850  -6.701  0.00  0.00    +0.000 C 
ATOM     12  C   UNL     1      -0.205  26.064  -4.883  0.00  0.00    +0.000 C 
ATOM     13  C   UNL     1       0.098  23.519 -10.631  0.00  0.00    +0.000 A 
ATOM     14  C   UNL     1       2.161  25.414  -4.724  0.00  0.00    +0.000 C 
ATOM     15  C   UNL     1      -1.436  24.919  -9.194  0.00  0.00    +0.000 C 
ATOM     16  C   UNL     1       1.069  26.433  -4.612  0.00  0.00    +0.000 C 
ATOM     17  C   UNL     1      -0.848  24.585 -10.528  0.00  0.00    +0.000 A 
ATOM     18  C   UNL     1      -0.085  21.378  -9.290  0.00  0.00    +0.000 C 
ATOM     19  C   UNL     1       0.588  23.173 -11.913  0.00  0.00    +0.000 A 
ATOM     20  C   UNL     1      -1.191  25.291 -11.702  0.00  0.00    +0.000 A 
ATOM     21  C   UNL     1       0.198  23.873 -13.051  0.00  0.00    +0.000 A 
ATOM     22  C   UNL     1      -0.677  24.938 -12.947  0.00  0.00    +0.000 A 
ENDROOT
BRANCH  16  23
ATOM     23  C   UNL     1       1.427  27.788  -4.104  0.00  0.00    +0.000 C 
ATOM     24  O   UNL     1       1.065  28.810  -4.671  0.00  0.00    +0.000 OA
ATOM     25  N   UNL     1       2.195  27.845  -2.983  0.00  0.00    +0.000 N 
ATOM     26  H   UNL     1       2.721  27.030  -2.684  0.00  0.00    +0.000 HD
ATOM     27  H   UNL     1       2.535  28.756  -2.709  0.00  0.00    +0.000 HD
ENDBRANCH  16  23
BRANCH   8  28
ATOM     28  N   UNL     1       1.974  23.233  -3.465  0.00  0.00    +0.000 NA
ATOM     29  C   UNL     1       3.295  22.621  -3.442  0.00  0.00    +0.000 C 
ATOM     30  C   UNL     1       1.806  23.980  -2.235  0.00  0.00    +0.000 C 
ENDBRANCH   8  28
BRANCH  12  31
ATOM     31  O   UNL     1      -1.262  26.952  -4.667  0.00  0.00    +0.000 OA
ATOM     32  H   UNL     1      -1.640  26.772  -3.776  0.00  0.00    +0.000 HD
ENDBRANCH  12  31
BRANCH   7  33
ATOM     33  O   UNL     1      -1.469  24.171  -4.322  0.00  0.00    +0.000 OA
ATOM     34  H   UNL     1      -2.108  24.872  -4.095  0.00  0.00    +0.000 HD
ENDBRANCH   7  33
BRANCH  15  35
ATOM     35  O   UNL     1      -2.563  25.713  -9.213  0.00  0.00    +0.000 OA
ATOM     36  H   UNL     1      -3.314  25.229  -9.618  0.00  0.00    +0.000 HD
ENDBRANCH  15  35
BRANCH   9  37
ATOM     37  O   UNL     1       1.942  22.602  -9.375  0.00  0.00    +0.000 OA
ATOM     38  H   UNL     1       2.130  22.583 -10.331  0.00  0.00    +0.000 HD
ENDBRANCH   9  37
BRANCH  20  39
ATOM     39  O   UNL     1      -2.010  26.387 -11.665  0.00  0.00    +0.000 OA
ATOM     40  H   UNL     1      -2.016  26.818 -12.537  0.00  0.00    +0.000 HD
ENDBRANCH  20  39
TORSDOF 7
ENDMDL
