MODEL 1
REMARK VINA RESULT:      -6.7      0.000      0.000
REMARK  Name = Ciclopirox.pdbqt.pdb
REMARK  2 active torsions:
REMARK  status: ('A' for Active; 'I' for Inactive)
REMARK    1  A    between atoms: N_2  and  O_15
REMARK    2  A    between atoms: C_3  and  C_9
REMARK                            x       y       z     vdW  Elec       q    Type
REMARK                         _______ _______ _______ _____ _____    ______ ____
ROOT
ATOM      1  O   UNL     1       9.237  31.660  15.539  0.00  0.00    +0.000 OA
ATOM      2  N   UNL     1       7.234  30.503  15.174  0.00  0.00    +0.000 N 
ATOM      3  C   UNL     1       6.576  29.270  15.064  0.00  0.00    +0.000 C 
ATOM      4  C   UNL     1       7.416  28.272  15.182  0.00  0.00    +0.000 C 
ATOM      5  C   UNL     1       8.818  28.100  15.373  0.00  0.00    +0.000 C 
ATOM      6  C   UNL     1       8.620  30.615  15.390  0.00  0.00    +0.000 C 
ATOM      7  C   UNL     1       9.256  29.320  15.453  0.00  0.00    +0.000 C 
ATOM      8  C   UNL     1       9.564  27.060  14.603  0.00  0.00    +0.000 C 
ENDROOT
BRANCH   3   9
ATOM      9  C   UNL     1       5.166  29.106  14.864  0.00  0.00    +0.000 A 
ATOM     10  C   UNL     1       4.159  29.624  15.762  0.00  0.00    +0.000 A 
ATOM     11  C   UNL     1       2.643  29.334  15.845  0.00  0.00    +0.000 A 
ATOM     12  C   UNL     1       2.084  28.336  14.814  0.00  0.00    +0.000 A 
ATOM     13  C   UNL     1       3.080  27.728  13.808  0.00  0.00    +0.000 A 
ATOM     14  C   UNL     1       4.549  28.188  13.940  0.00  0.00    +0.000 A 
ENDBRANCH   3   9
BRANCH   2  15
ATOM     15  O   UNL     1       6.473  31.688  15.162  0.00  0.00    +0.000 OA
ATOM     16  H   UNL     1       6.269  31.819  16.110  0.00  0.00    +0.000 HD
ENDBRANCH   2  15
TORSDOF 2
ENDMDL
MODEL 2
REMARK VINA RESULT:      -5.5     25.197     26.867
REMARK  Name = Ciclopirox.pdbqt.pdb
REMARK  2 active torsions:
REMARK  status: ('A' for Active; 'I' for Inactive)
REMARK    1  A    between atoms: N_2  and  O_15
REMARK    2  A    between atoms: C_3  and  C_9
REMARK                            x       y       z     vdW  Elec       q    Type
REMARK                         _______ _______ _______ _____ _____    ______ ____
ROOT
ATOM      1  O   UNL     1      15.745  43.786  -5.868  0.00  0.00    +0.000 OA
ATOM      2  N   UNL     1      17.455  42.662  -4.729  0.00  0.00    +0.000 N 
ATOM      3  C   UNL     1      18.681  41.985  -4.792  0.00  0.00    +0.000 C 
ATOM      4  C   UNL     1      19.099  41.875  -6.028  0.00  0.00    +0.000 C 
ATOM      5  C   UNL     1      18.637  42.239  -7.327  0.00  0.00    +0.000 C 
ATOM      6  C   UNL     1      16.791  43.152  -5.868  0.00  0.00    +0.000 C 
ATOM      7  C   UNL     1      17.514  42.844  -7.080  0.00  0.00    +0.000 C 
ATOM      8  C   UNL     1      18.767  41.288  -8.470  0.00  0.00    +0.000 C 
ENDROOT
BRANCH   3   9
ATOM      9  C   UNL     1      19.404  41.487  -3.659  0.00  0.00    +0.000 A 
ATOM     10  C   UNL     1      20.715  41.953  -3.270  0.00  0.00    +0.000 A 
ATOM     11  C   UNL     1      21.730  41.371  -2.259  0.00  0.00    +0.000 A 
ATOM     12  C   UNL     1      21.300  40.084  -1.530  0.00  0.00    +0.000 A 
ATOM     13  C   UNL     1      19.914  39.507  -1.873  0.00  0.00    +0.000 A 
ATOM     14  C   UNL     1      19.092  40.286  -2.924  0.00  0.00    +0.000 A 
ENDBRANCH   3   9
BRANCH   2  15
ATOM     15  O   UNL     1      16.898  42.952  -3.468  0.00  0.00    +0.000 OA
ATOM     16  H   UNL     1      17.094  43.905  -3.363  0.00  0.00    +0.000 HD
ENDBRANCH   2  15
TORSDOF 2
ENDMDL
MODEL 3
REMARK VINA RESULT:      -5.4     24.529     26.010
REMARK  Name = Ciclopirox.pdbqt.pdb
REMARK  2 active torsions:
REMARK  status: ('A' for Active; 'I' for Inactive)
REMARK    1  A    between atoms: N_2  and  O_15
REMARK    2  A    between atoms: C_3  and  C_9
REMARK                            x       y       z     vdW  Elec       q    Type
REMARK                         _______ _______ _______ _____ _____    ______ ____
ROOT
ATOM      1  O   UNL     1      22.476  41.950  -1.877  0.00  0.00    +0.000 OA
ATOM      2  N   UNL     1      20.508  41.924  -3.146  0.00  0.00    +0.000 N 
ATOM      3  C   UNL     1      19.300  41.283  -3.455  0.00  0.00    +0.000 C 
ATOM      4  C   UNL     1      19.167  40.171  -2.776  0.00  0.00    +0.000 C 
ATOM      5  C   UNL     1      19.924  39.427  -1.824  0.00  0.00    +0.000 C 
ATOM      6  C   UNL     1      21.432  41.412  -2.217  0.00  0.00    +0.000 C 
ATOM      7  C   UNL     1      20.987  40.156  -1.660  0.00  0.00    +0.000 C 
ATOM      8  C   UNL     1      20.013  37.941  -1.924  0.00  0.00    +0.000 C 
ENDROOT
BRANCH   3   9
ATOM      9  C   UNL     1      18.321  41.775  -4.379  0.00  0.00    +0.000 A 
ATOM     10  C   UNL     1      18.439  41.664  -5.815  0.00  0.00    +0.000 A 
ATOM     11  C   UNL     1      17.632  42.343  -6.945  0.00  0.00    +0.000 A 
ATOM     12  C   UNL     1      16.511  43.299  -6.498  0.00  0.00    +0.000 A 
ATOM     13  C   UNL     1      16.302  43.485  -4.984  0.00  0.00    +0.000 A 
ATOM     14  C   UNL     1      17.249  42.685  -4.062  0.00  0.00    +0.000 A 
ENDBRANCH   3   9
BRANCH   2  15
ATOM     15  O   UNL     1      20.779  43.182  -3.717  0.00  0.00    +0.000 OA
ATOM     16  H   UNL     1      20.262  43.155  -4.548  0.00  0.00    +0.000 HD
ENDBRANCH   2  15
TORSDOF 2
ENDMDL
MODEL 4
REMARK VINA RESULT:      -5.3      3.556      5.157
REMARK  Name = Ciclopirox.pdbqt.pdb
REMARK  2 active torsions:
REMARK  status: ('A' for Active; 'I' for Inactive)
REMARK    1  A    between atoms: N_2  and  O_15
REMARK    2  A    between atoms: C_3  and  C_9
REMARK                            x       y       z     vdW  Elec       q    Type
REMARK                         _______ _______ _______ _____ _____    ______ ____
ROOT
ATOM      1  O   UNL     1      12.802  24.875  15.682  0.00  0.00    +0.000 OA
ATOM      2  N   UNL     1      11.000  26.370  15.608  0.00  0.00    +0.000 N 
ATOM      3  C   UNL     1      10.422  27.508  15.029  0.00  0.00    +0.000 C 
ATOM      4  C   UNL     1      11.217  28.040  14.134  0.00  0.00    +0.000 C 
ATOM      5  C   UNL     1      12.515  27.787  13.603  0.00  0.00    +0.000 C 
ATOM      6  C   UNL     1      12.270  25.886  15.245  0.00  0.00    +0.000 C 
ATOM      7  C   UNL     1      12.890  26.718  14.240  0.00  0.00    +0.000 C 
ATOM      8  C   UNL     1      13.464  28.912  13.357  0.00  0.00    +0.000 C 
ENDROOT
BRANCH   3   9
ATOM      9  C   UNL     1       9.125  28.026  15.353  0.00  0.00    +0.000 A 
ATOM     10  C   UNL     1       7.890  27.498  14.820  0.00  0.00    +0.000 A 
ATOM     11  C   UNL     1       6.455  28.072  14.852  0.00  0.00    +0.000 A 
ATOM     12  C   UNL     1       6.282  29.427  15.562  0.00  0.00    +0.000 A 
ATOM     13  C   UNL     1       7.541  30.074  16.168  0.00  0.00    +0.000 A 
ATOM     14  C   UNL     1       8.860  29.288  15.997  0.00  0.00    +0.000 A 
ENDBRANCH   3   9
BRANCH   2  15
ATOM     15  O   UNL     1      10.248  25.615  16.529  0.00  0.00    +0.000 OA
ATOM     16  H   UNL     1      10.719  25.778  17.372  0.00  0.00    +0.000 HD
ENDBRANCH   2  15
TORSDOF 2
ENDMDL
MODEL 5
REMARK VINA RESULT:      -4.9     32.820     33.935
REMARK  Name = Ciclopirox.pdbqt.pdb
REMARK  2 active torsions:
REMARK  status: ('A' for Active; 'I' for Inactive)
REMARK    1  A    between atoms: N_2  and  O_15
REMARK    2  A    between atoms: C_3  and  C_9
REMARK                            x       y       z     vdW  Elec       q    Type
REMARK                         _______ _______ _______ _____ _____    ______ ____
ROOT
ATOM      1  O   UNL     1      -2.325  61.460  14.279  0.00  0.00    +0.000 OA
ATOM      2  N   UNL     1      -2.023  61.706  11.970  0.00  0.00    +0.000 N 
ATOM      3  C   UNL     1      -2.377  61.304  10.674  0.00  0.00    +0.000 C 
ATOM      4  C   UNL     1      -3.253  60.331  10.703  0.00  0.00    +0.000 C 
ATOM      5  C   UNL     1      -3.928  59.558  11.692  0.00  0.00    +0.000 C 
ATOM      6  C   UNL     1      -2.563  61.120  13.129  0.00  0.00    +0.000 C 
ATOM      7  C   UNL     1      -3.488  60.059  12.807  0.00  0.00    +0.000 C 
ATOM      8  C   UNL     1      -4.092  58.085  11.518  0.00  0.00    +0.000 C 
ENDROOT
BRANCH   3   9
ATOM      9  C   UNL     1      -1.869  61.884   9.465  0.00  0.00    +0.000 A 
ATOM     10  C   UNL     1      -1.471  63.268   9.340  0.00  0.00    +0.000 A 
ATOM     11  C   UNL     1      -1.151  64.111   8.085  0.00  0.00    +0.000 A 
ATOM     12  C   UNL     1      -1.264  63.385   6.732  0.00  0.00    +0.000 A 
ATOM     13  C   UNL     1      -1.680  61.903   6.758  0.00  0.00    +0.000 A 
ATOM     14  C   UNL     1      -1.943  61.293   8.153  0.00  0.00    +0.000 A 
ENDBRANCH   3   9
BRANCH   2  15
ATOM     15  O   UNL     1      -1.157  62.805  12.131  0.00  0.00    +0.000 OA
ATOM     16  H   UNL     1      -1.717  63.559  11.854  0.00  0.00    +0.000 HD
ENDBRANCH   2  15
TORSDOF 2
ENDMDL
MODEL 6
REMARK VINA RESULT:      -4.8     23.859     26.969
REMARK  Name = Ciclopirox.pdbqt.pdb
REMARK  2 active torsions:
REMARK  status: ('A' for Active; 'I' for Inactive)
REMARK    1  A    between atoms: N_2  and  O_15
REMARK    2  A    between atoms: C_3  and  C_9
REMARK                            x       y       z     vdW  Elec       q    Type
REMARK                         _______ _______ _______ _____ _____    ______ ____
ROOT
ATOM      1  O   UNL     1     -19.411  38.636  26.542  0.00  0.00    +0.000 OA
ATOM      2  N   UNL     1     -17.652  37.101  26.360  0.00  0.00    +0.000 N 
ATOM      3  C   UNL     1     -17.196  35.866  25.878  0.00  0.00    +0.000 C 
ATOM      4  C   UNL     1     -18.152  35.215  25.263  0.00  0.00    +0.000 C 
ATOM      5  C   UNL     1     -19.533  35.413  24.968  0.00  0.00    +0.000 C 
ATOM      6  C   UNL     1     -18.973  37.553  26.183  0.00  0.00    +0.000 C 
ATOM      7  C   UNL     1     -19.778  36.583  25.478  0.00  0.00    +0.000 C 
ATOM      8  C   UNL     1     -20.505  34.289  25.111  0.00  0.00    +0.000 C 
ENDROOT
BRANCH   3   9
ATOM      9  C   UNL     1     -15.857  35.373  26.016  0.00  0.00    +0.000 A 
ATOM     10  C   UNL     1     -14.762  35.761  25.157  0.00  0.00    +0.000 A 
ATOM     11  C   UNL     1     -13.348  35.157  24.998  0.00  0.00    +0.000 A 
ATOM     12  C   UNL     1     -13.024  33.943  25.888  0.00  0.00    +0.000 A 
ATOM     13  C   UNL     1     -14.127  33.452  26.843  0.00  0.00    +0.000 A 
ATOM     14  C   UNL     1     -15.458  34.236  26.808  0.00  0.00    +0.000 A 
ENDBRANCH   3   9
BRANCH   2  15
ATOM     15  O   UNL     1     -16.734  37.977  26.971  0.00  0.00    +0.000 OA
ATOM     16  H   UNL     1     -17.302  38.729  27.236  0.00  0.00    +0.000 HD
ENDBRANCH   2  15
TORSDOF 2
ENDMDL
MODEL 7
REMARK VINA RESULT:      -4.8     15.499     16.905
REMARK  Name = Ciclopirox.pdbqt.pdb
REMARK  2 active torsions:
REMARK  status: ('A' for Active; 'I' for Inactive)
REMARK    1  A    between atoms: N_2  and  O_15
REMARK    2  A    between atoms: C_3  and  C_9
REMARK                            x       y       z     vdW  Elec       q    Type
REMARK                         _______ _______ _______ _____ _____    ______ ____
ROOT
ATOM      1  O   UNL     1      -1.974  24.363  31.299  0.00  0.00    +0.000 OA
ATOM      2  N   UNL     1       0.275  24.447  30.651  0.00  0.00    +0.000 N 
ATOM      3  C   UNL     1       1.211  24.579  29.615  0.00  0.00    +0.000 C 
ATOM      4  C   UNL     1       0.618  24.674  28.451  0.00  0.00    +0.000 C 
ATOM      5  C   UNL     1      -0.716  24.662  27.950  0.00  0.00    +0.000 C 
ATOM      6  C   UNL     1      -1.114  24.430  30.431  0.00  0.00    +0.000 C 
ATOM      7  C   UNL     1      -1.433  24.537  29.027  0.00  0.00    +0.000 C 
ATOM      8  C   UNL     1      -1.051  23.907  26.707  0.00  0.00    +0.000 C 
ENDROOT
BRANCH   3   9
ATOM      9  C   UNL     1       2.633  24.621  29.792  0.00  0.00    +0.000 A 
ATOM     10  C   UNL     1       3.351  25.777  30.277  0.00  0.00    +0.000 A 
ATOM     11  C   UNL     1       4.865  26.087  30.290  0.00  0.00    +0.000 A 
ATOM     12  C   UNL     1       5.785  25.004  29.696  0.00  0.00    +0.000 A 
ATOM     13  C   UNL     1       5.115  23.729  29.153  0.00  0.00    +0.000 A 
ATOM     14  C   UNL     1       3.575  23.668  29.261  0.00  0.00    +0.000 A 
ENDBRANCH   3   9
BRANCH   2  15
ATOM     15  O   UNL     1       0.730  24.422  31.983  0.00  0.00    +0.000 OA
ATOM     16  H   UNL     1      -0.105  24.407  32.493  0.00  0.00    +0.000 HD
ENDBRANCH   2  15
TORSDOF 2
ENDMDL
MODEL 8
REMARK VINA RESULT:      -4.8     23.930     25.589
REMARK  Name = Ciclopirox.pdbqt.pdb
REMARK  2 active torsions:
REMARK  status: ('A' for Active; 'I' for Inactive)
REMARK    1  A    between atoms: N_2  and  O_15
REMARK    2  A    between atoms: C_3  and  C_9
REMARK                            x       y       z     vdW  Elec       q    Type
REMARK                         _______ _______ _______ _____ _____    ______ ____
ROOT
ATOM      1  O   UNL     1     -19.446  35.765   8.525  0.00  0.00    +0.000 OA
ATOM      2  N   UNL     1     -17.933  34.566   7.200  0.00  0.00    +0.000 N 
ATOM      3  C   UNL     1     -16.719  34.549   6.500  0.00  0.00    +0.000 C 
ATOM      4  C   UNL     1     -16.127  35.716   6.550  0.00  0.00    +0.000 C 
ATOM      5  C   UNL     1     -16.390  37.002   7.106  0.00  0.00    +0.000 C 
ATOM      6  C   UNL     1     -18.419  35.706   7.864  0.00  0.00    +0.000 C 
ATOM      7  C   UNL     1     -17.531  36.834   7.706  0.00  0.00    +0.000 C 
ATOM      8  C   UNL     1     -16.105  38.238   6.321  0.00  0.00    +0.000 C 
ENDROOT
BRANCH   3   9
ATOM      9  C   UNL     1     -16.174  33.407   5.826  0.00  0.00    +0.000 A 
ATOM     10  C   UNL     1     -16.716  32.858   4.604  0.00  0.00    +0.000 A 
ATOM     11  C   UNL     1     -16.428  31.516   3.891  0.00  0.00    +0.000 A 
ATOM     12  C   UNL     1     -15.398  30.594   4.570  0.00  0.00    +0.000 A 
ATOM     13  C   UNL     1     -14.760  31.091   5.880  0.00  0.00    +0.000 A 
ATOM     14  C   UNL     1     -15.223  32.477   6.382  0.00  0.00    +0.000 A 
ENDBRANCH   3   9
BRANCH   2  15
ATOM     15  O   UNL     1     -18.665  33.369   7.328  0.00  0.00    +0.000 OA
ATOM     16  H   UNL     1     -19.284  33.416   6.571  0.00  0.00    +0.000 HD
ENDBRANCH   2  15
TORSDOF 2
ENDMDL
MODEL 9
REMARK VINA RESULT:      -4.6     14.249     16.265
REMARK  Name = Ciclopirox.pdbqt.pdb
REMARK  2 active torsions:
REMARK  status: ('A' for Active; 'I' for Inactive)
REMARK    1  A    between atoms: N_2  and  O_15
REMARK    2  A    between atoms: C_3  and  C_9
REMARK                            x       y       z     vdW  Elec       q    Type
REMARK                         _______ _______ _______ _____ _____    ______ ____
ROOT
ATOM      1  O   UNL     1      -3.770  40.809  18.091  0.00  0.00    +0.000 OA
ATOM      2  N   UNL     1      -1.678  41.855  17.973  0.00  0.00    +0.000 N 
ATOM      3  C   UNL     1      -0.665  42.566  18.631  0.00  0.00    +0.000 C 
ATOM      4  C   UNL     1      -0.990  42.811  19.876  0.00  0.00    +0.000 C 
ATOM      5  C   UNL     1      -2.101  42.569  20.736  0.00  0.00    +0.000 C 
ATOM      6  C   UNL     1      -2.875  41.467  18.602  0.00  0.00    +0.000 C 
ATOM      7  C   UNL     1      -2.925  41.914  19.975  0.00  0.00    +0.000 C 
ATOM      8  C   UNL     1      -2.586  43.634  21.663  0.00  0.00    +0.000 C 
ENDROOT
BRANCH   3   9
ATOM      9  C   UNL     1       0.578  42.965  18.038  0.00  0.00    +0.000 A 
ATOM     10  C   UNL     1       0.816  44.270  17.467  0.00  0.00    +0.000 A 
ATOM     11  C   UNL     1       1.973  44.782  16.579  0.00  0.00    +0.000 A 
ATOM     12  C   UNL     1       3.068  43.756  16.231  0.00  0.00    +0.000 A 
ATOM     13  C   UNL     1       2.906  42.332  16.795  0.00  0.00    +0.000 A 
ATOM     14  C   UNL     1       1.652  42.080  17.660  0.00  0.00    +0.000 A 
ENDBRANCH   3   9
BRANCH   2  15
ATOM     15  O   UNL     1      -1.462  41.424  16.650  0.00  0.00    +0.000 OA
ATOM     16  H   UNL     1      -2.038  40.635  16.586  0.00  0.00    +0.000 HD
ENDBRANCH   2  15
TORSDOF 2
ENDMDL
