MODEL 1
REMARK VINA RESULT:      -6.8      0.000      0.000
REMARK  Name = 
REMARK  5 active torsions:
REMARK  status: ('A' for Active; 'I' for Inactive)
REMARK    1  A    between atoms: O_5  and  C_10
REMARK    2  A    between atoms: N_9  and  C_20
REMARK    3  A    between atoms: N_9  and  C_25
REMARK    4  A    between atoms: C_10  and  C_11
REMARK    5  A    between atoms: C_18  and  C_19
REMARK                            x       y       z     vdW  Elec       q    Type
REMARK                         _______ _______ _______ _____ _____    ______ ____
ROOT
ATOM      1  F   UNL     1      13.474  52.282  12.830  0.00  0.00    +0.000 F 
ATOM      2  F   UNL     1      11.269  53.689  12.164  0.00  0.00    +0.000 F 
ATOM      3  C   UNL     1      10.997  49.622  12.658  0.00  0.00    +0.000 A 
ATOM      4  C   UNL     1      12.257  50.235  12.842  0.00  0.00    +0.000 A 
ATOM      5  C   UNL     1       9.851  50.363  12.326  0.00  0.00    +0.000 A 
ATOM      6  C   UNL     1      12.318  51.623  12.658  0.00  0.00    +0.000 A 
ATOM      7  C   UNL     1       9.948  51.742  12.160  0.00  0.00    +0.000 A 
ATOM      8  C   UNL     1      11.180  52.361  12.328  0.00  0.00    +0.000 A 
ENDROOT
BRANCH   3  14
ATOM      9  O   UNL     1      11.163  47.639  13.879  0.00  0.00    +0.000 OA
ATOM     10  N   UNL     1      10.502  47.448  11.682  0.00  0.00    +0.000 N 
ATOM     11  C   UNL     1      11.444  46.325  10.197  0.00  0.00    +0.000 C 
ATOM     12  C   UNL     1      10.811  47.743  10.284  0.00  0.00    +0.000 C 
ATOM     13  C   UNL     1      10.655  46.006  11.502  0.00  0.00    +0.000 C 
ATOM     14  C   UNL     1      10.878  48.154  12.803  0.00  0.00    +0.000 C 
BRANCH  11  16
ATOM     15  N   UNL     1      13.271  45.444  11.623  0.00  0.00    +0.000 NA
ATOM     16  C   UNL     1      12.980  46.227  10.395  0.00  0.00    +0.000 C 
ATOM     17  C   UNL     1      13.663  45.553   9.191  0.00  0.00    +0.000 C 
ATOM     18  C   UNL     1      15.172  45.439   9.412  0.00  0.00    +0.000 C 
ATOM     19  C   UNL     1      14.716  45.449  11.891  0.00  0.00    +0.000 C 
ATOM     20  C   UNL     1      15.489  44.785  10.752  0.00  0.00    +0.000 C 
ATOM     21  H   UNL     1      13.005  44.472  11.446  0.00  0.00    +0.000 HD
ENDBRANCH  11  16
BRANCH  11  22
ATOM     22  O   UNL     1      11.038  45.544   9.035  0.00  0.00    +0.000 OA
ATOM     23  H   UNL     1      10.064  45.541   9.101  0.00  0.00    +0.000 HD
ENDBRANCH  11  22
ENDBRANCH   3  14
BRANCH   4  24
ATOM     24  N   UNL     1      13.393  49.442  13.113  0.00  0.00    +0.000 N 
ATOM     25  H   UNL     1      13.282  48.833  13.932  0.00  0.00    +0.000 HD
BRANCH  24  28
ATOM     26  I   UNL     1      18.702  48.133   9.983  0.00  0.00    +0.000 I 
ATOM     27  F   UNL     1      15.681  48.632  14.383  0.00  0.00    +0.000 F 
ATOM     28  C   UNL     1      14.550  49.154  12.365  0.00  0.00    +0.000 A 
ATOM     29  C   UNL     1      15.714  48.755  13.047  0.00  0.00    +0.000 A 
ATOM     30  C   UNL     1      14.626  49.267  10.974  0.00  0.00    +0.000 A 
ATOM     31  C   UNL     1      16.904  48.463  12.385  0.00  0.00    +0.000 A 
ATOM     32  C   UNL     1      15.816  48.978  10.292  0.00  0.00    +0.000 A 
ATOM     33  C   UNL     1      16.948  48.575  11.000  0.00  0.00    +0.000 A 
ENDBRANCH  24  28
ENDBRANCH   4  24
TORSDOF 5
ENDMDL
MODEL 2
REMARK VINA RESULT:      -6.8     14.785     17.354
REMARK  Name = 
REMARK  5 active torsions:
REMARK  status: ('A' for Active; 'I' for Inactive)
REMARK    1  A    between atoms: O_5  and  C_10
REMARK    2  A    between atoms: N_9  and  C_20
REMARK    3  A    between atoms: N_9  and  C_25
REMARK    4  A    between atoms: C_10  and  C_11
REMARK    5  A    between atoms: C_18  and  C_19
REMARK                            x       y       z     vdW  Elec       q    Type
REMARK                         _______ _______ _______ _____ _____    ______ ____
ROOT
ATOM      1  F   UNL     1       7.041  29.704  15.274  0.00  0.00    +0.000 F 
ATOM      2  F   UNL     1       4.732  31.072  14.984  0.00  0.00    +0.000 F 
ATOM      3  C   UNL     1       7.978  32.925  16.683  0.00  0.00    +0.000 A 
ATOM      4  C   UNL     1       8.115  31.580  16.272  0.00  0.00    +0.000 A 
ATOM      5  C   UNL     1       6.777  33.635  16.515  0.00  0.00    +0.000 A 
ATOM      6  C   UNL     1       6.987  30.973  15.704  0.00  0.00    +0.000 A 
ATOM      7  C   UNL     1       5.680  33.003  15.938  0.00  0.00    +0.000 A 
ATOM      8  C   UNL     1       5.793  31.677  15.537  0.00  0.00    +0.000 A 
ENDROOT
BRANCH   3  14
ATOM      9  O   UNL     1       9.117  33.762  18.541  0.00  0.00    +0.000 OA
ATOM     10  N   UNL     1      10.112  34.078  16.489  0.00  0.00    +0.000 N 
ATOM     11  C   UNL     1      10.652  35.907  15.641  0.00  0.00    +0.000 C 
ATOM     12  C   UNL     1       9.972  34.604  15.132  0.00  0.00    +0.000 C 
ATOM     13  C   UNL     1      11.132  35.059  16.856  0.00  0.00    +0.000 C 
ATOM     14  C   UNL     1       9.124  33.607  17.324  0.00  0.00    +0.000 C 
BRANCH  11  16
ATOM     15  N   UNL     1      10.499  38.328  16.160  0.00  0.00    +0.000 NA
ATOM     16  C   UNL     1       9.715  37.070  16.064  0.00  0.00    +0.000 C 
ATOM     17  C   UNL     1       8.567  37.266  15.057  0.00  0.00    +0.000 C 
ATOM     18  C   UNL     1       7.668  38.431  15.472  0.00  0.00    +0.000 C 
ATOM     19  C   UNL     1       9.652  39.411  16.680  0.00  0.00    +0.000 C 
ATOM     20  C   UNL     1       8.482  39.692  15.739  0.00  0.00    +0.000 C 
ATOM     21  H   UNL     1      10.778  38.597  15.213  0.00  0.00    +0.000 HD
ENDBRANCH  11  16
BRANCH  11  22
ATOM     22  O   UNL     1      11.723  36.412  14.790  0.00  0.00    +0.000 OA
ATOM     23  H   UNL     1      12.314  36.859  15.424  0.00  0.00    +0.000 HD
ENDBRANCH  11  22
ENDBRANCH   3  14
BRANCH   4  24
ATOM     24  N   UNL     1       9.321  30.888  16.518  0.00  0.00    +0.000 N 
ATOM     25  H   UNL     1       9.450  30.627  17.503  0.00  0.00    +0.000 HD
BRANCH  24  28
ATOM     26  I   UNL     1      13.468  27.981  12.770  0.00  0.00    +0.000 I 
ATOM     27  F   UNL     1       9.314  28.173  16.154  0.00  0.00    +0.000 F 
ATOM     28  C   UNL     1      10.264  30.290  15.662  0.00  0.00    +0.000 A 
ATOM     29  C   UNL     1      10.246  28.891  15.507  0.00  0.00    +0.000 A 
ATOM     30  C   UNL     1      11.249  31.000  14.970  0.00  0.00    +0.000 A 
ATOM     31  C   UNL     1      11.151  28.219  14.691  0.00  0.00    +0.000 A 
ATOM     32  C   UNL     1      12.168  30.339  14.145  0.00  0.00    +0.000 A 
ATOM     33  C   UNL     1      12.114  28.953  14.007  0.00  0.00    +0.000 A 
ENDBRANCH  24  28
ENDBRANCH   4  24
TORSDOF 5
ENDMDL
MODEL 3
REMARK VINA RESULT:      -6.6      2.003      2.423
REMARK  Name = 
REMARK  5 active torsions:
REMARK  status: ('A' for Active; 'I' for Inactive)
REMARK    1  A    between atoms: O_5  and  C_10
REMARK    2  A    between atoms: N_9  and  C_20
REMARK    3  A    between atoms: N_9  and  C_25
REMARK    4  A    between atoms: C_10  and  C_11
REMARK    5  A    between atoms: C_18  and  C_19
REMARK                            x       y       z     vdW  Elec       q    Type
REMARK                         _______ _______ _______ _____ _____    ______ ____
ROOT
ATOM      1  F   UNL     1      13.396  51.762  12.582  0.00  0.00    +0.000 F 
ATOM      2  F   UNL     1      11.009  53.023  12.556  0.00  0.00    +0.000 F 
ATOM      3  C   UNL     1      11.139  48.937  12.168  0.00  0.00    +0.000 A 
ATOM      4  C   UNL     1      12.359  49.635  12.308  0.00  0.00    +0.000 A 
ATOM      5  C   UNL     1       9.899  49.600  12.170  0.00  0.00    +0.000 A 
ATOM      6  C   UNL     1      12.282  51.029  12.429  0.00  0.00    +0.000 A 
ATOM      7  C   UNL     1       9.861  50.985  12.303  0.00  0.00    +0.000 A 
ATOM      8  C   UNL     1      11.052  51.689  12.432  0.00  0.00    +0.000 A 
ENDROOT
BRANCH   3  14
ATOM      9  O   UNL     1      11.360  46.761  12.980  0.00  0.00    +0.000 OA
ATOM     10  N   UNL     1      11.003  46.989  10.718  0.00  0.00    +0.000 N 
ATOM     11  C   UNL     1      12.237  46.283   9.190  0.00  0.00    +0.000 C 
ATOM     12  C   UNL     1      11.451  47.596   9.466  0.00  0.00    +0.000 C 
ATOM     13  C   UNL     1      11.330  45.634  10.277  0.00  0.00    +0.000 C 
ATOM     14  C   UNL     1      11.159  47.468  11.999  0.00  0.00    +0.000 C 
BRANCH  11  16
ATOM     15  N   UNL     1      14.385  45.054   9.017  0.00  0.00    +0.000 NA
ATOM     16  C   UNL     1      13.738  46.265   9.584  0.00  0.00    +0.000 C 
ATOM     17  C   UNL     1      14.472  47.517   9.071  0.00  0.00    +0.000 C 
ATOM     18  C   UNL     1      15.955  47.473   9.443  0.00  0.00    +0.000 C 
ATOM     19  C   UNL     1      15.775  44.959   9.486  0.00  0.00    +0.000 C 
ATOM     20  C   UNL     1      16.596  46.158   9.015  0.00  0.00    +0.000 C 
ATOM     21  H   UNL     1      14.420  45.164   8.001  0.00  0.00    +0.000 HD
ENDBRANCH  11  16
BRANCH  11  22
ATOM     22  O   UNL     1      12.066  45.737   7.849  0.00  0.00    +0.000 OA
ATOM     23  H   UNL     1      11.100  45.778   7.717  0.00  0.00    +0.000 HD
ENDBRANCH  11  22
ENDBRANCH   3  14
BRANCH   4  24
ATOM     24  N   UNL     1      13.583  48.934  12.237  0.00  0.00    +0.000 N 
ATOM     25  H   UNL     1      14.136  49.159  11.402  0.00  0.00    +0.000 HD
BRANCH  24  28
ATOM     26  I   UNL     1      16.791  45.716  16.602  0.00  0.00    +0.000 I 
ATOM     27  F   UNL     1      14.153  49.980  14.703  0.00  0.00    +0.000 F 
ATOM     28  C   UNL     1      14.295  48.169  13.179  0.00  0.00    +0.000 A 
ATOM     29  C   UNL     1      14.587  48.739  14.432  0.00  0.00    +0.000 A 
ATOM     30  C   UNL     1      14.762  46.874  12.937  0.00  0.00    +0.000 A 
ATOM     31  C   UNL     1      15.298  48.056  15.415  0.00  0.00    +0.000 A 
ATOM     32  C   UNL     1      15.480  46.173  13.916  0.00  0.00    +0.000 A 
ATOM     33  C   UNL     1      15.742  46.766  15.151  0.00  0.00    +0.000 A 
ENDBRANCH  24  28
ENDBRANCH   4  24
TORSDOF 5
ENDMDL
MODEL 4
REMARK VINA RESULT:      -6.0     17.966     19.903
REMARK  Name = 
REMARK  5 active torsions:
REMARK  status: ('A' for Active; 'I' for Inactive)
REMARK    1  A    between atoms: O_5  and  C_10
REMARK    2  A    between atoms: N_9  and  C_20
REMARK    3  A    between atoms: N_9  and  C_25
REMARK    4  A    between atoms: C_10  and  C_11
REMARK    5  A    between atoms: C_18  and  C_19
REMARK                            x       y       z     vdW  Elec       q    Type
REMARK                         _______ _______ _______ _____ _____    ______ ____
ROOT
ATOM      1  F   UNL     1      22.961  40.428  -2.643  0.00  0.00    +0.000 F 
ATOM      2  F   UNL     1      23.946  42.911  -2.252  0.00  0.00    +0.000 F 
ATOM      3  C   UNL     1      20.202  42.454  -3.877  0.00  0.00    +0.000 A 
ATOM      4  C   UNL     1      20.933  41.292  -3.545  0.00  0.00    +0.000 A 
ATOM      5  C   UNL     1      20.715  43.744  -3.657  0.00  0.00    +0.000 A 
ATOM      6  C   UNL     1      22.211  41.481  -3.000  0.00  0.00    +0.000 A 
ATOM      7  C   UNL     1      21.985  43.893  -3.105  0.00  0.00    +0.000 A 
ATOM      8  C   UNL     1      22.722  42.761  -2.781  0.00  0.00    +0.000 A 
ENDROOT
BRANCH   3  14
ATOM      9  O   UNL     1      17.929  41.933  -3.794  0.00  0.00    +0.000 OA
ATOM     10  N   UNL     1      18.766  42.582  -5.838  0.00  0.00    +0.000 N 
ATOM     11  C   UNL     1      18.703  41.482  -7.610  0.00  0.00    +0.000 C 
ATOM     12  C   UNL     1      19.767  42.348  -6.877  0.00  0.00    +0.000 C 
ATOM     13  C   UNL     1      17.654  42.186  -6.699  0.00  0.00    +0.000 C 
ATOM     14  C   UNL     1      18.863  42.317  -4.490  0.00  0.00    +0.000 C 
BRANCH  11  16
ATOM     15  N   UNL     1      18.135  39.247  -8.524  0.00  0.00    +0.000 NA
ATOM     16  C   UNL     1      18.759  39.949  -7.373  0.00  0.00    +0.000 C 
ATOM     17  C   UNL     1      20.207  39.456  -7.205  0.00  0.00    +0.000 C 
ATOM     18  C   UNL     1      20.249  37.941  -6.999  0.00  0.00    +0.000 C 
ATOM     19  C   UNL     1      18.068  37.804  -8.257  0.00  0.00    +0.000 C 
ATOM     20  C   UNL     1      19.466  37.212  -8.086  0.00  0.00    +0.000 C 
ATOM     21  H   UNL     1      18.745  39.372  -9.336  0.00  0.00    +0.000 HD
ENDBRANCH  11  16
BRANCH  11  22
ATOM     22  O   UNL     1      18.559  41.763  -9.033  0.00  0.00    +0.000 OA
ATOM     23  H   UNL     1      17.716  41.326  -9.259  0.00  0.00    +0.000 HD
ENDBRANCH  11  22
ENDBRANCH   3  14
BRANCH   4  24
ATOM     24  N   UNL     1      20.403  40.018  -3.842  0.00  0.00    +0.000 N 
ATOM     25  H   UNL     1      20.215  39.874  -4.841  0.00  0.00    +0.000 HD
BRANCH  24  28
ATOM     26  I   UNL     1      19.794  34.856  -0.280  0.00  0.00    +0.000 I 
ATOM     27  F   UNL     1      18.885  39.982  -1.563  0.00  0.00    +0.000 F 
ATOM     28  C   UNL     1      20.293  38.835  -3.087  0.00  0.00    +0.000 A 
ATOM     29  C   UNL     1      19.519  38.851  -1.912  0.00  0.00    +0.000 A 
ATOM     30  C   UNL     1      20.934  37.638  -3.418  0.00  0.00    +0.000 A 
ATOM     31  C   UNL     1      19.368  37.729  -1.102  0.00  0.00    +0.000 A 
ATOM     32  C   UNL     1      20.794  36.499  -2.612  0.00  0.00    +0.000 A 
ATOM     33  C   UNL     1      20.010  36.550  -1.460  0.00  0.00    +0.000 A 
ENDBRANCH  24  28
ENDBRANCH   4  24
TORSDOF 5
ENDMDL
MODEL 5
REMARK VINA RESULT:      -5.9     34.662     37.132
REMARK  Name = 
REMARK  5 active torsions:
REMARK  status: ('A' for Active; 'I' for Inactive)
REMARK    1  A    between atoms: O_5  and  C_10
REMARK    2  A    between atoms: N_9  and  C_20
REMARK    3  A    between atoms: N_9  and  C_25
REMARK    4  A    between atoms: C_10  and  C_11
REMARK    5  A    between atoms: C_18  and  C_19
REMARK                            x       y       z     vdW  Elec       q    Type
REMARK                         _______ _______ _______ _____ _____    ______ ____
ROOT
ATOM      1  F   UNL     1     -16.385  36.745  25.930  0.00  0.00    +0.000 F 
ATOM      2  F   UNL     1     -13.740  37.286  25.908  0.00  0.00    +0.000 F 
ATOM      3  C   UNL     1     -15.059  33.599  24.670  0.00  0.00    +0.000 A 
ATOM      4  C   UNL     1     -16.018  34.543  25.099  0.00  0.00    +0.000 A 
ATOM      5  C   UNL     1     -13.685  33.894  24.647  0.00  0.00    +0.000 A 
ATOM      6  C   UNL     1     -15.536  35.789  25.524  0.00  0.00    +0.000 A 
ATOM      7  C   UNL     1     -13.243  35.145  25.067  0.00  0.00    +0.000 A 
ATOM      8  C   UNL     1     -14.172  36.083  25.502  0.00  0.00    +0.000 A 
ENDROOT
BRANCH   3  14
ATOM      9  O   UNL     1     -15.938  32.104  23.109  0.00  0.00    +0.000 OA
ATOM     10  N   UNL     1     -15.454  31.256  25.193  0.00  0.00    +0.000 N 
ATOM     11  C   UNL     1     -16.789  30.308  26.487  0.00  0.00    +0.000 C 
ATOM     12  C   UNL     1     -15.661  31.369  26.636  0.00  0.00    +0.000 C 
ATOM     13  C   UNL     1     -16.150  29.973  25.107  0.00  0.00    +0.000 C 
ATOM     14  C   UNL     1     -15.505  32.254  24.246  0.00  0.00    +0.000 C 
BRANCH  11  16
ATOM     15  N   UNL     1     -19.186  29.693  26.317  0.00  0.00    +0.000 NA
ATOM     16  C   UNL     1     -18.241  30.839  26.354  0.00  0.00    +0.000 C 
ATOM     17  C   UNL     1     -18.614  31.765  27.525  0.00  0.00    +0.000 C 
ATOM     18  C   UNL     1     -20.055  32.260  27.395  0.00  0.00    +0.000 C 
ATOM     19  C   UNL     1     -20.551  30.175  26.066  0.00  0.00    +0.000 C 
ATOM     20  C   UNL     1     -21.023  31.099  27.187  0.00  0.00    +0.000 C 
ATOM     21  H   UNL     1     -19.189  29.260  27.244  0.00  0.00    +0.000 HD
ENDBRANCH  11  16
BRANCH  11  22
ATOM     22  O   UNL     1     -16.740  29.223  27.459  0.00  0.00    +0.000 OA
ATOM     23  H   UNL     1     -15.796  29.186  27.701  0.00  0.00    +0.000 HD
ENDBRANCH  11  22
ENDBRANCH   3  14
BRANCH   4  24
ATOM     24  N   UNL     1     -17.381  34.181  25.165  0.00  0.00    +0.000 N 
ATOM     25  H   UNL     1     -17.563  33.373  25.771  0.00  0.00    +0.000 HD
BRANCH  24  28
ATOM     26  I   UNL     1     -22.582  37.066  23.082  0.00  0.00    +0.000 I 
ATOM     27  F   UNL     1     -18.122  34.141  22.528  0.00  0.00    +0.000 F 
ATOM     28  C   UNL     1     -18.558  34.835  24.753  0.00  0.00    +0.000 A 
ATOM     29  C   UNL     1     -18.905  34.810  23.390  0.00  0.00    +0.000 A 
ATOM     30  C   UNL     1     -19.400  35.539  25.618  0.00  0.00    +0.000 A 
ATOM     31  C   UNL     1     -20.044  35.441  22.898  0.00  0.00    +0.000 A 
ATOM     32  C   UNL     1     -20.551  36.181  25.139  0.00  0.00    +0.000 A 
ATOM     33  C   UNL     1     -20.869  36.127  23.782  0.00  0.00    +0.000 A 
ENDBRANCH  24  28
ENDBRANCH   4  24
TORSDOF 5
ENDMDL
MODEL 6
REMARK VINA RESULT:      -5.9     13.041     15.142
REMARK  Name = 
REMARK  5 active torsions:
REMARK  status: ('A' for Active; 'I' for Inactive)
REMARK    1  A    between atoms: O_5  and  C_10
REMARK    2  A    between atoms: N_9  and  C_20
REMARK    3  A    between atoms: N_9  and  C_25
REMARK    4  A    between atoms: C_10  and  C_11
REMARK    5  A    between atoms: C_18  and  C_19
REMARK                            x       y       z     vdW  Elec       q    Type
REMARK                         _______ _______ _______ _____ _____    ______ ____
ROOT
ATOM      1  F   UNL     1       1.908  45.152  22.692  0.00  0.00    +0.000 F 
ATOM      2  F   UNL     1      -0.078  43.480  23.434  0.00  0.00    +0.000 F 
ATOM      3  C   UNL     1       0.820  43.908  19.450  0.00  0.00    +0.000 A 
ATOM      4  C   UNL     1       1.568  44.653  20.388  0.00  0.00    +0.000 A 
ATOM      5  C   UNL     1      -0.203  43.028  19.846  0.00  0.00    +0.000 A 
ATOM      6  C   UNL     1       1.232  44.492  21.739  0.00  0.00    +0.000 A 
ATOM      7  C   UNL     1      -0.503  42.886  21.198  0.00  0.00    +0.000 A 
ATOM      8  C   UNL     1       0.217  43.619  22.134  0.00  0.00    +0.000 A 
ENDROOT
BRANCH   3  14
ATOM      9  O   UNL     1       0.591  44.999  17.400  0.00  0.00    +0.000 OA
ATOM     10  N   UNL     1       1.895  43.102  17.422  0.00  0.00    +0.000 N 
ATOM     11  C   UNL     1       1.612  41.389  16.264  0.00  0.00    +0.000 C 
ATOM     12  C   UNL     1       1.975  41.679  17.748  0.00  0.00    +0.000 C 
ATOM     13  C   UNL     1       2.015  42.867  15.984  0.00  0.00    +0.000 C 
ATOM     14  C   UNL     1       1.104  44.065  18.007  0.00  0.00    +0.000 C 
BRANCH  11  16
ATOM     15  N   UNL     1      -0.125  41.317  14.495  0.00  0.00    +0.000 NA
ATOM     16  C   UNL     1       0.118  41.114  15.946  0.00  0.00    +0.000 C 
ATOM     17  C   UNL     1      -0.287  39.680  16.331  0.00  0.00    +0.000 C 
ATOM     18  C   UNL     1      -1.754  39.414  15.988  0.00  0.00    +0.000 C 
ATOM     19  C   UNL     1      -1.559  41.181  14.201  0.00  0.00    +0.000 C 
ATOM     20  C   UNL     1      -2.059  39.778  14.540  0.00  0.00    +0.000 C 
ATOM     21  H   UNL     1       0.354  40.567  13.989  0.00  0.00    +0.000 HD
ENDBRANCH  11  16
BRANCH  11  22
ATOM     22  O   UNL     1       2.454  40.395  15.610  0.00  0.00    +0.000 OA
ATOM     23  H   UNL     1       3.344  40.602  15.952  0.00  0.00    +0.000 HD
ENDBRANCH  11  22
ENDBRANCH   3  14
BRANCH   4  24
ATOM     24  N   UNL     1       2.543  45.571  19.940  0.00  0.00    +0.000 N 
ATOM     25  H   UNL     1       3.211  45.168  19.274  0.00  0.00    +0.000 HD
BRANCH  24  28
ATOM     26  I   UNL     1       3.265  51.816  20.376  0.00  0.00    +0.000 I 
ATOM     27  F   UNL     1       4.912  46.816  19.356  0.00  0.00    +0.000 F 
ATOM     28  C   UNL     1       2.648  46.971  20.045  0.00  0.00    +0.000 A 
ATOM     29  C   UNL     1       3.882  47.581  19.754  0.00  0.00    +0.000 A 
ATOM     30  C   UNL     1       1.601  47.802  20.454  0.00  0.00    +0.000 A 
ATOM     31  C   UNL     1       4.075  48.956  19.845  0.00  0.00    +0.000 A 
ATOM     32  C   UNL     1       1.779  49.189  20.552  0.00  0.00    +0.000 A 
ATOM     33  C   UNL     1       3.014  49.760  20.244  0.00  0.00    +0.000 A 
ENDBRANCH  24  28
ENDBRANCH   4  24
TORSDOF 5
ENDMDL
MODEL 7
REMARK VINA RESULT:      -5.8     34.207     36.479
REMARK  Name = 
REMARK  5 active torsions:
REMARK  status: ('A' for Active; 'I' for Inactive)
REMARK    1  A    between atoms: O_5  and  C_10
REMARK    2  A    between atoms: N_9  and  C_20
REMARK    3  A    between atoms: N_9  and  C_25
REMARK    4  A    between atoms: C_10  and  C_11
REMARK    5  A    between atoms: C_18  and  C_19
REMARK                            x       y       z     vdW  Elec       q    Type
REMARK                         _______ _______ _______ _____ _____    ______ ____
ROOT
ATOM      1  F   UNL     1     -16.262  35.846  26.757  0.00  0.00    +0.000 F 
ATOM      2  F   UNL     1     -14.106  36.559  25.297  0.00  0.00    +0.000 F 
ATOM      3  C   UNL     1     -15.319  32.636  25.326  0.00  0.00    +0.000 A 
ATOM      4  C   UNL     1     -16.053  33.569  26.092  0.00  0.00    +0.000 A 
ATOM      5  C   UNL     1     -14.206  33.018  24.557  0.00  0.00    +0.000 A 
ATOM      6  C   UNL     1     -15.609  34.898  26.069  0.00  0.00    +0.000 A 
ATOM      7  C   UNL     1     -13.799  34.349  24.550  0.00  0.00    +0.000 A 
ATOM      8  C   UNL     1     -14.504  35.279  25.305  0.00  0.00    +0.000 A 
ENDROOT
BRANCH   3  14
ATOM      9  O   UNL     1     -15.146  30.444  26.108  0.00  0.00    +0.000 OA
ATOM     10  N   UNL     1     -16.684  30.828  24.439  0.00  0.00    +0.000 N 
ATOM     11  C   UNL     1     -16.747  29.897  22.572  0.00  0.00    +0.000 C 
ATOM     12  C   UNL     1     -16.922  31.351  23.095  0.00  0.00    +0.000 C 
ATOM     13  C   UNL     1     -16.974  29.450  24.047  0.00  0.00    +0.000 C 
ATOM     14  C   UNL     1     -15.718  31.212  25.341  0.00  0.00    +0.000 C 
BRANCH  11  16
ATOM     15  N   UNL     1     -15.009  28.130  22.497  0.00  0.00    +0.000 NA
ATOM     16  C   UNL     1     -15.341  29.505  22.044  0.00  0.00    +0.000 C 
ATOM     17  C   UNL     1     -15.279  29.560  20.507  0.00  0.00    +0.000 C 
ATOM     18  C   UNL     1     -13.897  29.145  20.001  0.00  0.00    +0.000 C 
ATOM     19  C   UNL     1     -13.632  27.792  22.111  0.00  0.00    +0.000 C 
ATOM     20  C   UNL     1     -13.468  27.807  20.592  0.00  0.00    +0.000 C 
ATOM     21  H   UNL     1     -15.625  27.479  22.002  0.00  0.00    +0.000 HD
ENDBRANCH  11  16
BRANCH  11  22
ATOM     22  O   UNL     1     -17.774  29.454  21.637  0.00  0.00    +0.000 OA
ATOM     23  H   UNL     1     -17.291  28.838  21.056  0.00  0.00    +0.000 HD
ENDBRANCH  11  22
ENDBRANCH   3  14
BRANCH   4  24
ATOM     24  N   UNL     1     -17.125  33.129  26.899  0.00  0.00    +0.000 N 
ATOM     25  H   UNL     1     -18.024  33.096  26.405  0.00  0.00    +0.000 HD
BRANCH  24  28
ATOM     26  I   UNL     1     -17.079  30.391  32.574  0.00  0.00    +0.000 I 
ATOM     27  F   UNL     1     -14.849  32.927  28.410  0.00  0.00    +0.000 F 
ATOM     28  C   UNL     1     -17.171  32.515  28.165  0.00  0.00    +0.000 A 
ATOM     29  C   UNL     1     -15.983  32.412  28.911  0.00  0.00    +0.000 A 
ATOM     30  C   UNL     1     -18.330  31.969  28.723  0.00  0.00    +0.000 A 
ATOM     31  C   UNL     1     -15.939  31.809  30.165  0.00  0.00    +0.000 A 
ATOM     32  C   UNL     1     -18.303  31.358  29.984  0.00  0.00    +0.000 A 
ATOM     33  C   UNL     1     -17.109  31.283  30.700  0.00  0.00    +0.000 A 
ENDBRANCH  24  28
ENDBRANCH   4  24
TORSDOF 5
ENDMDL
MODEL 8
REMARK VINA RESULT:      -5.8     28.984     31.196
REMARK  Name = 
REMARK  5 active torsions:
REMARK  status: ('A' for Active; 'I' for Inactive)
REMARK    1  A    between atoms: O_5  and  C_10
REMARK    2  A    between atoms: N_9  and  C_20
REMARK    3  A    between atoms: N_9  and  C_25
REMARK    4  A    between atoms: C_10  and  C_11
REMARK    5  A    between atoms: C_18  and  C_19
REMARK                            x       y       z     vdW  Elec       q    Type
REMARK                         _______ _______ _______ _____ _____    ______ ____
ROOT
ATOM      1  F   UNL     1       4.501  16.091  10.440  0.00  0.00    +0.000 F 
ATOM      2  F   UNL     1       2.819  14.619   8.926  0.00  0.00    +0.000 F 
ATOM      3  C   UNL     1       2.855  18.704   8.515  0.00  0.00    +0.000 A 
ATOM      4  C   UNL     1       3.731  18.119   9.457  0.00  0.00    +0.000 A 
ATOM      5  C   UNL     1       1.993  17.930   7.720  0.00  0.00    +0.000 A 
ATOM      6  C   UNL     1       3.689  16.723   9.579  0.00  0.00    +0.000 A 
ATOM      7  C   UNL     1       1.985  16.545   7.863  0.00  0.00    +0.000 A 
ATOM      8  C   UNL     1       2.833  15.953   8.790  0.00  0.00    +0.000 A 
ENDROOT
BRANCH   3  14
ATOM      9  O   UNL     1       1.950  20.813   8.939  0.00  0.00    +0.000 OA
ATOM     10  N   UNL     1       3.777  20.735   7.541  0.00  0.00    +0.000 N 
ATOM     11  C   UNL     1       3.869  21.438   5.578  0.00  0.00    +0.000 C 
ATOM     12  C   UNL     1       4.363  20.168   6.328  0.00  0.00    +0.000 C 
ATOM     13  C   UNL     1       3.724  22.087   6.988  0.00  0.00    +0.000 C 
ATOM     14  C   UNL     1       2.829  20.176   8.368  0.00  0.00    +0.000 C 
BRANCH  11  16
ATOM     15  N   UNL     1       2.573  22.124   3.578  0.00  0.00    +0.000 NA
ATOM     16  C   UNL     1       2.511  21.332   4.834  0.00  0.00    +0.000 C 
ATOM     17  C   UNL     1       2.164  19.872   4.495  0.00  0.00    +0.000 C 
ATOM     18  C   UNL     1       0.838  19.785   3.739  0.00  0.00    +0.000 C 
ATOM     19  C   UNL     1       1.256  22.135   2.926  0.00  0.00    +0.000 C 
ATOM     20  C   UNL     1       0.824  20.722   2.536  0.00  0.00    +0.000 C 
ATOM     21  H   UNL     1       3.217  21.649   2.940  0.00  0.00    +0.000 HD
ENDBRANCH  11  16
BRANCH  11  22
ATOM     22  O   UNL     1       4.863  22.068   4.719  0.00  0.00    +0.000 OA
ATOM     23  H   UNL     1       4.485  21.956   3.826  0.00  0.00    +0.000 HD
ENDBRANCH  11  22
ENDBRANCH   3  14
BRANCH   4  24
ATOM     24  N   UNL     1       4.534  18.941  10.278  0.00  0.00    +0.000 N 
ATOM     25  H   UNL     1       3.993  19.528  10.923  0.00  0.00    +0.000 HD
BRANCH  24  28
ATOM     26  I   UNL     1      10.760  18.943  11.245  0.00  0.00    +0.000 I 
ATOM     27  F   UNL     1       6.336  18.826   8.218  0.00  0.00    +0.000 F 
ATOM     28  C   UNL     1       5.915  18.953  10.549  0.00  0.00    +0.000 A 
ATOM     29  C   UNL     1       6.817  18.877   9.471  0.00  0.00    +0.000 A 
ATOM     30  C   UNL     1       6.455  19.007  11.836  0.00  0.00    +0.000 A 
ATOM     31  C   UNL     1       8.197  18.871   9.652  0.00  0.00    +0.000 A 
ATOM     32  C   UNL     1       7.842  19.001  12.036  0.00  0.00    +0.000 A 
ATOM     33  C   UNL     1       8.706  18.936  10.943  0.00  0.00    +0.000 A 
ENDBRANCH  24  28
ENDBRANCH   4  24
TORSDOF 5
ENDMDL
MODEL 9
REMARK VINA RESULT:      -5.7     15.777     18.309
REMARK  Name = 
REMARK  5 active torsions:
REMARK  status: ('A' for Active; 'I' for Inactive)
REMARK    1  A    between atoms: O_5  and  C_10
REMARK    2  A    between atoms: N_9  and  C_20
REMARK    3  A    between atoms: N_9  and  C_25
REMARK    4  A    between atoms: C_10  and  C_11
REMARK    5  A    between atoms: C_18  and  C_19
REMARK                            x       y       z     vdW  Elec       q    Type
REMARK                         _______ _______ _______ _____ _____    ______ ____
ROOT
ATOM      1  F   UNL     1       9.223  28.828  17.357  0.00  0.00    +0.000 F 
ATOM      2  F   UNL     1       7.208  28.146  15.695  0.00  0.00    +0.000 F 
ATOM      3  C   UNL     1       8.671  31.983  15.629  0.00  0.00    +0.000 A 
ATOM      4  C   UNL     1       9.246  31.063  16.534  0.00  0.00    +0.000 A 
ATOM      5  C   UNL     1       7.632  31.616  14.756  0.00  0.00    +0.000 A 
ATOM      6  C   UNL     1       8.719  29.764  16.538  0.00  0.00    +0.000 A 
ATOM      7  C   UNL     1       7.140  30.314  14.782  0.00  0.00    +0.000 A 
ATOM      8  C   UNL     1       7.688  29.398  15.672  0.00  0.00    +0.000 A 
ENDROOT
BRANCH   3  14
ATOM      9  O   UNL     1      10.229  33.623  15.054  0.00  0.00    +0.000 OA
ATOM     10  N   UNL     1       8.396  34.316  16.263  0.00  0.00    +0.000 N 
ATOM     11  C   UNL     1       8.424  35.285  18.111  0.00  0.00    +0.000 C 
ATOM     12  C   UNL     1       7.591  34.138  17.470  0.00  0.00    +0.000 C 
ATOM     13  C   UNL     1       8.849  35.649  16.658  0.00  0.00    +0.000 C 
ATOM     14  C   UNL     1       9.160  33.378  15.605  0.00  0.00    +0.000 C 
BRANCH  11  16
ATOM     15  N   UNL     1      10.116  36.049  19.756  0.00  0.00    +0.000 NA
ATOM     16  C   UNL     1       9.630  34.869  18.994  0.00  0.00    +0.000 C 
ATOM     17  C   UNL     1       9.250  33.751  19.982  0.00  0.00    +0.000 C 
ATOM     18  C   UNL     1      10.441  33.371  20.862  0.00  0.00    +0.000 C 
ATOM     19  C   UNL     1      11.334  35.700  20.500  0.00  0.00    +0.000 C 
ATOM     20  C   UNL     1      11.057  34.599  21.523  0.00  0.00    +0.000 C 
ATOM     21  H   UNL     1       9.402  36.289  20.449  0.00  0.00    +0.000 HD
ENDBRANCH  11  16
BRANCH  11  22
ATOM     22  O   UNL     1       7.637  36.308  18.789  0.00  0.00    +0.000 OA
ATOM     23  H   UNL     1       7.867  36.177  19.728  0.00  0.00    +0.000 HD
ENDBRANCH  11  22
ENDBRANCH   3  14
BRANCH   4  24
ATOM     24  N   UNL     1      10.245  31.493  17.435  0.00  0.00    +0.000 N 
ATOM     25  H   UNL     1       9.880  32.056  18.212  0.00  0.00    +0.000 HD
BRANCH  24  28
ATOM     26  I   UNL     1      16.220  29.771  18.455  0.00  0.00    +0.000 I 
ATOM     27  F   UNL     1      11.033  30.227  19.733  0.00  0.00    +0.000 F 
ATOM     28  C   UNL     1      11.591  31.121  17.609  0.00  0.00    +0.000 A 
ATOM     29  C   UNL     1      11.969  30.487  18.806  0.00  0.00    +0.000 A 
ATOM     30  C   UNL     1      12.595  31.371  16.669  0.00  0.00    +0.000 A 
ATOM     31  C   UNL     1      13.281  30.099  19.064  0.00  0.00    +0.000 A 
ATOM     32  C   UNL     1      13.921  30.988  16.913  0.00  0.00    +0.000 A 
ATOM     33  C   UNL     1      14.257  30.351  18.107  0.00  0.00    +0.000 A 
ENDBRANCH  24  28
ENDBRANCH   4  24
TORSDOF 5
ENDMDL
