MODEL 1
REMARK VINA RESULT:      -9.0      0.000      0.000
REMARK  Name = COUMESTROL.pdbqt.pdb
REMARK  2 active torsions:
REMARK  status: ('A' for Active; 'I' for Inactive)
REMARK    1  A    between atoms: C_16  and  O_19
REMARK    2  A    between atoms: C_18  and  O_21
REMARK                            x       y       z     vdW  Elec       q    Type
REMARK                         _______ _______ _______ _____ _____    ______ ____
ROOT
ATOM      1  O   UNL     1       5.300  30.696  16.170  0.00  0.00    +0.000 OA
ATOM      2  O   UNL     1       2.126  28.533  14.781  0.00  0.00    +0.000 OA
ATOM      3  O   UNL     1       3.641  26.952  14.042  0.00  0.00    +0.000 OA
ATOM      4  C   UNL     1       4.498  28.858  15.127  0.00  0.00    +0.000 A 
ATOM      5  C   UNL     1       4.197  30.045  15.741  0.00  0.00    +0.000 A 
ATOM      6  C   UNL     1       5.911  28.748  15.170  0.00  0.00    +0.000 A 
ATOM      7  C   UNL     1       2.880  30.575  15.931  0.00  0.00    +0.000 A 
ATOM      8  C   UNL     1       6.358  29.902  15.821  0.00  0.00    +0.000 A 
ATOM      9  C   UNL     1       1.843  29.776  15.427  0.00  0.00    +0.000 A 
ATOM     10  C   UNL     1       3.442  28.023  14.602  0.00  0.00    +0.000 A 
ATOM     11  C   UNL     1       6.861  27.810  14.735  0.00  0.00    +0.000 A 
ATOM     12  C   UNL     1       2.588  31.781  16.556  0.00  0.00    +0.000 A 
ATOM     13  C   UNL     1       7.698  30.193  16.074  0.00  0.00    +0.000 A 
ATOM     14  C   UNL     1       0.513  30.160  15.537  0.00  0.00    +0.000 A 
ATOM     15  C   UNL     1       8.215  28.071  14.973  0.00  0.00    +0.000 A 
ATOM     16  C   UNL     1       8.611  29.236  15.626  0.00  0.00    +0.000 A 
ATOM     17  C   UNL     1       1.256  32.178  16.673  0.00  0.00    +0.000 A 
ATOM     18  C   UNL     1       0.236  31.369  16.166  0.00  0.00    +0.000 A 
ENDROOT
BRANCH  16  19
ATOM     19  O   UNL     1       9.952  29.426  15.825  0.00  0.00    +0.000 OA
ATOM     20  H   UNL     1      10.078  29.827  16.702  0.00  0.00    +0.000 HD
ENDBRANCH  16  19
BRANCH  18  21
ATOM     21  O   UNL     1      -1.071  31.753  16.277  0.00  0.00    +0.000 OA
ATOM     22  H   UNL     1      -1.177  32.242  17.111  0.00  0.00    +0.000 HD
ENDBRANCH  18  21
TORSDOF 2
ENDMDL
MODEL 2
REMARK VINA RESULT:      -8.9      0.820      6.157
REMARK  Name = COUMESTROL.pdbqt.pdb
REMARK  2 active torsions:
REMARK  status: ('A' for Active; 'I' for Inactive)
REMARK    1  A    between atoms: C_16  and  O_19
REMARK    2  A    between atoms: C_18  and  O_21
REMARK                            x       y       z     vdW  Elec       q    Type
REMARK                         _______ _______ _______ _____ _____    ______ ____
ROOT
ATOM      1  O   UNL     1       4.163  30.887  16.204  0.00  0.00    +0.000 OA
ATOM      2  O   UNL     1       5.488  27.451  14.438  0.00  0.00    +0.000 OA
ATOM      3  O   UNL     1       3.278  26.919  14.020  0.00  0.00    +0.000 OA
ATOM      4  C   UNL     1       3.718  28.946  15.135  0.00  0.00    +0.000 A 
ATOM      5  C   UNL     1       4.684  29.777  15.639  0.00  0.00    +0.000 A 
ATOM      6  C   UNL     1       2.481  29.584  15.403  0.00  0.00    +0.000 A 
ATOM      7  C   UNL     1       6.095  29.537  15.594  0.00  0.00    +0.000 A 
ATOM      8  C   UNL     1       2.807  30.773  16.062  0.00  0.00    +0.000 A 
ATOM      9  C   UNL     1       6.472  28.338  14.973  0.00  0.00    +0.000 A 
ATOM     10  C   UNL     1       4.090  27.706  14.492  0.00  0.00    +0.000 A 
ATOM     11  C   UNL     1       1.127  29.295  15.168  0.00  0.00    +0.000 A 
ATOM     12  C   UNL     1       7.065  30.388  16.109  0.00  0.00    +0.000 A 
ATOM     13  C   UNL     1       1.872  31.707  16.507  0.00  0.00    +0.000 A 
ATOM     14  C   UNL     1       7.807  27.970  14.855  0.00  0.00    +0.000 A 
ATOM     15  C   UNL     1       0.163  30.210  15.601  0.00  0.00    +0.000 A 
ATOM     16  C   UNL     1       0.538  31.383  16.253  0.00  0.00    +0.000 A 
ATOM     17  C   UNL     1       8.409  30.031  15.998  0.00  0.00    +0.000 A 
ATOM     18  C   UNL     1       8.766  28.832  15.375  0.00  0.00    +0.000 A 
ENDROOT
BRANCH  16  19
ATOM     19  O   UNL     1      -0.459  32.234  16.651  0.00  0.00    +0.000 OA
ATOM     20  H   UNL     1      -1.315  31.829  16.427  0.00  0.00    +0.000 HD
ENDBRANCH  16  19
BRANCH  18  21
ATOM     21  O   UNL     1      10.080  28.476  15.263  0.00  0.00    +0.000 OA
ATOM     22  H   UNL     1      10.553  29.189  14.798  0.00  0.00    +0.000 HD
ENDBRANCH  18  21
TORSDOF 2
ENDMDL
MODEL 3
REMARK VINA RESULT:      -8.5      1.422      2.076
REMARK  Name = COUMESTROL.pdbqt.pdb
REMARK  2 active torsions:
REMARK  status: ('A' for Active; 'I' for Inactive)
REMARK    1  A    between atoms: C_16  and  O_19
REMARK    2  A    between atoms: C_18  and  O_21
REMARK                            x       y       z     vdW  Elec       q    Type
REMARK                         _______ _______ _______ _____ _____    ______ ____
ROOT
ATOM      1  O   UNL     1       3.933  31.918  15.839  0.00  0.00    +0.000 OA
ATOM      2  O   UNL     1       0.432  29.978  15.025  0.00  0.00    +0.000 OA
ATOM      3  O   UNL     1       1.679  28.067  14.664  0.00  0.00    +0.000 OA
ATOM      4  C   UNL     1       2.839  30.026  15.263  0.00  0.00    +0.000 A 
ATOM      5  C   UNL     1       2.733  31.353  15.585  0.00  0.00    +0.000 A 
ATOM      6  C   UNL     1       4.223  29.724  15.317  0.00  0.00    +0.000 A 
ATOM      7  C   UNL     1       1.513  32.099  15.657  0.00  0.00    +0.000 A 
ATOM      8  C   UNL     1       4.854  30.919  15.675  0.00  0.00    +0.000 A 
ATOM      9  C   UNL     1       0.353  31.364  15.365  0.00  0.00    +0.000 A 
ATOM     10  C   UNL     1       1.655  29.255  14.959  0.00  0.00    +0.000 A 
ATOM     11  C   UNL     1       5.014  28.583  15.106  0.00  0.00    +0.000 A 
ATOM     12  C   UNL     1       1.418  33.445  15.985  0.00  0.00    +0.000 A 
ATOM     13  C   UNL     1       6.231  31.063  15.840  0.00  0.00    +0.000 A 
ATOM     14  C   UNL     1      -0.905  31.953  15.394  0.00  0.00    +0.000 A 
ATOM     15  C   UNL     1       6.399  28.692  15.263  0.00  0.00    +0.000 A 
ATOM     16  C   UNL     1       6.982  29.905  15.621  0.00  0.00    +0.000 A 
ATOM     17  C   UNL     1       0.161  34.049  16.018  0.00  0.00    +0.000 A 
ATOM     18  C   UNL     1      -0.983  33.302  15.724  0.00  0.00    +0.000 A 
ENDROOT
BRANCH  16  19
ATOM     19  O   UNL     1       8.344  29.939  15.757  0.00  0.00    +0.000 OA
ATOM     20  H   UNL     1       8.610  29.222  16.358  0.00  0.00    +0.000 HD
ENDBRANCH  16  19
BRANCH  18  21
ATOM     21  O   UNL     1      -2.217  33.887  15.754  0.00  0.00    +0.000 OA
ATOM     22  H   UNL     1      -2.736  33.548  15.004  0.00  0.00    +0.000 HD
ENDBRANCH  18  21
TORSDOF 2
ENDMDL
MODEL 4
REMARK VINA RESULT:      -7.4     20.304     21.741
REMARK  Name = COUMESTROL.pdbqt.pdb
REMARK  2 active torsions:
REMARK  status: ('A' for Active; 'I' for Inactive)
REMARK    1  A    between atoms: C_16  and  O_19
REMARK    2  A    between atoms: C_18  and  O_21
REMARK                            x       y       z     vdW  Elec       q    Type
REMARK                         _______ _______ _______ _____ _____    ______ ____
ROOT
ATOM      1  O   UNL     1     -14.136  31.209  23.795  0.00  0.00    +0.000 OA
ATOM      2  O   UNL     1     -16.706  34.381  23.665  0.00  0.00    +0.000 OA
ATOM      3  O   UNL     1     -18.157  33.042  22.466  0.00  0.00    +0.000 OA
ATOM      4  C   UNL     1     -16.109  32.096  23.138  0.00  0.00    +0.000 A 
ATOM      5  C   UNL     1     -14.926  32.305  23.798  0.00  0.00    +0.000 A 
ATOM      6  C   UNL     1     -16.064  30.757  22.678  0.00  0.00    +0.000 A 
ATOM      7  C   UNL     1     -14.529  33.525  24.434  0.00  0.00    +0.000 A 
ATOM      8  C   UNL     1     -14.832  30.253  23.106  0.00  0.00    +0.000 A 
ATOM      9  C   UNL     1     -15.464  34.568  24.347  0.00  0.00    +0.000 A 
ATOM     10  C   UNL     1     -17.082  33.160  23.040  0.00  0.00    +0.000 A 
ATOM     11  C   UNL     1     -16.919  29.913  21.952  0.00  0.00    +0.000 A 
ATOM     12  C   UNL     1     -13.326  33.724  25.100  0.00  0.00    +0.000 A 
ATOM     13  C   UNL     1     -14.384  28.956  22.860  0.00  0.00    +0.000 A 
ATOM     14  C   UNL     1     -15.219  35.811  24.916  0.00  0.00    +0.000 A 
ATOM     15  C   UNL     1     -16.502  28.605  21.687  0.00  0.00    +0.000 A 
ATOM     16  C   UNL     1     -15.264  28.149  22.135  0.00  0.00    +0.000 A 
ATOM     17  C   UNL     1     -13.067  34.967  25.675  0.00  0.00    +0.000 A 
ATOM     18  C   UNL     1     -14.010  35.994  25.579  0.00  0.00    +0.000 A 
ENDROOT
BRANCH  16  19
ATOM     19  O   UNL     1     -14.919  26.857  21.840  0.00  0.00    +0.000 OA
ATOM     20  H   UNL     1     -15.462  26.558  21.090  0.00  0.00    +0.000 HD
ENDBRANCH  16  19
BRANCH  18  21
ATOM     21  O   UNL     1     -13.762  37.215  26.141  0.00  0.00    +0.000 OA
ATOM     22  H   UNL     1     -13.398  37.801  25.455  0.00  0.00    +0.000 HD
ENDBRANCH  18  21
TORSDOF 2
ENDMDL
MODEL 5
REMARK VINA RESULT:      -7.0     18.861     20.707
REMARK  Name = COUMESTROL.pdbqt.pdb
REMARK  2 active torsions:
REMARK  status: ('A' for Active; 'I' for Inactive)
REMARK    1  A    between atoms: C_16  and  O_19
REMARK    2  A    between atoms: C_18  and  O_21
REMARK                            x       y       z     vdW  Elec       q    Type
REMARK                         _______ _______ _______ _____ _____    ______ ____
ROOT
ATOM      1  O   UNL     1      12.936  47.940  12.913  0.00  0.00    +0.000 OA
ATOM      2  O   UNL     1      10.758  46.871   9.627  0.00  0.00    +0.000 OA
ATOM      3  O   UNL     1       9.358  48.652  10.086  0.00  0.00    +0.000 OA
ATOM      4  C   UNL     1      11.180  48.298  11.535  0.00  0.00    +0.000 A 
ATOM      5  C   UNL     1      12.273  47.520  11.814  0.00  0.00    +0.000 A 
ATOM      6  C   UNL     1      11.148  49.295  12.541  0.00  0.00    +0.000 A 
ATOM      7  C   UNL     1      12.702  46.383  11.057  0.00  0.00    +0.000 A 
ATOM      8  C   UNL     1      12.247  49.033  13.365  0.00  0.00    +0.000 A 
ATOM      9  C   UNL     1      11.904  46.078   9.944  0.00  0.00    +0.000 A 
ATOM     10  C   UNL     1      10.348  47.998  10.392  0.00  0.00    +0.000 A 
ATOM     11  C   UNL     1      10.321  50.386  12.852  0.00  0.00    +0.000 A 
ATOM     12  C   UNL     1      13.812  45.601  11.350  0.00  0.00    +0.000 A 
ATOM     13  C   UNL     1      12.586  49.787  14.488  0.00  0.00    +0.000 A 
ATOM     14  C   UNL     1      12.195  45.003   9.114  0.00  0.00    +0.000 A 
ATOM     15  C   UNL     1      10.631  51.164  13.972  0.00  0.00    +0.000 A 
ATOM     16  C   UNL     1      11.738  50.862  14.762  0.00  0.00    +0.000 A 
ATOM     17  C   UNL     1      14.117  44.518  10.526  0.00  0.00    +0.000 A 
ATOM     18  C   UNL     1      13.310  44.230   9.422  0.00  0.00    +0.000 A 
ENDROOT
BRANCH  16  19
ATOM     19  O   UNL     1      11.983  51.666  15.843  0.00  0.00    +0.000 OA
ATOM     20  H   UNL     1      12.804  52.161  15.678  0.00  0.00    +0.000 HD
ENDBRANCH  16  19
BRANCH  18  21
ATOM     21  O   UNL     1      13.603  43.171   8.610  0.00  0.00    +0.000 OA
ATOM     22  H   UNL     1      14.499  43.296   8.252  0.00  0.00    +0.000 HD
ENDBRANCH  18  21
TORSDOF 2
ENDMDL
MODEL 6
REMARK VINA RESULT:      -6.9      2.844      6.707
REMARK  Name = COUMESTROL.pdbqt.pdb
REMARK  2 active torsions:
REMARK  status: ('A' for Active; 'I' for Inactive)
REMARK    1  A    between atoms: C_16  and  O_19
REMARK    2  A    between atoms: C_18  and  O_21
REMARK                            x       y       z     vdW  Elec       q    Type
REMARK                         _______ _______ _______ _____ _____    ______ ____
ROOT
ATOM      1  O   UNL     1       5.271  33.053  16.511  0.00  0.00    +0.000 OA
ATOM      2  O   UNL     1       8.493  31.049  14.998  0.00  0.00    +0.000 OA
ATOM      3  O   UNL     1       7.087  29.254  14.622  0.00  0.00    +0.000 OA
ATOM      4  C   UNL     1       6.150  31.187  15.586  0.00  0.00    +0.000 A 
ATOM      5  C   UNL     1       6.385  32.463  16.027  0.00  0.00    +0.000 A 
ATOM      6  C   UNL     1       4.770  30.949  15.808  0.00  0.00    +0.000 A 
ATOM      7  C   UNL     1       7.649  33.135  16.000  0.00  0.00    +0.000 A 
ATOM      8  C   UNL     1       4.274  32.125  16.378  0.00  0.00    +0.000 A 
ATOM      9  C   UNL     1       8.707  32.383  15.467  0.00  0.00    +0.000 A 
ATOM     10  C   UNL     1       7.228  30.399  15.034  0.00  0.00    +0.000 A 
ATOM     11  C   UNL     1       3.886  29.880  15.595  0.00  0.00    +0.000 A 
ATOM     12  C   UNL     1       7.875  34.429  16.451  0.00  0.00    +0.000 A 
ATOM     13  C   UNL     1       2.945  32.316  16.755  0.00  0.00    +0.000 A 
ATOM     14  C   UNL     1       9.992  32.902  15.375  0.00  0.00    +0.000 A 
ATOM     15  C   UNL     1       2.546  30.037  15.962  0.00  0.00    +0.000 A 
ATOM     16  C   UNL     1       2.098  31.229  16.527  0.00  0.00    +0.000 A 
ATOM     17  C   UNL     1       9.161  34.963  16.365  0.00  0.00    +0.000 A 
ATOM     18  C   UNL     1      10.202  34.199  15.831  0.00  0.00    +0.000 A 
ENDROOT
BRANCH  16  19
ATOM     19  O   UNL     1       0.773  31.314  16.862  0.00  0.00    +0.000 OA
ATOM     20  H   UNL     1       0.256  30.835  16.191  0.00  0.00    +0.000 HD
ENDBRANCH  16  19
BRANCH  18  21
ATOM     21  O   UNL     1      11.464  34.716  15.743  0.00  0.00    +0.000 OA
ATOM     22  H   UNL     1      11.509  35.513  16.300  0.00  0.00    +0.000 HD
ENDBRANCH  18  21
TORSDOF 2
ENDMDL
MODEL 7
REMARK VINA RESULT:      -6.6      3.792      5.568
REMARK  Name = COUMESTROL.pdbqt.pdb
REMARK  2 active torsions:
REMARK  status: ('A' for Active; 'I' for Inactive)
REMARK    1  A    between atoms: C_16  and  O_19
REMARK    2  A    between atoms: C_18  and  O_21
REMARK                            x       y       z     vdW  Elec       q    Type
REMARK                         _______ _______ _______ _____ _____    ______ ____
ROOT
ATOM      1  O   UNL     1       6.678  34.026  16.475  0.00  0.00    +0.000 OA
ATOM      2  O   UNL     1       7.596  30.191  15.412  0.00  0.00    +0.000 OA
ATOM      3  O   UNL     1       9.782  30.887  15.131  0.00  0.00    +0.000 OA
ATOM      4  C   UNL     1       8.207  32.497  15.817  0.00  0.00    +0.000 A 
ATOM      5  C   UNL     1       6.896  32.737  16.136  0.00  0.00    +0.000 A 
ATOM      6  C   UNL     1       8.875  33.738  15.966  0.00  0.00    +0.000 A 
ATOM      7  C   UNL     1       5.844  31.766  16.126  0.00  0.00    +0.000 A 
ATOM      8  C   UNL     1       7.893  34.647  16.372  0.00  0.00    +0.000 A 
ATOM      9  C   UNL     1       6.237  30.473  15.751  0.00  0.00    +0.000 A 
ATOM     10  C   UNL     1       8.628  31.170  15.428  0.00  0.00    +0.000 A 
ATOM     11  C   UNL     1      10.192  34.198  15.806  0.00  0.00    +0.000 A 
ATOM     12  C   UNL     1       4.518  32.023  16.453  0.00  0.00    +0.000 A 
ATOM     13  C   UNL     1       8.130  35.996  16.633  0.00  0.00    +0.000 A 
ATOM     14  C   UNL     1       5.326  29.425  15.695  0.00  0.00    +0.000 A 
ATOM     15  C   UNL     1      10.465  35.545  16.059  0.00  0.00    +0.000 A 
ATOM     16  C   UNL     1       9.452  36.413  16.462  0.00  0.00    +0.000 A 
ATOM     17  C   UNL     1       3.593  30.981  16.401  0.00  0.00    +0.000 A 
ATOM     18  C   UNL     1       4.002  29.698  16.025  0.00  0.00    +0.000 A 
ENDROOT
BRANCH  16  19
ATOM     19  O   UNL     1       9.791  37.719  16.693  0.00  0.00    +0.000 OA
ATOM     20  H   UNL     1      10.754  37.769  16.818  0.00  0.00    +0.000 HD
ENDBRANCH  16  19
BRANCH  18  21
ATOM     21  O   UNL     1       3.101  28.673  15.972  0.00  0.00    +0.000 OA
ATOM     22  H   UNL     1       3.565  27.871  15.674  0.00  0.00    +0.000 HD
ENDBRANCH  18  21
TORSDOF 2
ENDMDL
MODEL 8
REMARK VINA RESULT:      -6.6     30.137     33.092
REMARK  Name = COUMESTROL.pdbqt.pdb
REMARK  2 active torsions:
REMARK  status: ('A' for Active; 'I' for Inactive)
REMARK    1  A    between atoms: C_16  and  O_19
REMARK    2  A    between atoms: C_18  and  O_21
REMARK                            x       y       z     vdW  Elec       q    Type
REMARK                         _______ _______ _______ _____ _____    ______ ____
ROOT
ATOM      1  O   UNL     1      -3.158  59.996  10.306  0.00  0.00    +0.000 OA
ATOM      2  O   UNL     1      -0.930  63.387  10.778  0.00  0.00    +0.000 OA
ATOM      3  O   UNL     1      -1.251  63.175  13.056  0.00  0.00    +0.000 OA
ATOM      4  C   UNL     1      -2.228  61.548  11.663  0.00  0.00    +0.000 A 
ATOM      5  C   UNL     1      -2.412  61.121  10.374  0.00  0.00    +0.000 A 
ATOM      6  C   UNL     1      -2.915  60.616  12.481  0.00  0.00    +0.000 A 
ATOM      7  C   UNL     1      -1.893  61.759   9.202  0.00  0.00    +0.000 A 
ATOM      8  C   UNL     1      -3.470  59.682  11.601  0.00  0.00    +0.000 A 
ATOM      9  C   UNL     1      -1.139  62.917   9.445  0.00  0.00    +0.000 A 
ATOM     10  C   UNL     1      -1.454  62.738  11.930  0.00  0.00    +0.000 A 
ATOM     11  C   UNL     1      -3.133  60.454  13.858  0.00  0.00    +0.000 A 
ATOM     12  C   UNL     1      -2.086  61.316   7.900  0.00  0.00    +0.000 A 
ATOM     13  C   UNL     1      -4.234  58.585  11.998  0.00  0.00    +0.000 A 
ATOM     14  C   UNL     1      -0.571  63.644   8.406  0.00  0.00    +0.000 A 
ATOM     15  C   UNL     1      -3.895  59.364  14.292  0.00  0.00    +0.000 A 
ATOM     16  C   UNL     1      -4.427  58.459  13.376  0.00  0.00    +0.000 A 
ATOM     17  C   UNL     1      -1.522  62.036   6.847  0.00  0.00    +0.000 A 
ATOM     18  C   UNL     1      -0.774  63.187   7.108  0.00  0.00    +0.000 A 
ENDROOT
BRANCH  16  19
ATOM     19  O   UNL     1      -5.163  57.416  13.870  0.00  0.00    +0.000 OA
ATOM     20  H   UNL     1      -6.017  57.395  13.404  0.00  0.00    +0.000 HD
ENDBRANCH  16  19
BRANCH  18  21
ATOM     21  O   UNL     1      -0.218  63.897   6.081  0.00  0.00    +0.000 OA
ATOM     22  H   UNL     1      -0.464  64.833   6.187  0.00  0.00    +0.000 HD
ENDBRANCH  18  21
TORSDOF 2
ENDMDL
MODEL 9
REMARK VINA RESULT:      -6.5     19.019     20.635
REMARK  Name = COUMESTROL.pdbqt.pdb
REMARK  2 active torsions:
REMARK  status: ('A' for Active; 'I' for Inactive)
REMARK    1  A    between atoms: C_16  and  O_19
REMARK    2  A    between atoms: C_18  and  O_21
REMARK                            x       y       z     vdW  Elec       q    Type
REMARK                         _______ _______ _______ _____ _____    ______ ____
ROOT
ATOM      1  O   UNL     1      15.155  46.977   9.934  0.00  0.00    +0.000 OA
ATOM      2  O   UNL     1      11.474  47.682  11.558  0.00  0.00    +0.000 OA
ATOM      3  O   UNL     1      10.842  45.588  10.812  0.00  0.00    +0.000 OA
ATOM      4  C   UNL     1      13.044  46.286  10.359  0.00  0.00    +0.000 A 
ATOM      5  C   UNL     1      13.967  47.290  10.498  0.00  0.00    +0.000 A 
ATOM      6  C   UNL     1      13.702  45.252   9.648  0.00  0.00    +0.000 A 
ATOM      7  C   UNL     1      13.745  48.542  11.155  0.00  0.00    +0.000 A 
ATOM      8  C   UNL     1      14.997  45.723   9.410  0.00  0.00    +0.000 A 
ATOM      9  C   UNL     1      12.458  48.710  11.687  0.00  0.00    +0.000 A 
ATOM     10  C   UNL     1      11.714  46.444  10.901  0.00  0.00    +0.000 A 
ATOM     11  C   UNL     1      13.356  43.974   9.179  0.00  0.00    +0.000 A 
ATOM     12  C   UNL     1      14.690  49.552  11.289  0.00  0.00    +0.000 A 
ATOM     13  C   UNL     1      15.982  45.008   8.731  0.00  0.00    +0.000 A 
ATOM     14  C   UNL     1      12.094  49.873  12.354  0.00  0.00    +0.000 A 
ATOM     15  C   UNL     1      14.320  43.229   8.494  0.00  0.00    +0.000 A 
ATOM     16  C   UNL     1      15.597  43.743   8.281  0.00  0.00    +0.000 A 
ATOM     17  C   UNL     1      14.338  50.725  11.956  0.00  0.00    +0.000 A 
ATOM     18  C   UNL     1      13.051  50.875  12.480  0.00  0.00    +0.000 A 
ENDROOT
BRANCH  16  19
ATOM     19  O   UNL     1      16.491  42.958   7.603  0.00  0.00    +0.000 OA
ATOM     20  H   UNL     1      16.055  42.117   7.381  0.00  0.00    +0.000 HD
ENDBRANCH  16  19
BRANCH  18  21
ATOM     21  O   UNL     1      12.700  52.022  13.134  0.00  0.00    +0.000 OA
ATOM     22  H   UNL     1      13.513  52.505  13.366  0.00  0.00    +0.000 HD
ENDBRANCH  18  21
TORSDOF 2
ENDMDL
