MODEL 1
REMARK VINA RESULT:      -8.5      0.000      0.000
REMARK  Name = CP466722.pdbqt.pdb
REMARK  3 active torsions:
REMARK  status: ('A' for Active; 'I' for Inactive)
REMARK    1  A    between atoms: C_5  and  C_23
REMARK    2  A    between atoms: C_14  and  O_16
REMARK    3  A    between atoms: C_15  and  O_18
REMARK                            x       y       z     vdW  Elec       q    Type
REMARK                         _______ _______ _______ _____ _____    ______ ____
ROOT
ATOM      1  N   UNL     1       5.840  29.976  15.070  0.00  0.00    +0.000 N 
ATOM      2  N   UNL     1       5.914  31.223  15.590  0.00  0.00    +0.000 NA
ATOM      3  N   UNL     1       7.998  30.458  15.082  0.00  0.00    +0.000 NA
ATOM      4  C   UNL     1       7.128  29.538  14.754  0.00  0.00    +0.000 A 
ATOM      5  C   UNL     1       7.231  31.483  15.586  0.00  0.00    +0.000 A 
ATOM      6  C   UNL     1       4.604  29.259  14.931  0.00  0.00    +0.000 A 
ATOM      7  N   UNL     1       4.689  27.966  14.520  0.00  0.00    +0.000 NA
ATOM      8  C   UNL     1       3.538  27.292  14.414  0.00  0.00    +0.000 A 
ATOM      9  N   UNL     1       2.325  27.782  14.685  0.00  0.00    +0.000 NA
ATOM     10  C   UNL     1       2.248  29.051  15.087  0.00  0.00    +0.000 A 
ATOM     11  C   UNL     1       3.373  29.875  15.230  0.00  0.00    +0.000 A 
ATOM     12  C   UNL     1       0.993  29.567  15.381  0.00  0.00    +0.000 A 
ATOM     13  C   UNL     1       3.174  31.218  15.632  0.00  0.00    +0.000 A 
ATOM     14  C   UNL     1       1.909  31.734  15.887  0.00  0.00    +0.000 A 
ATOM     15  C   UNL     1       0.813  30.883  15.813  0.00  0.00    +0.000 A 
ATOM     16  N   UNL     1       7.420  28.349  14.191  0.00  0.00    +0.000 N 
ATOM     17  H   UNL     1       8.382  28.028  14.222  0.00  0.00    +0.000 HD
ATOM     18  H   UNL     1       6.715  27.613  14.177  0.00  0.00    +0.000 HD
ENDROOT
BRANCH   5  19
ATOM     19  C   UNL     1       7.823  32.732  16.073  0.00  0.00    +0.000 A 
ATOM     20  N   UNL     1       9.128  32.979  15.774  0.00  0.00    +0.000 NA
ATOM     21  C   UNL     1       9.652  34.136  16.235  0.00  0.00    +0.000 A 
ATOM     22  C   UNL     1       8.947  35.066  16.978  0.00  0.00    +0.000 A 
ATOM     23  C   UNL     1       7.617  34.788  17.265  0.00  0.00    +0.000 A 
ATOM     24  C   UNL     1       7.039  33.609  16.812  0.00  0.00    +0.000 A 
ENDBRANCH   5  19
BRANCH  14  25
ATOM     25  O   UNL     1       1.809  33.037  16.293  0.00  0.00    +0.000 OA
ATOM     26  C   UNL     1       1.833  33.901  15.185  0.00  0.00    +0.000 C 
ENDBRANCH  14  25
BRANCH  15  27
ATOM     27  O   UNL     1      -0.452  31.337  16.074  0.00  0.00    +0.000 OA
ATOM     28  C   UNL     1      -1.125  31.613  14.871  0.00  0.00    +0.000 C 
ENDBRANCH  15  27
TORSDOF 3
ENDMDL
MODEL 2
REMARK VINA RESULT:      -8.3      2.409      6.415
REMARK  Name = CP466722.pdbqt.pdb
REMARK  3 active torsions:
REMARK  status: ('A' for Active; 'I' for Inactive)
REMARK    1  A    between atoms: C_5  and  C_23
REMARK    2  A    between atoms: C_14  and  O_16
REMARK    3  A    between atoms: C_15  and  O_18
REMARK                            x       y       z     vdW  Elec       q    Type
REMARK                         _______ _______ _______ _____ _____    ______ ____
ROOT
ATOM      1  N   UNL     1       4.227  29.224  15.153  0.00  0.00    +0.000 N 
ATOM      2  N   UNL     1       3.589  30.403  15.340  0.00  0.00    +0.000 NA
ATOM      3  N   UNL     1       2.075  28.733  15.025  0.00  0.00    +0.000 NA
ATOM      4  C   UNL     1       3.276  28.216  14.977  0.00  0.00    +0.000 A 
ATOM      5  C   UNL     1       2.292  30.071  15.254  0.00  0.00    +0.000 A 
ATOM      6  C   UNL     1       5.656  29.106  15.112  0.00  0.00    +0.000 A 
ATOM      7  N   UNL     1       6.162  27.887  14.783  0.00  0.00    +0.000 NA
ATOM      8  C   UNL     1       7.494  27.785  14.722  0.00  0.00    +0.000 A 
ATOM      9  N   UNL     1       8.359  28.778  14.949  0.00  0.00    +0.000 NA
ATOM     10  C   UNL     1       7.857  29.971  15.272  0.00  0.00    +0.000 A 
ATOM     11  C   UNL     1       6.482  30.215  15.384  0.00  0.00    +0.000 A 
ATOM     12  C   UNL     1       8.747  31.012  15.501  0.00  0.00    +0.000 A 
ATOM     13  C   UNL     1       6.060  31.511  15.765  0.00  0.00    +0.000 A 
ATOM     14  C   UNL     1       6.961  32.536  16.028  0.00  0.00    +0.000 A 
ATOM     15  C   UNL     1       8.317  32.296  15.840  0.00  0.00    +0.000 A 
ATOM     16  N   UNL     1       3.560  26.912  14.794  0.00  0.00    +0.000 N 
ATOM     17  H   UNL     1       2.827  26.307  14.441  0.00  0.00    +0.000 HD
ATOM     18  H   UNL     1       4.511  26.635  14.549  0.00  0.00    +0.000 HD
ENDROOT
BRANCH   5  19
ATOM     19  C   UNL     1       1.189  31.028  15.382  0.00  0.00    +0.000 A 
ATOM     20  N   UNL     1       1.192  32.120  14.569  0.00  0.00    +0.000 NA
ATOM     21  C   UNL     1       0.166  32.987  14.707  0.00  0.00    +0.000 A 
ATOM     22  C   UNL     1      -0.870  32.829  15.611  0.00  0.00    +0.000 A 
ATOM     23  C   UNL     1      -0.848  31.704  16.426  0.00  0.00    +0.000 A 
ATOM     24  C   UNL     1       0.190  30.787  16.318  0.00  0.00    +0.000 A 
ENDBRANCH   5  19
BRANCH  14  25
ATOM     25  O   UNL     1       6.466  33.765  16.369  0.00  0.00    +0.000 OA
ATOM     26  C   UNL     1       5.281  34.032  15.663  0.00  0.00    +0.000 C 
ENDBRANCH  14  25
BRANCH  15  27
ATOM     27  O   UNL     1       9.245  33.277  16.066  0.00  0.00    +0.000 OA
ATOM     28  C   UNL     1      10.111  33.389  14.964  0.00  0.00    +0.000 C 
ENDBRANCH  15  27
TORSDOF 3
ENDMDL
MODEL 3
REMARK VINA RESULT:      -7.9      2.435      6.916
REMARK  Name = CP466722.pdbqt.pdb
REMARK  3 active torsions:
REMARK  status: ('A' for Active; 'I' for Inactive)
REMARK    1  A    between atoms: C_5  and  C_23
REMARK    2  A    between atoms: C_14  and  O_16
REMARK    3  A    between atoms: C_15  and  O_18
REMARK                            x       y       z     vdW  Elec       q    Type
REMARK                         _______ _______ _______ _____ _____    ______ ____
ROOT
ATOM      1  N   UNL     1       8.107  29.370  15.246  0.00  0.00    +0.000 N 
ATOM      2  N   UNL     1       6.814  29.768  15.238  0.00  0.00    +0.000 NA
ATOM      3  N   UNL     1       6.949  27.532  14.833  0.00  0.00    +0.000 NA
ATOM      4  C   UNL     1       8.160  27.994  15.010  0.00  0.00    +0.000 A 
ATOM      5  C   UNL     1       6.142  28.635  14.983  0.00  0.00    +0.000 A 
ATOM      6  C   UNL     1       9.204  30.277  15.431  0.00  0.00    +0.000 A 
ATOM      7  N   UNL     1      10.455  29.765  15.282  0.00  0.00    +0.000 NA
ATOM      8  C   UNL     1      11.475  30.616  15.433  0.00  0.00    +0.000 A 
ATOM      9  N   UNL     1      11.364  31.919  15.707  0.00  0.00    +0.000 NA
ATOM     10  C   UNL     1      10.134  32.416  15.853  0.00  0.00    +0.000 A 
ATOM     11  C   UNL     1       8.977  31.634  15.734  0.00  0.00    +0.000 A 
ATOM     12  C   UNL     1      10.006  33.770  16.128  0.00  0.00    +0.000 A 
ATOM     13  C   UNL     1       7.723  32.256  15.941  0.00  0.00    +0.000 A 
ATOM     14  C   UNL     1       7.609  33.606  16.254  0.00  0.00    +0.000 A 
ATOM     15  C   UNL     1       8.762  34.381  16.293  0.00  0.00    +0.000 A 
ATOM     16  N   UNL     1       9.290  27.261  14.978  0.00  0.00    +0.000 N 
ATOM     17  H   UNL     1       9.249  26.334  14.568  0.00  0.00    +0.000 HD
ATOM     18  H   UNL     1      10.192  27.731  14.903  0.00  0.00    +0.000 HD
ENDROOT
BRANCH   5  19
ATOM     19  C   UNL     1       4.683  28.554  14.865  0.00  0.00    +0.000 A 
ATOM     20  N   UNL     1       4.162  27.660  13.980  0.00  0.00    +0.000 NA
ATOM     21  C   UNL     1       2.816  27.606  13.888  0.00  0.00    +0.000 A 
ATOM     22  C   UNL     1       1.953  28.391  14.632  0.00  0.00    +0.000 A 
ATOM     23  C   UNL     1       2.513  29.292  15.529  0.00  0.00    +0.000 A 
ATOM     24  C   UNL     1       3.894  29.382  15.654  0.00  0.00    +0.000 A 
ENDBRANCH   5  19
BRANCH  14  25
ATOM     25  O   UNL     1       6.356  34.132  16.415  0.00  0.00    +0.000 OA
ATOM     26  C   UNL     1       5.383  33.245  15.924  0.00  0.00    +0.000 C 
ENDBRANCH  14  25
BRANCH  15  27
ATOM     27  O   UNL     1       8.703  35.719  16.577  0.00  0.00    +0.000 OA
ATOM     28  C   UNL     1       8.908  36.472  15.408  0.00  0.00    +0.000 C 
ENDBRANCH  15  27
TORSDOF 3
ENDMDL
MODEL 4
REMARK VINA RESULT:      -7.5      2.493      3.563
REMARK  Name = CP466722.pdbqt.pdb
REMARK  3 active torsions:
REMARK  status: ('A' for Active; 'I' for Inactive)
REMARK    1  A    between atoms: C_5  and  C_23
REMARK    2  A    between atoms: C_14  and  O_16
REMARK    3  A    between atoms: C_15  and  O_18
REMARK                            x       y       z     vdW  Elec       q    Type
REMARK                         _______ _______ _______ _____ _____    ______ ____
ROOT
ATOM      1  N   UNL     1       8.055  28.964  15.066  0.00  0.00    +0.000 N 
ATOM      2  N   UNL     1       8.720  30.013  15.604  0.00  0.00    +0.000 NA
ATOM      3  N   UNL     1      10.186  28.379  15.001  0.00  0.00    +0.000 NA
ATOM      4  C   UNL     1       8.977  27.985  14.692  0.00  0.00    +0.000 A 
ATOM      5  C   UNL     1      10.003  29.626  15.553  0.00  0.00    +0.000 A 
ATOM      6  C   UNL     1       6.624  28.915  14.963  0.00  0.00    +0.000 A 
ATOM      7  N   UNL     1       6.081  27.747  14.526  0.00  0.00    +0.000 NA
ATOM      8  C   UNL     1       4.747  27.695  14.453  0.00  0.00    +0.000 A 
ATOM      9  N   UNL     1       3.912  28.686  14.781  0.00  0.00    +0.000 NA
ATOM     10  C   UNL     1       4.451  29.829  15.208  0.00  0.00    +0.000 A 
ATOM     11  C   UNL     1       5.834  30.025  15.321  0.00  0.00    +0.000 A 
ATOM     12  C   UNL     1       3.593  30.862  15.560  0.00  0.00    +0.000 A 
ATOM     13  C   UNL     1       6.299  31.290  15.754  0.00  0.00    +0.000 A 
ATOM     14  C   UNL     1       5.432  32.330  16.068  0.00  0.00    +0.000 A 
ATOM     15  C   UNL     1       4.063  32.094  16.022  0.00  0.00    +0.000 A 
ATOM     16  N   UNL     1       8.663  26.818  14.097  0.00  0.00    +0.000 N 
ATOM     17  H   UNL     1       9.362  26.083  14.085  0.00  0.00    +0.000 HD
ATOM     18  H   UNL     1       7.695  26.499  14.097  0.00  0.00    +0.000 HD
ENDROOT
BRANCH   5  19
ATOM     19  C   UNL     1      11.125  30.434  16.038  0.00  0.00    +0.000 A 
ATOM     20  N   UNL     1      12.365  29.873  16.035  0.00  0.00    +0.000 NA
ATOM     21  C   UNL     1      13.383  30.638  16.488  0.00  0.00    +0.000 A 
ATOM     22  C   UNL     1      13.236  31.936  16.944  0.00  0.00    +0.000 A 
ATOM     23  C   UNL     1      11.959  32.484  16.932  0.00  0.00    +0.000 A 
ATOM     24  C   UNL     1      10.884  31.731  16.476  0.00  0.00    +0.000 A 
ENDBRANCH   5  19
BRANCH  14  25
ATOM     25  O   UNL     1       5.965  33.513  16.501  0.00  0.00    +0.000 OA
ATOM     26  C   UNL     1       7.366  33.424  16.571  0.00  0.00    +0.000 C 
ENDBRANCH  14  25
BRANCH  15  27
ATOM     27  O   UNL     1       3.166  33.078  16.341  0.00  0.00    +0.000 OA
ATOM     28  C   UNL     1       2.683  33.690  15.171  0.00  0.00    +0.000 C 
ENDBRANCH  15  27
TORSDOF 3
ENDMDL
MODEL 5
REMARK VINA RESULT:      -7.5      1.792      2.933
REMARK  Name = CP466722.pdbqt.pdb
REMARK  3 active torsions:
REMARK  status: ('A' for Active; 'I' for Inactive)
REMARK    1  A    between atoms: C_5  and  C_23
REMARK    2  A    between atoms: C_14  and  O_16
REMARK    3  A    between atoms: C_15  and  O_18
REMARK                            x       y       z     vdW  Elec       q    Type
REMARK                         _______ _______ _______ _____ _____    ______ ____
ROOT
ATOM      1  N   UNL     1       8.489  31.465  15.466  0.00  0.00    +0.000 N 
ATOM      2  N   UNL     1       8.074  32.687  15.875  0.00  0.00    +0.000 NA
ATOM      3  N   UNL     1      10.312  32.717  15.457  0.00  0.00    +0.000 NA
ATOM      4  C   UNL     1       9.860  31.515  15.203  0.00  0.00    +0.000 A 
ATOM      5  C   UNL     1       9.199  33.417  15.860  0.00  0.00    +0.000 A 
ATOM      6  C   UNL     1       7.614  30.330  15.380  0.00  0.00    +0.000 A 
ATOM      7  N   UNL     1       8.190  29.134  15.085  0.00  0.00    +0.000 NA
ATOM      8  C   UNL     1       7.377  28.073  15.028  0.00  0.00    +0.000 A 
ATOM      9  N   UNL     1       6.058  28.094  15.243  0.00  0.00    +0.000 NA
ATOM     10  C   UNL     1       5.499  29.271  15.531  0.00  0.00    +0.000 A 
ATOM     11  C   UNL     1       6.231  30.463  15.611  0.00  0.00    +0.000 A 
ATOM     12  C   UNL     1       4.132  29.303  15.766  0.00  0.00    +0.000 A 
ATOM     13  C   UNL     1       5.532  31.661  15.891  0.00  0.00    +0.000 A 
ATOM     14  C   UNL     1       4.156  31.687  16.087  0.00  0.00    +0.000 A 
ATOM     15  C   UNL     1       3.458  30.485  16.078  0.00  0.00    +0.000 A 
ATOM     16  N   UNL     1      10.596  30.482  14.750  0.00  0.00    +0.000 N 
ATOM     17  H   UNL     1      11.606  30.546  14.819  0.00  0.00    +0.000 HD
ATOM     18  H   UNL     1      10.215  29.537  14.794  0.00  0.00    +0.000 HD
ENDROOT
BRANCH   5  19
ATOM     19  C   UNL     1       9.265  34.831  16.241  0.00  0.00    +0.000 A 
ATOM     20  N   UNL     1      10.489  35.366  16.503  0.00  0.00    +0.000 NA
ATOM     21  C   UNL     1      10.523  36.670  16.853  0.00  0.00    +0.000 A 
ATOM     22  C   UNL     1       9.404  37.477  16.955  0.00  0.00    +0.000 A 
ATOM     23  C   UNL     1       8.169  36.905  16.679  0.00  0.00    +0.000 A 
ATOM     24  C   UNL     1       8.088  35.567  16.317  0.00  0.00    +0.000 A 
ENDBRANCH   5  19
BRANCH  14  25
ATOM     25  O   UNL     1       3.562  32.886  16.376  0.00  0.00    +0.000 OA
ATOM     26  C   UNL     1       3.553  33.716  15.241  0.00  0.00    +0.000 C 
ENDBRANCH  14  25
BRANCH  15  27
ATOM     27  O   UNL     1       2.105  30.453  16.286  0.00  0.00    +0.000 OA
ATOM     28  C   UNL     1       1.434  30.225  15.072  0.00  0.00    +0.000 C 
ENDBRANCH  15  27
TORSDOF 3
ENDMDL
MODEL 6
REMARK VINA RESULT:      -7.5      3.581      7.595
REMARK  Name = CP466722.pdbqt.pdb
REMARK  3 active torsions:
REMARK  status: ('A' for Active; 'I' for Inactive)
REMARK    1  A    between atoms: C_5  and  C_23
REMARK    2  A    between atoms: C_14  and  O_16
REMARK    3  A    between atoms: C_15  and  O_18
REMARK                            x       y       z     vdW  Elec       q    Type
REMARK                         _______ _______ _______ _____ _____    ______ ____
ROOT
ATOM      1  N   UNL     1       6.749  32.452  16.017  0.00  0.00    +0.000 N 
ATOM      2  N   UNL     1       5.864  33.435  15.731  0.00  0.00    +0.000 NA
ATOM      3  N   UNL     1       4.819  31.412  15.727  0.00  0.00    +0.000 NA
ATOM      4  C   UNL     1       6.080  31.226  16.022  0.00  0.00    +0.000 A 
ATOM      5  C   UNL     1       4.710  32.773  15.559  0.00  0.00    +0.000 A 
ATOM      6  C   UNL     1       8.148  32.695  16.229  0.00  0.00    +0.000 A 
ATOM      7  N   UNL     1       8.945  31.603  16.373  0.00  0.00    +0.000 NA
ATOM      8  C   UNL     1      10.251  31.831  16.548  0.00  0.00    +0.000 A 
ATOM      9  N   UNL     1      10.831  33.035  16.582  0.00  0.00    +0.000 NA
ATOM     10  C   UNL     1      10.043  34.103  16.439  0.00  0.00    +0.000 A 
ATOM     11  C   UNL     1       8.656  34.009  16.263  0.00  0.00    +0.000 A 
ATOM     12  C   UNL     1      10.636  35.357  16.464  0.00  0.00    +0.000 A 
ATOM     13  C   UNL     1       7.912  35.207  16.155  0.00  0.00    +0.000 A 
ATOM     14  C   UNL     1       8.512  36.460  16.219  0.00  0.00    +0.000 A 
ATOM     15  C   UNL     1       9.896  36.532  16.319  0.00  0.00    +0.000 A 
ATOM     16  N   UNL     1       6.652  30.038  16.299  0.00  0.00    +0.000 N 
ATOM     17  H   UNL     1       6.149  29.194  16.045  0.00  0.00    +0.000 HD
ATOM     18  H   UNL     1       7.668  29.957  16.296  0.00  0.00    +0.000 HD
ENDROOT
BRANCH   5  19
ATOM     19  C   UNL     1       3.438  33.416  15.218  0.00  0.00    +0.000 A 
ATOM     20  N   UNL     1       2.382  33.228  16.056  0.00  0.00    +0.000 NA
ATOM     21  C   UNL     1       1.220  33.830  15.719  0.00  0.00    +0.000 A 
ATOM     22  C   UNL     1       1.049  34.613  14.591  0.00  0.00    +0.000 A 
ATOM     23  C   UNL     1       2.145  34.790  13.756  0.00  0.00    +0.000 A 
ATOM     24  C   UNL     1       3.358  34.187  14.065  0.00  0.00    +0.000 A 
ENDBRANCH   5  19
BRANCH  14  25
ATOM     25  O   UNL     1       7.719  37.568  16.083  0.00  0.00    +0.000 OA
ATOM     26  C   UNL     1       7.374  37.763  14.735  0.00  0.00    +0.000 C 
ENDBRANCH  14  25
BRANCH  15  27
ATOM     27  O   UNL     1      10.537  37.741  16.365  0.00  0.00    +0.000 OA
ATOM     28  C   UNL     1      11.679  37.652  17.181  0.00  0.00    +0.000 C 
ENDBRANCH  15  27
TORSDOF 3
ENDMDL
MODEL 7
REMARK VINA RESULT:      -7.4      3.312      7.273
REMARK  Name = CP466722.pdbqt.pdb
REMARK  3 active torsions:
REMARK  status: ('A' for Active; 'I' for Inactive)
REMARK    1  A    between atoms: C_5  and  C_23
REMARK    2  A    between atoms: C_14  and  O_16
REMARK    3  A    between atoms: C_15  and  O_18
REMARK                            x       y       z     vdW  Elec       q    Type
REMARK                         _______ _______ _______ _____ _____    ______ ____
ROOT
ATOM      1  N   UNL     1       6.807  32.279  15.937  0.00  0.00    +0.000 N 
ATOM      2  N   UNL     1       5.742  31.492  15.654  0.00  0.00    +0.000 NA
ATOM      3  N   UNL     1       5.069  33.646  15.957  0.00  0.00    +0.000 NA
ATOM      4  C   UNL     1       6.368  33.594  16.103  0.00  0.00    +0.000 A 
ATOM      5  C   UNL     1       4.710  32.348  15.676  0.00  0.00    +0.000 A 
ATOM      6  C   UNL     1       8.142  31.770  16.072  0.00  0.00    +0.000 A 
ATOM      7  N   UNL     1       9.093  32.647  16.491  0.00  0.00    +0.000 NA
ATOM      8  C   UNL     1      10.332  32.165  16.638  0.00  0.00    +0.000 A 
ATOM      9  N   UNL     1      10.704  30.901  16.416  0.00  0.00    +0.000 NA
ATOM     10  C   UNL     1       9.767  30.045  16.005  0.00  0.00    +0.000 A 
ATOM     11  C   UNL     1       8.432  30.418  15.798  0.00  0.00    +0.000 A 
ATOM     12  C   UNL     1      10.140  28.727  15.782  0.00  0.00    +0.000 A 
ATOM     13  C   UNL     1       7.527  29.437  15.329  0.00  0.00    +0.000 A 
ATOM     14  C   UNL     1       7.921  28.129  15.072  0.00  0.00    +0.000 A 
ATOM     15  C   UNL     1       9.230  27.759  15.354  0.00  0.00    +0.000 A 
ATOM     16  N   UNL     1       7.168  34.646  16.366  0.00  0.00    +0.000 N 
ATOM     17  H   UNL     1       6.739  35.501  16.703  0.00  0.00    +0.000 HD
ATOM     18  H   UNL     1       8.123  34.483  16.683  0.00  0.00    +0.000 HD
ENDROOT
BRANCH   5  19
ATOM     19  C   UNL     1       3.317  31.961  15.434  0.00  0.00    +0.000 A 
ATOM     20  N   UNL     1       2.469  32.903  14.937  0.00  0.00    +0.000 NA
ATOM     21  C   UNL     1       1.190  32.522  14.724  0.00  0.00    +0.000 A 
ATOM     22  C   UNL     1       0.706  31.251  14.974  0.00  0.00    +0.000 A 
ATOM     23  C   UNL     1       1.595  30.309  15.478  0.00  0.00    +0.000 A 
ATOM     24  C   UNL     1       2.918  30.659  15.714  0.00  0.00    +0.000 A 
ENDBRANCH   5  19
BRANCH  14  25
ATOM     25  O   UNL     1       6.975  27.238  14.641  0.00  0.00    +0.000 OA
ATOM     26  C   UNL     1       5.700  27.828  14.658  0.00  0.00    +0.000 C 
ENDBRANCH  14  25
BRANCH  15  27
ATOM     27  O   UNL     1       9.663  26.478  15.138  0.00  0.00    +0.000 OA
ATOM     28  C   UNL     1      11.067  26.424  15.206  0.00  0.00    +0.000 C 
ENDBRANCH  15  27
TORSDOF 3
ENDMDL
MODEL 8
REMARK VINA RESULT:      -7.1      4.125      6.311
REMARK  Name = CP466722.pdbqt.pdb
REMARK  3 active torsions:
REMARK  status: ('A' for Active; 'I' for Inactive)
REMARK    1  A    between atoms: C_5  and  C_23
REMARK    2  A    between atoms: C_14  and  O_16
REMARK    3  A    between atoms: C_15  and  O_18
REMARK                            x       y       z     vdW  Elec       q    Type
REMARK                         _______ _______ _______ _____ _____    ______ ____
ROOT
ATOM      1  N   UNL     1       6.894  31.993  15.882  0.00  0.00    +0.000 N 
ATOM      2  N   UNL     1       8.115  32.577  15.868  0.00  0.00    +0.000 NA
ATOM      3  N   UNL     1       6.510  34.126  16.323  0.00  0.00    +0.000 NA
ATOM      4  C   UNL     1       5.931  32.962  16.177  0.00  0.00    +0.000 A 
ATOM      5  C   UNL     1       7.847  33.864  16.135  0.00  0.00    +0.000 A 
ATOM      6  C   UNL     1       6.687  30.604  15.590  0.00  0.00    +0.000 A 
ATOM      7  N   UNL     1       5.398  30.179  15.507  0.00  0.00    +0.000 NA
ATOM      8  C   UNL     1       5.208  28.889  15.212  0.00  0.00    +0.000 A 
ATOM      9  N   UNL     1       6.174  27.994  14.986  0.00  0.00    +0.000 NA
ATOM     10  C   UNL     1       7.437  28.416  15.069  0.00  0.00    +0.000 A 
ATOM     11  C   UNL     1       7.780  29.738  15.382  0.00  0.00    +0.000 A 
ATOM     12  C   UNL     1       8.448  27.497  14.826  0.00  0.00    +0.000 A 
ATOM     13  C   UNL     1       9.152  30.070  15.476  0.00  0.00    +0.000 A 
ATOM     14  C   UNL     1      10.157  29.132  15.268  0.00  0.00    +0.000 A 
ATOM     15  C   UNL     1       9.799  27.845  14.885  0.00  0.00    +0.000 A 
ATOM     16  N   UNL     1       4.611  32.723  16.300  0.00  0.00    +0.000 N 
ATOM     17  H   UNL     1       3.977  33.514  16.277  0.00  0.00    +0.000 HD
ATOM     18  H   UNL     1       4.226  31.845  15.954  0.00  0.00    +0.000 HD
ENDROOT
BRANCH   5  19
ATOM     19  C   UNL     1       8.865  34.915  16.218  0.00  0.00    +0.000 A 
ATOM     20  N   UNL     1       8.667  35.928  17.105  0.00  0.00    +0.000 NA
ATOM     21  C   UNL     1       9.619  36.885  17.162  0.00  0.00    +0.000 A 
ATOM     22  C   UNL     1      10.763  36.890  16.384  0.00  0.00    +0.000 A 
ATOM     23  C   UNL     1      10.940  35.842  15.490  0.00  0.00    +0.000 A 
ATOM     24  C   UNL     1       9.985  34.838  15.398  0.00  0.00    +0.000 A 
ENDBRANCH   5  19
BRANCH  14  25
ATOM     25  O   UNL     1      11.459  29.544  15.357  0.00  0.00    +0.000 OA
ATOM     26  C   UNL     1      11.796  29.825  16.692  0.00  0.00    +0.000 C 
ENDBRANCH  14  25
BRANCH  15  27
ATOM     27  O   UNL     1      10.750  26.890  14.649  0.00  0.00    +0.000 OA
ATOM     28  C   UNL     1      10.989  26.144  15.816  0.00  0.00    +0.000 C 
ENDBRANCH  15  27
TORSDOF 3
ENDMDL
MODEL 9
REMARK VINA RESULT:      -7.1      4.069      8.414
REMARK  Name = CP466722.pdbqt.pdb
REMARK  3 active torsions:
REMARK  status: ('A' for Active; 'I' for Inactive)
REMARK    1  A    between atoms: C_5  and  C_23
REMARK    2  A    between atoms: C_14  and  O_16
REMARK    3  A    between atoms: C_15  and  O_18
REMARK                            x       y       z     vdW  Elec       q    Type
REMARK                         _______ _______ _______ _____ _____    ______ ____
ROOT
ATOM      1  N   UNL     1       7.517  31.662  15.975  0.00  0.00    +0.000 N 
ATOM      2  N   UNL     1       7.047  30.464  15.555  0.00  0.00    +0.000 NA
ATOM      3  N   UNL     1       5.322  31.911  15.890  0.00  0.00    +0.000 NA
ATOM      4  C   UNL     1       6.441  32.533  16.158  0.00  0.00    +0.000 A 
ATOM      5  C   UNL     1       5.719  30.649  15.517  0.00  0.00    +0.000 A 
ATOM      6  C   UNL     1       8.909  31.916  16.214  0.00  0.00    +0.000 A 
ATOM      7  N   UNL     1       9.227  33.119  16.763  0.00  0.00    +0.000 NA
ATOM      8  C   UNL     1      10.523  33.345  17.006  0.00  0.00    +0.000 A 
ATOM      9  N   UNL     1      11.519  32.488  16.764  0.00  0.00    +0.000 NA
ATOM     10  C   UNL     1      11.200  31.309  16.226  0.00  0.00    +0.000 A 
ATOM     11  C   UNL     1       9.885  30.947  15.908  0.00  0.00    +0.000 A 
ATOM     12  C   UNL     1      12.226  30.407  15.979  0.00  0.00    +0.000 A 
ATOM     13  C   UNL     1       9.663  29.684  15.309  0.00  0.00    +0.000 A 
ATOM     14  C   UNL     1      10.703  28.803  15.032  0.00  0.00    +0.000 A 
ATOM     15  C   UNL     1      11.991  29.148  15.422  0.00  0.00    +0.000 A 
ATOM     16  N   UNL     1       6.548  33.819  16.545  0.00  0.00    +0.000 N 
ATOM     17  H   UNL     1       5.713  34.291  16.877  0.00  0.00    +0.000 HD
ATOM     18  H   UNL     1       7.425  34.152  16.944  0.00  0.00    +0.000 HD
ENDROOT
BRANCH   5  19
ATOM     19  C   UNL     1       4.758  29.614  15.123  0.00  0.00    +0.000 A 
ATOM     20  N   UNL     1       3.447  29.808  15.436  0.00  0.00    +0.000 NA
ATOM     21  C   UNL     1       2.581  28.840  15.065  0.00  0.00    +0.000 A 
ATOM     22  C   UNL     1       2.946  27.686  14.394  0.00  0.00    +0.000 A 
ATOM     23  C   UNL     1       4.289  27.517  14.085  0.00  0.00    +0.000 A 
ATOM     24  C   UNL     1       5.214  28.487  14.451  0.00  0.00    +0.000 A 
ENDBRANCH   5  19
BRANCH  14  25
ATOM     25  O   UNL     1      10.397  27.593  14.472  0.00  0.00    +0.000 OA
ATOM     26  C   UNL     1       9.010  27.370  14.507  0.00  0.00    +0.000 C 
ENDBRANCH  14  25
BRANCH  15  27
ATOM     27  O   UNL     1      13.047  28.309  15.191  0.00  0.00    +0.000 OA
ATOM     28  C   UNL     1      13.750  28.719  14.044  0.00  0.00    +0.000 C 
ENDBRANCH  15  27
TORSDOF 3
ENDMDL
