MODEL 1
REMARK VINA RESULT:      -6.5      0.000      0.000
REMARK  Name = Curcumin.pdbqt.pdb
REMARK  8 active torsions:
REMARK  status: ('A' for Active; 'I' for Inactive)
REMARK    1  A    between atoms: C_2  and  C_4
REMARK    2  A    between atoms: C_5  and  C_6
REMARK    3  A    between atoms: C_8  and  O_12
REMARK    4  A    between atoms: C_9  and  O_14
REMARK    5  A    between atoms: C_16  and  C_18
REMARK    6  A    between atoms: C_19  and  C_20
REMARK    7  A    between atoms: C_22  and  O_26
REMARK    8  A    between atoms: C_23  and  O_28
REMARK                            x       y       z     vdW  Elec       q    Type
REMARK                         _______ _______ _______ _____ _____    ______ ____
ROOT
ATOM      1  C   UNL     1      -2.848  42.885  19.273  0.00  0.00    +0.000 C 
ATOM      2  C   UNL     1      -2.040  42.105  18.396  0.00  0.00    +0.000 C 
ATOM      3  O   UNL     1      -2.471  41.051  17.953  0.00  0.00    +0.000 OA
ATOM      4  C   UNL     1      -3.656  43.663  20.152  0.00  0.00    +0.000 C 
ATOM      5  O   UNL     1      -3.142  44.535  20.838  0.00  0.00    +0.000 OA
ENDROOT
BRANCH   2   6
ATOM      6  C   UNL     1      -0.722  42.564  18.036  0.00  0.00    +0.000 C 
ATOM      7  C   UNL     1       0.375  42.948  17.735  0.00  0.00    +0.000 C 
BRANCH   7   8
ATOM      8  C   UNL     1       1.679  43.405  17.378  0.00  0.00    +0.000 A 
ATOM      9  C   UNL     1       2.535  42.573  16.660  0.00  0.00    +0.000 A 
ATOM     10  C   UNL     1       3.816  43.004  16.301  0.00  0.00    +0.000 A 
ATOM     11  C   UNL     1       4.221  44.289  16.678  0.00  0.00    +0.000 A 
ATOM     12  C   UNL     1       3.366  45.124  17.397  0.00  0.00    +0.000 A 
ATOM     13  C   UNL     1       2.094  44.681  17.747  0.00  0.00    +0.000 A 
BRANCH  10  14
ATOM     14  O   UNL     1       4.711  42.242  15.595  0.00  0.00    +0.000 OA
ATOM     15  C   UNL     1       4.689  40.867  15.854  0.00  0.00    +0.000 C 
ENDBRANCH  10  14
BRANCH  11  16
ATOM     16  O   UNL     1       5.453  44.798  16.374  0.00  0.00    +0.000 OA
ATOM     17  H   UNL     1       5.503  45.740  16.608  0.00  0.00    +0.000 HD
ENDBRANCH  11  16
ENDBRANCH   7   8
ENDBRANCH   2   6
BRANCH   4  18
ATOM     18  C   UNL     1      -5.074  43.417  20.227  0.00  0.00    +0.000 C 
ATOM     19  C   UNL     1      -6.257  43.212  20.284  0.00  0.00    +0.000 C 
BRANCH  19  20
ATOM     20  C   UNL     1      -7.660  42.970  20.349  0.00  0.00    +0.000 A 
ATOM     21  C   UNL     1      -8.335  42.495  19.226  0.00  0.00    +0.000 A 
ATOM     22  C   UNL     1      -9.710  42.252  19.273  0.00  0.00    +0.000 A 
ATOM     23  C   UNL     1     -10.394  42.494  20.467  0.00  0.00    +0.000 A 
ATOM     24  C   UNL     1      -9.724  42.969  21.594  0.00  0.00    +0.000 A 
ATOM     25  C   UNL     1      -8.354  43.207  21.533  0.00  0.00    +0.000 A 
BRANCH  22  26
ATOM     26  O   UNL     1     -10.451  41.785  18.214  0.00  0.00    +0.000 OA
ATOM     27  C   UNL     1     -10.479  42.615  17.082  0.00  0.00    +0.000 C 
ENDBRANCH  22  26
BRANCH  23  28
ATOM     28  O   UNL     1     -11.741  42.264  20.534  0.00  0.00    +0.000 OA
ATOM     29  H   UNL     1     -12.082  42.641  21.365  0.00  0.00    +0.000 HD
ENDBRANCH  23  28
ENDBRANCH  19  20
ENDBRANCH   4  18
TORSDOF 8
ENDMDL
MODEL 2
REMARK VINA RESULT:      -6.3     16.778     21.774
REMARK  Name = Curcumin.pdbqt.pdb
REMARK  8 active torsions:
REMARK  status: ('A' for Active; 'I' for Inactive)
REMARK    1  A    between atoms: C_2  and  C_4
REMARK    2  A    between atoms: C_5  and  C_6
REMARK    3  A    between atoms: C_8  and  O_12
REMARK    4  A    between atoms: C_9  and  O_14
REMARK    5  A    between atoms: C_16  and  C_18
REMARK    6  A    between atoms: C_19  and  C_20
REMARK    7  A    between atoms: C_22  and  O_26
REMARK    8  A    between atoms: C_23  and  O_28
REMARK                            x       y       z     vdW  Elec       q    Type
REMARK                         _______ _______ _______ _____ _____    ______ ____
ROOT
ATOM      1  C   UNL     1     -16.304  27.735  22.267  0.00  0.00    +0.000 C 
ATOM      2  C   UNL     1     -15.049  28.343  22.560  0.00  0.00    +0.000 C 
ATOM      3  O   UNL     1     -14.033  27.664  22.561  0.00  0.00    +0.000 OA
ATOM      4  C   UNL     1     -17.559  27.125  21.978  0.00  0.00    +0.000 C 
ATOM      5  O   UNL     1     -18.596  27.700  22.273  0.00  0.00    +0.000 OA
ENDROOT
BRANCH   2   6
ATOM      6  C   UNL     1     -14.986  29.753  22.850  0.00  0.00    +0.000 C 
ATOM      7  C   UNL     1     -14.935  30.929  23.091  0.00  0.00    +0.000 C 
BRANCH   7   8
ATOM      8  C   UNL     1     -14.875  32.325  23.379  0.00  0.00    +0.000 A 
ATOM      9  C   UNL     1     -14.117  32.781  24.455  0.00  0.00    +0.000 A 
ATOM     10  C   UNL     1     -14.046  34.145  24.752  0.00  0.00    +0.000 A 
ATOM     11  C   UNL     1     -14.752  35.045  23.947  0.00  0.00    +0.000 A 
ATOM     12  C   UNL     1     -15.512  34.592  22.869  0.00  0.00    +0.000 A 
ATOM     13  C   UNL     1     -15.573  33.230  22.585  0.00  0.00    +0.000 A 
BRANCH  10  14
ATOM     14  O   UNL     1     -13.320  34.667  25.793  0.00  0.00    +0.000 OA
ATOM     15  C   UNL     1     -13.621  34.167  27.065  0.00  0.00    +0.000 C 
ENDBRANCH  10  14
BRANCH  11  16
ATOM     16  O   UNL     1     -14.744  36.396  24.159  0.00  0.00    +0.000 OA
ATOM     17  H   UNL     1     -14.227  36.848  23.471  0.00  0.00    +0.000 HD
ENDBRANCH  11  16
ENDBRANCH   7   8
ENDBRANCH   2   6
BRANCH   4  18
ATOM     18  C   UNL     1     -17.596  25.834  21.339  0.00  0.00    +0.000 C 
ATOM     19  C   UNL     1     -17.631  24.758  20.804  0.00  0.00    +0.000 C 
BRANCH  19  20
ATOM     20  C   UNL     1     -17.676  23.484  20.168  0.00  0.00    +0.000 A 
ATOM     21  C   UNL     1     -17.032  22.394  20.753  0.00  0.00    +0.000 A 
ATOM     22  C   UNL     1     -17.066  21.137  20.142  0.00  0.00    +0.000 A 
ATOM     23  C   UNL     1     -17.759  20.995  18.937  0.00  0.00    +0.000 A 
ATOM     24  C   UNL     1     -18.405  22.081  18.348  0.00  0.00    +0.000 A 
ATOM     25  C   UNL     1     -18.362  23.328  18.966  0.00  0.00    +0.000 A 
BRANCH  22  26
ATOM     26  O   UNL     1     -16.460  20.013  20.649  0.00  0.00    +0.000 OA
ATOM     27  C   UNL     1     -15.068  20.095  20.805  0.00  0.00    +0.000 C 
ENDBRANCH  22  26
BRANCH  23  28
ATOM     28  O   UNL     1     -17.804  19.773  18.323  0.00  0.00    +0.000 OA
ATOM     29  H   UNL     1     -16.929  19.352  18.402  0.00  0.00    +0.000 HD
ENDBRANCH  23  28
ENDBRANCH  19  20
ENDBRANCH   4  18
TORSDOF 8
ENDMDL
MODEL 3
REMARK VINA RESULT:      -6.2      1.423      2.426
REMARK  Name = Curcumin.pdbqt.pdb
REMARK  8 active torsions:
REMARK  status: ('A' for Active; 'I' for Inactive)
REMARK    1  A    between atoms: C_2  and  C_4
REMARK    2  A    between atoms: C_5  and  C_6
REMARK    3  A    between atoms: C_8  and  O_12
REMARK    4  A    between atoms: C_9  and  O_14
REMARK    5  A    between atoms: C_16  and  C_18
REMARK    6  A    between atoms: C_19  and  C_20
REMARK    7  A    between atoms: C_22  and  O_26
REMARK    8  A    between atoms: C_23  and  O_28
REMARK                            x       y       z     vdW  Elec       q    Type
REMARK                         _______ _______ _______ _____ _____    ______ ____
ROOT
ATOM      1  C   UNL     1      -2.498  43.557  20.124  0.00  0.00    +0.000 C 
ATOM      2  C   UNL     1      -1.923  42.830  19.042  0.00  0.00    +0.000 C 
ATOM      3  O   UNL     1      -2.540  41.901  18.541  0.00  0.00    +0.000 OA
ATOM      4  C   UNL     1      -3.072  44.282  21.208  0.00  0.00    +0.000 C 
ATOM      5  O   UNL     1      -2.362  44.987  21.911  0.00  0.00    +0.000 OA
ENDROOT
BRANCH   2   6
ATOM      6  C   UNL     1      -0.621  43.195  18.543  0.00  0.00    +0.000 C 
ATOM      7  C   UNL     1       0.465  43.498  18.130  0.00  0.00    +0.000 C 
BRANCH   7   8
ATOM      8  C   UNL     1       1.755  43.857  17.637  0.00  0.00    +0.000 A 
ATOM      9  C   UNL     1       2.310  45.089  17.976  0.00  0.00    +0.000 A 
ATOM     10  C   UNL     1       3.574  45.457  17.502  0.00  0.00    +0.000 A 
ATOM     11  C   UNL     1       4.268  44.565  16.680  0.00  0.00    +0.000 A 
ATOM     12  C   UNL     1       3.715  43.332  16.338  0.00  0.00    +0.000 A 
ATOM     13  C   UNL     1       2.456  42.978  16.817  0.00  0.00    +0.000 A 
BRANCH  10  14
ATOM     14  O   UNL     1       4.184  46.651  17.795  0.00  0.00    +0.000 OA
ATOM     15  C   UNL     1       4.695  46.780  19.091  0.00  0.00    +0.000 C 
ENDBRANCH  10  14
BRANCH  11  16
ATOM     16  O   UNL     1       5.507  44.836  16.169  0.00  0.00    +0.000 OA
ATOM     17  H   UNL     1       6.201  44.440  16.721  0.00  0.00    +0.000 HD
ENDBRANCH  11  16
ENDBRANCH   7   8
ENDBRANCH   2   6
BRANCH   4  18
ATOM     18  C   UNL     1      -4.485  44.178  21.469  0.00  0.00    +0.000 C 
ATOM     19  C   UNL     1      -5.663  44.090  21.692  0.00  0.00    +0.000 C 
BRANCH  19  20
ATOM     20  C   UNL     1      -7.059  43.985  21.958  0.00  0.00    +0.000 A 
ATOM     21  C   UNL     1      -7.844  43.110  21.209  0.00  0.00    +0.000 A 
ATOM     22  C   UNL     1      -9.215  42.994  21.458  0.00  0.00    +0.000 A 
ATOM     23  C   UNL     1      -9.781  43.772  22.472  0.00  0.00    +0.000 A 
ATOM     24  C   UNL     1      -9.000  44.648  23.224  0.00  0.00    +0.000 A 
ATOM     25  C   UNL     1      -7.636  44.754  22.966  0.00  0.00    +0.000 A 
BRANCH  22  26
ATOM     26  O   UNL     1     -10.060  42.159  20.768  0.00  0.00    +0.000 OA
ATOM     27  C   UNL     1     -10.316  42.522  19.437  0.00  0.00    +0.000 C 
ENDBRANCH  22  26
BRANCH  23  28
ATOM     28  O   UNL     1     -11.120  43.674  22.731  0.00  0.00    +0.000 OA
ATOM     29  H   UNL     1     -11.454  44.553  22.985  0.00  0.00    +0.000 HD
ENDBRANCH  23  28
ENDBRANCH  19  20
ENDBRANCH   4  18
TORSDOF 8
ENDMDL
MODEL 4
REMARK VINA RESULT:      -6.0      6.507      8.950
REMARK  Name = Curcumin.pdbqt.pdb
REMARK  8 active torsions:
REMARK  status: ('A' for Active; 'I' for Inactive)
REMARK    1  A    between atoms: C_2  and  C_4
REMARK    2  A    between atoms: C_5  and  C_6
REMARK    3  A    between atoms: C_8  and  O_12
REMARK    4  A    between atoms: C_9  and  O_14
REMARK    5  A    between atoms: C_16  and  C_18
REMARK    6  A    between atoms: C_19  and  C_20
REMARK    7  A    between atoms: C_22  and  O_26
REMARK    8  A    between atoms: C_23  and  O_28
REMARK                            x       y       z     vdW  Elec       q    Type
REMARK                         _______ _______ _______ _____ _____    ______ ____
ROOT
ATOM      1  C   UNL     1      -7.991  40.505  12.614  0.00  0.00    +0.000 C 
ATOM      2  C   UNL     1      -7.370  41.306  13.616  0.00  0.00    +0.000 C 
ATOM      3  O   UNL     1      -8.041  42.099  14.259  0.00  0.00    +0.000 OA
ATOM      4  C   UNL     1      -8.612  39.708  11.610  0.00  0.00    +0.000 C 
ATOM      5  O   UNL     1      -7.925  39.154  10.763  0.00  0.00    +0.000 OA
ENDROOT
BRANCH   2   6
ATOM      6  C   UNL     1      -5.957  41.173  13.866  0.00  0.00    +0.000 C 
ATOM      7  C   UNL     1      -4.780  41.062  14.077  0.00  0.00    +0.000 C 
BRANCH   7   8
ATOM      8  C   UNL     1      -3.381  40.929  14.326  0.00  0.00    +0.000 A 
ATOM      9  C   UNL     1      -2.795  39.665  14.335  0.00  0.00    +0.000 A 
ATOM     10  C   UNL     1      -1.425  39.515  14.576  0.00  0.00    +0.000 A 
ATOM     11  C   UNL     1      -0.656  40.659  14.809  0.00  0.00    +0.000 A 
ATOM     12  C   UNL     1      -1.240  41.925  14.801  0.00  0.00    +0.000 A 
ATOM     13  C   UNL     1      -2.605  42.060  14.559  0.00  0.00    +0.000 A 
BRANCH  10  14
ATOM     14  O   UNL     1      -0.779  38.305  14.600  0.00  0.00    +0.000 OA
ATOM     15  C   UNL     1      -1.492  37.236  15.157  0.00  0.00    +0.000 C 
ENDBRANCH  10  14
BRANCH  11  16
ATOM     16  O   UNL     1       0.689  40.613  15.054  0.00  0.00    +0.000 OA
ATOM     17  H   UNL     1       1.134  41.389  14.675  0.00  0.00    +0.000 HD
ENDBRANCH  11  16
ENDBRANCH   7   8
ENDBRANCH   2   6
BRANCH   4  18
ATOM     18  C   UNL     1     -10.045  39.560  11.599  0.00  0.00    +0.000 C 
ATOM     19  C   UNL     1     -11.241  39.440  11.590  0.00  0.00    +0.000 C 
BRANCH  19  20
ATOM     20  C   UNL     1     -12.660  39.303  11.580  0.00  0.00    +0.000 A 
ATOM     21  C   UNL     1     -13.389  39.712  10.465  0.00  0.00    +0.000 A 
ATOM     22  C   UNL     1     -14.780  39.584  10.439  0.00  0.00    +0.000 A 
ATOM     23  C   UNL     1     -15.425  39.037  11.552  0.00  0.00    +0.000 A 
ATOM     24  C   UNL     1     -14.700  38.627  12.670  0.00  0.00    +0.000 A 
ATOM     25  C   UNL     1     -13.315  38.760  12.683  0.00  0.00    +0.000 A 
BRANCH  22  26
ATOM     26  O   UNL     1     -15.573  39.961   9.382  0.00  0.00    +0.000 OA
ATOM     27  C   UNL     1     -15.130  41.082   8.663  0.00  0.00    +0.000 C 
ENDBRANCH  22  26
BRANCH  23  28
ATOM     28  O   UNL     1     -16.786  38.904  11.546  0.00  0.00    +0.000 OA
ATOM     29  H   UNL     1     -17.135  39.227  12.397  0.00  0.00    +0.000 HD
ENDBRANCH  23  28
ENDBRANCH  19  20
ENDBRANCH   4  18
TORSDOF 8
ENDMDL
MODEL 5
REMARK VINA RESULT:      -5.9     25.230     28.042
REMARK  Name = Curcumin.pdbqt.pdb
REMARK  8 active torsions:
REMARK  status: ('A' for Active; 'I' for Inactive)
REMARK    1  A    between atoms: C_2  and  C_4
REMARK    2  A    between atoms: C_5  and  C_6
REMARK    3  A    between atoms: C_8  and  O_12
REMARK    4  A    between atoms: C_9  and  O_14
REMARK    5  A    between atoms: C_16  and  C_18
REMARK    6  A    between atoms: C_19  and  C_20
REMARK    7  A    between atoms: C_22  and  O_26
REMARK    8  A    between atoms: C_23  and  O_28
REMARK                            x       y       z     vdW  Elec       q    Type
REMARK                         _______ _______ _______ _____ _____    ______ ____
ROOT
ATOM      1  C   UNL     1       2.120  21.920   2.579  0.00  0.00    +0.000 C 
ATOM      2  C   UNL     1       2.983  21.074   3.335  0.00  0.00    +0.000 C 
ATOM      3  O   UNL     1       3.893  20.482   2.774  0.00  0.00    +0.000 OA
ATOM      4  C   UNL     1       1.256  22.763   1.822  0.00  0.00    +0.000 C 
ATOM      5  O   UNL     1       0.179  23.105   2.289  0.00  0.00    +0.000 OA
ENDROOT
BRANCH   2   6
ATOM      6  C   UNL     1       2.777  20.924   4.753  0.00  0.00    +0.000 C 
ATOM      7  C   UNL     1       2.606  20.801   5.936  0.00  0.00    +0.000 C 
BRANCH   7   8
ATOM      8  C   UNL     1       2.401  20.654   7.340  0.00  0.00    +0.000 A 
ATOM      9  C   UNL     1       3.496  20.520   8.191  0.00  0.00    +0.000 A 
ATOM     10  C   UNL     1       3.314  20.375   9.570  0.00  0.00    +0.000 A 
ATOM     11  C   UNL     1       2.011  20.367  10.078  0.00  0.00    +0.000 A 
ATOM     12  C   UNL     1       0.914  20.501   9.228  0.00  0.00    +0.000 A 
ATOM     13  C   UNL     1       1.110  20.645   7.857  0.00  0.00    +0.000 A 
BRANCH  10  14
ATOM     14  O   UNL     1       4.342  20.239  10.469  0.00  0.00    +0.000 OA
ATOM     15  C   UNL     1       4.905  18.962  10.572  0.00  0.00    +0.000 C 
ENDBRANCH  10  14
BRANCH  11  16
ATOM     16  O   UNL     1       1.733  20.231  11.410  0.00  0.00    +0.000 OA
ATOM     17  H   UNL     1       2.437  20.629  11.950  0.00  0.00    +0.000 HD
ENDBRANCH  11  16
ENDBRANCH   7   8
ENDBRANCH   2   6
BRANCH   4  18
ATOM     18  C   UNL     1       1.658  23.207   0.511  0.00  0.00    +0.000 C 
ATOM     19  C   UNL     1       1.997  23.579  -0.580  0.00  0.00    +0.000 C 
BRANCH  19  20
ATOM     20  C   UNL     1       2.402  24.022  -1.873  0.00  0.00    +0.000 A 
ATOM     21  C   UNL     1       1.793  25.136  -2.447  0.00  0.00    +0.000 A 
ATOM     22  C   UNL     1       2.178  25.584  -3.714  0.00  0.00    +0.000 A 
ATOM     23  C   UNL     1       3.186  24.892  -4.392  0.00  0.00    +0.000 A 
ATOM     24  C   UNL     1       3.799  23.777  -3.822  0.00  0.00    +0.000 A 
ATOM     25  C   UNL     1       3.405  23.342  -2.560  0.00  0.00    +0.000 A 
BRANCH  22  26
ATOM     26  O   UNL     1       1.630  26.671  -4.351  0.00  0.00    +0.000 OA
ATOM     27  C   UNL     1       1.941  27.920  -3.791  0.00  0.00    +0.000 C 
ENDBRANCH  22  26
BRANCH  23  28
ATOM     28  O   UNL     1       3.577  25.314  -5.633  0.00  0.00    +0.000 OA
ATOM     29  H   UNL     1       3.987  26.195  -5.548  0.00  0.00    +0.000 HD
ENDBRANCH  23  28
ENDBRANCH  19  20
ENDBRANCH   4  18
TORSDOF 8
ENDMDL
MODEL 6
REMARK VINA RESULT:      -5.9     16.749     22.377
REMARK  Name = Curcumin.pdbqt.pdb
REMARK  8 active torsions:
REMARK  status: ('A' for Active; 'I' for Inactive)
REMARK    1  A    between atoms: C_2  and  C_4
REMARK    2  A    between atoms: C_5  and  C_6
REMARK    3  A    between atoms: C_8  and  O_12
REMARK    4  A    between atoms: C_9  and  O_14
REMARK    5  A    between atoms: C_16  and  C_18
REMARK    6  A    between atoms: C_19  and  C_20
REMARK    7  A    between atoms: C_22  and  O_26
REMARK    8  A    between atoms: C_23  and  O_28
REMARK                            x       y       z     vdW  Elec       q    Type
REMARK                         _______ _______ _______ _____ _____    ______ ____
ROOT
ATOM      1  C   UNL     1     -16.477  27.866  22.304  0.00  0.00    +0.000 C 
ATOM      2  C   UNL     1     -17.724  27.248  21.998  0.00  0.00    +0.000 C 
ATOM      3  O   UNL     1     -18.767  27.797  22.321  0.00  0.00    +0.000 OA
ATOM      4  C   UNL     1     -15.230  28.484  22.614  0.00  0.00    +0.000 C 
ATOM      5  O   UNL     1     -14.202  27.823  22.585  0.00  0.00    +0.000 OA
ENDROOT
BRANCH   2   6
ATOM      6  C   UNL     1     -17.747  25.983  21.308  0.00  0.00    +0.000 C 
ATOM      7  C   UNL     1     -17.765  24.930  20.732  0.00  0.00    +0.000 C 
BRANCH   7   8
ATOM      8  C   UNL     1     -17.785  23.677  20.049  0.00  0.00    +0.000 A 
ATOM      9  C   UNL     1     -17.094  22.588  20.574  0.00  0.00    +0.000 A 
ATOM     10  C   UNL     1     -17.103  21.352  19.919  0.00  0.00    +0.000 A 
ATOM     11  C   UNL     1     -17.819  21.232  18.724  0.00  0.00    +0.000 A 
ATOM     12  C   UNL     1     -18.512  22.321  18.195  0.00  0.00    +0.000 A 
ATOM     13  C   UNL     1     -18.494  23.545  18.859  0.00  0.00    +0.000 A 
BRANCH  10  14
ATOM     14  O   UNL     1     -16.448  20.237  20.376  0.00  0.00    +0.000 OA
ATOM     15  C   UNL     1     -16.972  19.645  21.531  0.00  0.00    +0.000 C 
ENDBRANCH  10  14
BRANCH  11  16
ATOM     16  O   UNL     1     -17.887  20.067  18.012  0.00  0.00    +0.000 OA
ATOM     17  H   UNL     1     -18.479  19.432  18.448  0.00  0.00    +0.000 HD
ENDBRANCH  11  16
ENDBRANCH   7   8
ENDBRANCH   2   6
BRANCH   4  18
ATOM     18  C   UNL     1     -15.191  29.882  22.960  0.00  0.00    +0.000 C 
ATOM     19  C   UNL     1     -15.154  31.049  23.246  0.00  0.00    +0.000 C 
BRANCH  19  20
ATOM     20  C   UNL     1     -15.107  32.432  23.584  0.00  0.00    +0.000 A 
ATOM     21  C   UNL     1     -14.731  32.820  24.869  0.00  0.00    +0.000 A 
ATOM     22  C   UNL     1     -14.679  34.173  25.217  0.00  0.00    +0.000 A 
ATOM     23  C   UNL     1     -15.011  35.127  24.251  0.00  0.00    +0.000 A 
ATOM     24  C   UNL     1     -15.388  34.745  22.965  0.00  0.00    +0.000 A 
ATOM     25  C   UNL     1     -15.435  33.394  22.632  0.00  0.00    +0.000 A 
BRANCH  22  26
ATOM     26  O   UNL     1     -14.320  34.640  26.458  0.00  0.00    +0.000 OA
ATOM     27  C   UNL     1     -12.940  34.676  26.715  0.00  0.00    +0.000 C 
ENDBRANCH  22  26
BRANCH  23  28
ATOM     28  O   UNL     1     -14.967  36.456  24.572  0.00  0.00    +0.000 OA
ATOM     29  H   UNL     1     -15.457  36.957  23.895  0.00  0.00    +0.000 HD
ENDBRANCH  23  28
ENDBRANCH  19  20
ENDBRANCH   4  18
TORSDOF 8
ENDMDL
MODEL 7
REMARK VINA RESULT:      -5.8     30.613     32.609
REMARK  Name = Curcumin.pdbqt.pdb
REMARK  8 active torsions:
REMARK  status: ('A' for Active; 'I' for Inactive)
REMARK    1  A    between atoms: C_2  and  C_4
REMARK    2  A    between atoms: C_5  and  C_6
REMARK    3  A    between atoms: C_8  and  O_12
REMARK    4  A    between atoms: C_9  and  O_14
REMARK    5  A    between atoms: C_16  and  C_18
REMARK    6  A    between atoms: C_19  and  C_20
REMARK    7  A    between atoms: C_22  and  O_26
REMARK    8  A    between atoms: C_23  and  O_28
REMARK                            x       y       z     vdW  Elec       q    Type
REMARK                         _______ _______ _______ _____ _____    ______ ____
ROOT
ATOM      1  C   UNL     1      19.836  38.622  -1.299  0.00  0.00    +0.000 C 
ATOM      2  C   UNL     1      20.246  39.917  -1.731  0.00  0.00    +0.000 C 
ATOM      3  O   UNL     1      21.230  40.439  -1.229  0.00  0.00    +0.000 OA
ATOM      4  C   UNL     1      19.425  37.329  -0.863  0.00  0.00    +0.000 C 
ATOM      5  O   UNL     1      18.296  36.934  -1.116  0.00  0.00    +0.000 OA
ENDROOT
BRANCH   2   6
ATOM      6  C   UNL     1      19.500  40.600  -2.757  0.00  0.00    +0.000 C 
ATOM      7  C   UNL     1      18.878  41.171  -3.611  0.00  0.00    +0.000 C 
BRANCH   7   8
ATOM      8  C   UNL     1      18.141  41.849  -4.627  0.00  0.00    +0.000 A 
ATOM      9  C   UNL     1      18.477  41.668  -5.967  0.00  0.00    +0.000 A 
ATOM     10  C   UNL     1      17.765  42.324  -6.977  0.00  0.00    +0.000 A 
ATOM     11  C   UNL     1      16.709  43.166  -6.615  0.00  0.00    +0.000 A 
ATOM     12  C   UNL     1      16.370  43.349  -5.274  0.00  0.00    +0.000 A 
ATOM     13  C   UNL     1      17.087  42.689  -4.280  0.00  0.00    +0.000 A 
BRANCH  10  14
ATOM     14  O   UNL     1      18.038  42.194  -8.315  0.00  0.00    +0.000 OA
ATOM     15  C   UNL     1      18.867  41.126  -8.674  0.00  0.00    +0.000 C 
ENDBRANCH  10  14
BRANCH  11  16
ATOM     16  O   UNL     1      15.956  43.849  -7.529  0.00  0.00    +0.000 OA
ATOM     17  H   UNL     1      15.046  43.508  -7.549  0.00  0.00    +0.000 HD
ENDBRANCH  11  16
ENDBRANCH   7   8
ENDBRANCH   2   6
BRANCH   4  18
ATOM     18  C   UNL     1      20.343  36.497  -0.128  0.00  0.00    +0.000 C 
ATOM     19  C   UNL     1      21.108  35.799   0.483  0.00  0.00    +0.000 C 
BRANCH  19  20
ATOM     20  C   UNL     1      22.013  34.968   1.205  0.00  0.00    +0.000 A 
ATOM     21  C   UNL     1      22.856  35.530   2.164  0.00  0.00    +0.000 A 
ATOM     22  C   UNL     1      23.749  34.729   2.881  0.00  0.00    +0.000 A 
ATOM     23  C   UNL     1      23.781  33.357   2.618  0.00  0.00    +0.000 A 
ATOM     24  C   UNL     1      22.941  32.791   1.660  0.00  0.00    +0.000 A 
ATOM     25  C   UNL     1      22.056  33.599   0.953  0.00  0.00    +0.000 A 
BRANCH  22  26
ATOM     26  O   UNL     1      24.612  35.200   3.840  0.00  0.00    +0.000 OA
ATOM     27  C   UNL     1      25.429  36.272   3.446  0.00  0.00    +0.000 C 
ENDBRANCH  22  26
BRANCH  23  28
ATOM     28  O   UNL     1      24.649  32.556   3.309  0.00  0.00    +0.000 OA
ATOM     29  H   UNL     1      24.170  31.761   3.605  0.00  0.00    +0.000 HD
ENDBRANCH  23  28
ENDBRANCH  19  20
ENDBRANCH   4  18
TORSDOF 8
ENDMDL
MODEL 8
REMARK VINA RESULT:      -5.8      5.275      6.420
REMARK  Name = Curcumin.pdbqt.pdb
REMARK  8 active torsions:
REMARK  status: ('A' for Active; 'I' for Inactive)
REMARK    1  A    between atoms: C_2  and  C_4
REMARK    2  A    between atoms: C_5  and  C_6
REMARK    3  A    between atoms: C_8  and  O_12
REMARK    4  A    between atoms: C_9  and  O_14
REMARK    5  A    between atoms: C_16  and  C_18
REMARK    6  A    between atoms: C_19  and  C_20
REMARK    7  A    between atoms: C_22  and  O_26
REMARK    8  A    between atoms: C_23  and  O_28
REMARK                            x       y       z     vdW  Elec       q    Type
REMARK                         _______ _______ _______ _____ _____    ______ ____
ROOT
ATOM      1  C   UNL     1      -1.572  44.457  23.198  0.00  0.00    +0.000 C 
ATOM      2  C   UNL     1      -0.205  44.101  23.005  0.00  0.00    +0.000 C 
ATOM      3  O   UNL     1       0.479  43.782  23.966  0.00  0.00    +0.000 OA
ATOM      4  C   UNL     1      -2.937  44.816  23.393  0.00  0.00    +0.000 C 
ATOM      5  O   UNL     1      -3.535  45.425  22.517  0.00  0.00    +0.000 OA
ENDROOT
BRANCH   2   6
ATOM      6  C   UNL     1       0.359  44.116  21.679  0.00  0.00    +0.000 C 
ATOM      7  C   UNL     1       0.829  44.131  20.574  0.00  0.00    +0.000 C 
BRANCH   7   8
ATOM      8  C   UNL     1       1.389  44.149  19.262  0.00  0.00    +0.000 A 
ATOM      9  C   UNL     1       1.151  43.088  18.390  0.00  0.00    +0.000 A 
ATOM     10  C   UNL     1       1.691  43.088  17.101  0.00  0.00    +0.000 A 
ATOM     11  C   UNL     1       2.477  44.174  16.703  0.00  0.00    +0.000 A 
ATOM     12  C   UNL     1       2.718  45.237  17.573  0.00  0.00    +0.000 A 
ATOM     13  C   UNL     1       2.173  45.224  18.854  0.00  0.00    +0.000 A 
BRANCH  10  14
ATOM     14  O   UNL     1       1.499  42.081  16.189  0.00  0.00    +0.000 OA
ATOM     15  C   UNL     1       2.119  40.861  16.479  0.00  0.00    +0.000 C 
ENDBRANCH  10  14
BRANCH  11  16
ATOM     16  O   UNL     1       3.048  44.264  15.463  0.00  0.00    +0.000 OA
ATOM     17  H   UNL     1       2.703  45.034  14.981  0.00  0.00    +0.000 HD
ENDBRANCH  11  16
ENDBRANCH   7   8
ENDBRANCH   2   6
BRANCH   4  18
ATOM     18  C   UNL     1      -3.603  44.459  24.619  0.00  0.00    +0.000 C 
ATOM     19  C   UNL     1      -4.161  44.164  25.642  0.00  0.00    +0.000 C 
BRANCH  19  20
ATOM     20  C   UNL     1      -4.825  43.818  26.855  0.00  0.00    +0.000 A 
ATOM     21  C   UNL     1      -5.695  44.728  27.454  0.00  0.00    +0.000 A 
ATOM     22  C   UNL     1      -6.354  44.404  28.643  0.00  0.00    +0.000 A 
ATOM     23  C   UNL     1      -6.125  43.151  29.218  0.00  0.00    +0.000 A 
ATOM     24  C   UNL     1      -5.256  42.237  28.622  0.00  0.00    +0.000 A 
ATOM     25  C   UNL     1      -4.606  42.573  27.439  0.00  0.00    +0.000 A 
BRANCH  22  26
ATOM     26  O   UNL     1      -7.225  45.241  29.298  0.00  0.00    +0.000 OA
ATOM     27  C   UNL     1      -7.697  46.330  28.549  0.00  0.00    +0.000 C 
ENDBRANCH  22  26
BRANCH  23  28
ATOM     28  O   UNL     1      -6.760  42.815  30.381  0.00  0.00    +0.000 OA
ATOM     29  H   UNL     1      -6.971  41.864  30.358  0.00  0.00    +0.000 HD
ENDBRANCH  23  28
ENDBRANCH  19  20
ENDBRANCH   4  18
TORSDOF 8
ENDMDL
MODEL 9
REMARK VINA RESULT:      -5.8      7.419      9.867
REMARK  Name = Curcumin.pdbqt.pdb
REMARK  8 active torsions:
REMARK  status: ('A' for Active; 'I' for Inactive)
REMARK    1  A    between atoms: C_2  and  C_4
REMARK    2  A    between atoms: C_5  and  C_6
REMARK    3  A    between atoms: C_8  and  O_12
REMARK    4  A    between atoms: C_9  and  O_14
REMARK    5  A    between atoms: C_16  and  C_18
REMARK    6  A    between atoms: C_19  and  C_20
REMARK    7  A    between atoms: C_22  and  O_26
REMARK    8  A    between atoms: C_23  and  O_28
REMARK                            x       y       z     vdW  Elec       q    Type
REMARK                         _______ _______ _______ _____ _____    ______ ____
ROOT
ATOM      1  C   UNL     1      -6.816  41.078  11.130  0.00  0.00    +0.000 C 
ATOM      2  C   UNL     1      -5.776  41.972  11.515  0.00  0.00    +0.000 C 
ATOM      3  O   UNL     1      -5.757  43.108  11.065  0.00  0.00    +0.000 OA
ATOM      4  C   UNL     1      -7.855  40.183  10.741  0.00  0.00    +0.000 C 
ATOM      5  O   UNL     1      -7.721  38.981  10.924  0.00  0.00    +0.000 OA
ENDROOT
BRANCH   2   6
ATOM      6  C   UNL     1      -4.755  41.533  12.432  0.00  0.00    +0.000 C 
ATOM      7  C   UNL     1      -3.903  41.168  13.196  0.00  0.00    +0.000 C 
BRANCH   7   8
ATOM      8  C   UNL     1      -2.892  40.736  14.105  0.00  0.00    +0.000 A 
ATOM      9  C   UNL     1      -3.118  39.629  14.921  0.00  0.00    +0.000 A 
ATOM     10  C   UNL     1      -2.138  39.190  15.817  0.00  0.00    +0.000 A 
ATOM     11  C   UNL     1      -0.927  39.886  15.880  0.00  0.00    +0.000 A 
ATOM     12  C   UNL     1      -0.698  40.995  15.066  0.00  0.00    +0.000 A 
ATOM     13  C   UNL     1      -1.682  41.420  14.178  0.00  0.00    +0.000 A 
BRANCH  10  14
ATOM     14  O   UNL     1      -2.289  38.110  16.649  0.00  0.00    +0.000 OA
ATOM     15  C   UNL     1      -1.821  36.885  16.159  0.00  0.00    +0.000 C 
ENDBRANCH  10  14
BRANCH  11  16
ATOM     16  O   UNL     1       0.089  39.534  16.725  0.00  0.00    +0.000 OA
ATOM     17  H   UNL     1      -0.260  39.091  17.516  0.00  0.00    +0.000 HD
ENDBRANCH  11  16
ENDBRANCH   7   8
ENDBRANCH   2   6
BRANCH   4  18
ATOM     18  C   UNL     1      -9.056  40.700  10.137  0.00  0.00    +0.000 C 
ATOM     19  C   UNL     1     -10.055  41.132   9.628  0.00  0.00    +0.000 C 
BRANCH  19  20
ATOM     20  C   UNL     1     -11.239  41.644   9.021  0.00  0.00    +0.000 A 
ATOM     21  C   UNL     1     -12.239  40.767   8.603  0.00  0.00    +0.000 A 
ATOM     22  C   UNL     1     -13.406  41.253   8.006  0.00  0.00    +0.000 A 
ATOM     23  C   UNL     1     -13.550  42.633   7.839  0.00  0.00    +0.000 A 
ATOM     24  C   UNL     1     -12.553  43.514   8.256  0.00  0.00    +0.000 A 
ATOM     25  C   UNL     1     -11.396  43.017   8.848  0.00  0.00    +0.000 A 
BRANCH  22  26
ATOM     26  O   UNL     1     -14.439  40.460   7.566  0.00  0.00    +0.000 OA
ATOM     27  C   UNL     1     -14.574  39.225   8.218  0.00  0.00    +0.000 C 
ENDBRANCH  22  26
BRANCH  23  28
ATOM     28  O   UNL     1     -14.685  43.128   7.258  0.00  0.00    +0.000 OA
ATOM     29  H   UNL     1     -14.429  43.697   6.508  0.00  0.00    +0.000 HD
ENDBRANCH  23  28
ENDBRANCH  19  20
ENDBRANCH   4  18
TORSDOF 8
ENDMDL
