MODEL 1
REMARK VINA RESULT:      -9.5      0.000      0.000
REMARK  Name = Cyclosporin_A.pdbqt.pdb
REMARK  4 active torsions:
REMARK  status: ('A' for Active; 'I' for Inactive)
REMARK    1  A    between atoms: N_13  and  C_36
REMARK    2  A    between atoms: C_36  and  O_70
REMARK    3  A    between atoms: C_72  and  C_73
REMARK    4  A    between atoms: C_75  and  C_76
REMARK                            x       y       z     vdW  Elec       q    Type
REMARK                         _______ _______ _______ _____ _____    ______ ____
ROOT
ATOM      1  O   UNL     1      15.769  52.378  15.616  0.00  0.00    +0.000 OA
ATOM      2  O   UNL     1      14.266  47.578  14.608  0.00  0.00    +0.000 OA
ATOM      3  O   UNL     1      12.231  48.109  10.308  0.00  0.00    +0.000 OA
ATOM      4  O   UNL     1      13.043  56.102  13.971  0.00  0.00    +0.000 OA
ATOM      5  O   UNL     1      17.025  46.969  11.508  0.00  0.00    +0.000 OA
ATOM      6  O   UNL     1      20.099  54.174   3.401  0.00  0.00    +0.000 OA
ATOM      7  O   UNL     1      18.591  56.511  13.597  0.00  0.00    +0.000 OA
ATOM      8  O   UNL     1      17.048  57.296   5.684  0.00  0.00    +0.000 OA
ATOM      9  O   UNL     1      19.626  49.423   4.224  0.00  0.00    +0.000 OA
ATOM     10  O   UNL     1      17.893  58.262   9.586  0.00  0.00    +0.000 OA
ATOM     11  O   UNL     1      19.688  48.481   8.433  0.00  0.00    +0.000 OA
ATOM     12  N   UNL     1      14.366  49.491  14.329  0.00  0.00    +0.000 NA
ATOM     13  N   UNL     1      14.191  52.545  13.807  0.00  0.00    +0.000 NA
ATOM     14  N   UNL     1      13.119  47.612  12.011  0.00  0.00    +0.000 NA
ATOM     15  N   UNL     1      15.243  47.321   9.662  0.00  0.00    +0.000 NA
ATOM     16  N   UNL     1      15.061  55.340  12.834  0.00  0.00    +0.000 NA
ATOM     17  N   UNL     1      18.134  52.922   3.741  0.00  0.00    +0.000 N 
ATOM     18  N   UNL     1      17.747  55.077   5.941  0.00  0.00    +0.000 N 
ATOM     19  N   UNL     1      17.874  56.766   8.301  0.00  0.00    +0.000 NA
ATOM     20  N   UNL     1      17.920  55.337  11.768  0.00  0.00    +0.000 NA
ATOM     21  N   UNL     1      17.354  49.244   8.803  0.00  0.00    +0.000 NA
ATOM     22  N   UNL     1      18.711  50.829   5.962  0.00  0.00    +0.000 NA
ATOM     23  C   UNL     1      15.290  50.409  14.736  0.00  0.00    +0.000 C 
ATOM     24  C   UNL     1      13.462  48.777  12.568  0.00  0.00    +0.000 C 
ATOM     25  C   UNL     1      13.649  53.762  14.173  0.00  0.00    +0.000 C 
ATOM     26  C   UNL     1      16.159  50.198  15.791  0.00  0.00    +0.000 C 
ATOM     27  C   UNL     1      12.136  49.426  12.458  0.00  0.00    +0.000 C 
ATOM     28  C   UNL     1      15.015  51.755  14.615  0.00  0.00    +0.000 C 
ATOM     29  C   UNL     1      14.255  48.338  13.574  0.00  0.00    +0.000 C 
ATOM     30  C   UNL     1      14.355  46.869  10.503  0.00  0.00    +0.000 C 
ATOM     31  C   UNL     1      13.429  47.842  10.732  0.00  0.00    +0.000 C 
ATOM     32  C   UNL     1      13.803  55.027  13.392  0.00  0.00    +0.000 C 
ATOM     33  C   UNL     1      15.671  48.944  16.273  0.00  0.00    +0.000 C 
ATOM     34  C   UNL     1      16.290  51.388  16.426  0.00  0.00    +0.000 C 
ATOM     35  C   UNL     1      14.754  48.584  15.297  0.00  0.00    +0.000 C 
ATOM     36  C   UNL     1      11.792  47.961  11.643  0.00  0.00    +0.000 C 
ATOM     37  C   UNL     1      16.091  56.060  13.490  0.00  0.00    +0.000 C 
ATOM     38  C   UNL     1      18.765  55.001   5.025  0.00  0.00    +0.000 A 
ATOM     39  C   UNL     1      16.172  47.607  10.569  0.00  0.00    +0.000 C 
ATOM     40  C   UNL     1      18.685  51.616   3.716  0.00  0.00    +0.000 C 
ATOM     41  C   UNL     1      16.734  56.694   7.572  0.00  0.00    +0.000 C 
ATOM     42  C   UNL     1      15.289  45.979   9.027  0.00  0.00    +0.000 C 
ATOM     43  C   UNL     1      19.886  55.867   4.840  0.00  0.00    +0.000 A 
ATOM     44  C   UNL     1      18.749  51.373   1.922  0.00  0.00    +0.000 C 
ATOM     45  C   UNL     1      17.121  48.492   9.834  0.00  0.00    +0.000 C 
ATOM     46  C   UNL     1      16.666  58.016   6.857  0.00  0.00    +0.000 C 
ATOM     47  C   UNL     1      15.654  56.729  14.672  0.00  0.00    +0.000 C 
ATOM     48  C   UNL     1      18.929  53.981   4.094  0.00  0.00    +0.000 A 
ATOM     49  C   UNL     1      17.367  56.000  13.034  0.00  0.00    +0.000 C 
ATOM     50  C   UNL     1      17.217  56.200   6.371  0.00  0.00    +0.000 C 
ATOM     51  C   UNL     1      19.047  50.656   4.632  0.00  0.00    +0.000 C 
ATOM     52  C   UNL     1      17.549  56.119  10.585  0.00  0.00    +0.000 C 
ATOM     53  C   UNL     1      20.277  57.094   5.620  0.00  0.00    +0.000 C 
ATOM     54  C   UNL     1      20.668  55.325   3.853  0.00  0.00    +0.000 A 
ATOM     55  C   UNL     1      17.289  57.015   9.515  0.00  0.00    +0.000 C 
ATOM     56  C   UNL     1      18.985  50.003   6.918  0.00  0.00    +0.000 C 
ATOM     57  C   UNL     1      17.710  47.769  10.835  0.00  0.00    +0.000 C 
ATOM     58  C   UNL     1      18.237  52.530   2.451  0.00  0.00    +0.000 C 
ATOM     59  C   UNL     1      14.708  56.891  15.390  0.00  0.00    +0.000 C 
ATOM     60  C   UNL     1      18.515  49.280   8.166  0.00  0.00    +0.000 C 
ATOM     61  C   UNL     1      18.172  58.296   8.151  0.00  0.00    +0.000 C 
ATOM     62  C   UNL     1      18.823  55.914  12.538  0.00  0.00    +0.000 C 
ATOM     63  C   UNL     1      19.907  49.134   7.399  0.00  0.00    +0.000 C 
ATOM     64  H   UNL     1      15.471  54.530  12.366  0.00  0.00    +0.000 HD
ATOM     65  H   UNL     1      17.553  54.229   6.468  0.00  0.00    +0.000 HD
ATOM     66  H   UNL     1      16.548  49.629   8.318  0.00  0.00    +0.000 HD
ATOM     67  H   UNL     1      17.923  51.462   6.061  0.00  0.00    +0.000 HD
ATOM     68  C   UNL     1      13.284  54.031  15.397  0.00  0.00    +0.000 C 
ATOM     69  C   UNL     1      13.082  55.201  16.181  0.00  0.00    +0.000 C 
ATOM     70  C   UNL     1      13.368  56.386  15.346  0.00  0.00    +0.000 C 
ATOM     71  C   UNL     1      10.678  49.473  13.277  0.00  0.00    +0.000 C 
ATOM     72  C   UNL     1       9.885  50.532  13.427  0.00  0.00    +0.000 C 
ATOM     73  C   UNL     1      10.757  48.425  12.356  0.00  0.00    +0.000 C 
ATOM     74  C   UNL     1      14.233  45.541   9.885  0.00  0.00    +0.000 C 
ATOM     75  C   UNL     1      15.162  44.573   9.533  0.00  0.00    +0.000 C 
ATOM     76  C   UNL     1      14.773  43.369   8.648  0.00  0.00    +0.000 C 
ATOM     77  C   UNL     1      16.366  45.118   9.127  0.00  0.00    +0.000 C 
ATOM     78  C   UNL     1      16.222  59.545   7.020  0.00  0.00    +0.000 C 
ATOM     79  C   UNL     1      15.788  60.489   6.189  0.00  0.00    +0.000 C 
ATOM     80  C   UNL     1      17.382  59.345   7.770  0.00  0.00    +0.000 C 
ATOM     81  C   UNL     1      19.289  50.168   1.723  0.00  0.00    +0.000 C 
ATOM     82  C   UNL     1      19.498  49.605   0.356  0.00  0.00    +0.000 C 
ATOM     83  C   UNL     1      19.624  49.442   2.892  0.00  0.00    +0.000 C 
ENDROOT
BRANCH  69  84
ATOM     84  C   UNL     1      13.033  55.259  17.593  0.00  0.00    +0.000 C 
ATOM     85  C   UNL     1      12.997  55.303  18.793  0.00  0.00    +0.000 C 
BRANCH  85  86
ATOM     86  C   UNL     1      12.954  55.354  20.324  0.00  0.00    +0.000 C 
ATOM     87  C   UNL     1      12.912  55.403  21.654  0.00  0.00    +0.000 C 
ENDBRANCH  85  86
ENDBRANCH  69  84
BRANCH  13  88
ATOM     88  C   UNL     1      14.129  52.194  12.398  0.00  0.00    +0.000 C 
BRANCH  88  89
ATOM     89  O   UNL     1      14.097  51.872  11.112  0.00  0.00    +0.000 OA
ATOM     90  H   UNL     1      14.108  50.904  11.011  0.00  0.00    +0.000 HD
ENDBRANCH  88  89
ENDBRANCH  13  88
TORSDOF 4
ENDMDL
MODEL 2
REMARK VINA RESULT:      -9.5     23.397     27.926
REMARK  Name = Cyclosporin_A.pdbqt.pdb
REMARK  4 active torsions:
REMARK  status: ('A' for Active; 'I' for Inactive)
REMARK    1  A    between atoms: N_13  and  C_36
REMARK    2  A    between atoms: C_36  and  O_70
REMARK    3  A    between atoms: C_72  and  C_73
REMARK    4  A    between atoms: C_75  and  C_76
REMARK                            x       y       z     vdW  Elec       q    Type
REMARK                         _______ _______ _______ _____ _____    ______ ____
ROOT
ATOM      1  O   UNL     1      18.072  27.974  -1.296  0.00  0.00    +0.000 OA
ATOM      2  O   UNL     1      13.713  25.272  -1.198  0.00  0.00    +0.000 OA
ATOM      3  O   UNL     1      10.675  28.304  -3.317  0.00  0.00    +0.000 OA
ATOM      4  O   UNL     1      17.840  32.850  -0.873  0.00  0.00    +0.000 OA
ATOM      5  O   UNL     1      13.563  24.661  -5.346  0.00  0.00    +0.000 OA
ATOM      6  O   UNL     1      15.948  32.005 -13.560  0.00  0.00    +0.000 OA
ATOM      7  O   UNL     1      21.381  30.677  -4.593  0.00  0.00    +0.000 OA
ATOM      8  O   UNL     1      17.052  35.057  -9.854  0.00  0.00    +0.000 OA
ATOM      9  O   UNL     1      13.152  28.152 -12.659  0.00  0.00    +0.000 OA
ATOM     10  O   UNL     1      20.065  33.930  -7.300  0.00  0.00    +0.000 OA
ATOM     11  O   UNL     1      14.659  25.768  -9.396  0.00  0.00    +0.000 OA
ATOM     12  N   UNL     1      14.808  26.847  -1.464  0.00  0.00    +0.000 NA
ATOM     13  N   UNL     1      16.309  29.549  -1.741  0.00  0.00    +0.000 NA
ATOM     14  N   UNL     1      11.755  26.837  -2.531  0.00  0.00    +0.000 NA
ATOM     15  N   UNL     1      11.767  26.494  -5.693  0.00  0.00    +0.000 NA
ATOM     16  N   UNL     1      18.086  31.720  -3.021  0.00  0.00    +0.000 NA
ATOM     17  N   UNL     1      14.119  31.818 -12.089  0.00  0.00    +0.000 N 
ATOM     18  N   UNL     1      16.259  32.869 -10.102  0.00  0.00    +0.000 N 
ATOM     19  N   UNL     1      18.516  33.245  -8.311  0.00  0.00    +0.000 NA
ATOM     20  N   UNL     1      19.356  30.765  -5.626  0.00  0.00    +0.000 NA
ATOM     21  N   UNL     1      13.845  27.341  -7.657  0.00  0.00    +0.000 NA
ATOM     22  N   UNL     1      14.281  29.037 -10.716  0.00  0.00    +0.000 NA
ATOM     23  C   UNL     1      16.144  26.978  -1.708  0.00  0.00    +0.000 C 
ATOM     24  C   UNL     1      12.951  27.384  -2.296  0.00  0.00    +0.000 C 
ATOM     25  C   UNL     1      16.890  30.630  -1.109  0.00  0.00    +0.000 C 
ATOM     26  C   UNL     1      17.072  25.994  -1.417  0.00  0.00    +0.000 C 
ATOM     27  C   UNL     1      12.464  28.571  -1.558  0.00  0.00    +0.000 C 
ATOM     28  C   UNL     1      16.735  28.222  -1.622  0.00  0.00    +0.000 C 
ATOM     29  C   UNL     1      13.668  26.274  -1.999  0.00  0.00    +0.000 C 
ATOM     30  C   UNL     1      11.343  26.236  -4.486  0.00  0.00    +0.000 C 
ATOM     31  C   UNL     1      11.469  27.361  -3.726  0.00  0.00    +0.000 C 
ATOM     32  C   UNL     1      17.378  31.858  -1.808  0.00  0.00    +0.000 C 
ATOM     33  C   UNL     1      16.234  25.050  -0.746  0.00  0.00    +0.000 C 
ATOM     34  C   UNL     1      18.188  26.632  -0.989  0.00  0.00    +0.000 C 
ATOM     35  C   UNL     1      14.967  25.573  -0.950  0.00  0.00    +0.000 C 
ATOM     36  C   UNL     1      10.958  27.886  -1.997  0.00  0.00    +0.000 C 
ATOM     37  C   UNL     1      19.489  31.550  -3.136  0.00  0.00    +0.000 C 
ATOM     38  C   UNL     1      16.406  32.674 -11.452  0.00  0.00    +0.000 A 
ATOM     39  C   UNL     1      12.963  25.932  -5.551  0.00  0.00    +0.000 C 
ATOM     40  C   UNL     1      13.654  30.531 -12.459  0.00  0.00    +0.000 C 
ATOM     41  C   UNL     1      17.404  34.008  -8.180  0.00  0.00    +0.000 C 
ATOM     42  C   UNL     1      10.668  25.652  -6.231  0.00  0.00    +0.000 C 
ATOM     43  C   UNL     1      17.546  32.898 -12.282  0.00  0.00    +0.000 A 
ATOM     44  C   UNL     1      12.675  30.994 -13.911  0.00  0.00    +0.000 C 
ATOM     45  C   UNL     1      13.740  26.462  -6.708  0.00  0.00    +0.000 C 
ATOM     46  C   UNL     1      17.822  35.361  -8.690  0.00  0.00    +0.000 C 
ATOM     47  C   UNL     1      20.197  31.837  -1.930  0.00  0.00    +0.000 C 
ATOM     48  C   UNL     1      15.434  32.144 -12.293  0.00  0.00    +0.000 A 
ATOM     49  C   UNL     1      20.029  31.069  -4.283  0.00  0.00    +0.000 C 
ATOM     50  C   UNL     1      16.822  33.846  -9.427  0.00  0.00    +0.000 C 
ATOM     51  C   UNL     1      13.740  29.249 -11.970  0.00  0.00    +0.000 C 
ATOM     52  C   UNL     1      19.027  32.013  -6.320  0.00  0.00    +0.000 C 
ATOM     53  C   UNL     1      18.918  33.386 -11.901  0.00  0.00    +0.000 C 
ATOM     54  C   UNL     1      17.226  32.474 -13.546  0.00  0.00    +0.000 A 
ATOM     55  C   UNL     1      18.892  33.255  -6.993  0.00  0.00    +0.000 C 
ATOM     56  C   UNL     1      14.413  27.886 -10.140  0.00  0.00    +0.000 C 
ATOM     57  C   UNL     1      14.153  25.226  -6.291  0.00  0.00    +0.000 C 
ATOM     58  C   UNL     1      13.318  31.952 -13.170  0.00  0.00    +0.000 C 
ATOM     59  C   UNL     1      20.053  32.140  -0.780  0.00  0.00    +0.000 C 
ATOM     60  C   UNL     1      14.284  27.061  -8.875  0.00  0.00    +0.000 C 
ATOM     61  C   UNL     1      19.564  34.372  -8.601  0.00  0.00    +0.000 C 
ATOM     62  C   UNL     1      20.647  30.498  -5.573  0.00  0.00    +0.000 C 
ATOM     63  C   UNL     1      14.693  26.575 -10.339  0.00  0.00    +0.000 C 
ATOM     64  H   UNL     1      17.622  31.063  -3.648  0.00  0.00    +0.000 HD
ATOM     65  H   UNL     1      15.877  32.088  -9.575  0.00  0.00    +0.000 HD
ATOM     66  H   UNL     1      13.339  28.215  -7.538  0.00  0.00    +0.000 HD
ATOM     67  H   UNL     1      14.222  29.876 -10.146  0.00  0.00    +0.000 HD
ATOM     68  C   UNL     1      17.420  30.550   0.081  0.00  0.00    +0.000 C 
ATOM     69  C   UNL     1      18.388  31.273   0.832  0.00  0.00    +0.000 C 
ATOM     70  C   UNL     1      18.885  32.394   0.009  0.00  0.00    +0.000 C 
ATOM     71  C   UNL     1      11.978  28.989  -0.013  0.00  0.00    +0.000 C 
ATOM     72  C   UNL     1      12.200  30.149   0.604  0.00  0.00    +0.000 C 
ATOM     73  C   UNL     1      10.940  28.473  -0.794  0.00  0.00    +0.000 C 
ATOM     74  C   UNL     1      10.156  25.480  -4.908  0.00  0.00    +0.000 C 
ATOM     75  C   UNL     1       9.976  24.405  -5.767  0.00  0.00    +0.000 C 
ATOM     76  C   UNL     1       8.568  23.974  -6.232  0.00  0.00    +0.000 C 
ATOM     77  C   UNL     1      10.865  24.419  -6.825  0.00  0.00    +0.000 C 
ATOM     78  C   UNL     1      18.556  36.722  -8.275  0.00  0.00    +0.000 C 
ATOM     79  C   UNL     1      18.456  37.994  -8.652  0.00  0.00    +0.000 C 
ATOM     80  C   UNL     1      19.524  35.724  -8.403  0.00  0.00    +0.000 C 
ATOM     81  C   UNL     1      12.181  29.859 -14.411  0.00  0.00    +0.000 C 
ATOM     82  C   UNL     1      11.305  29.835 -15.620  0.00  0.00    +0.000 C 
ATOM     83  C   UNL     1      12.515  28.677 -13.706  0.00  0.00    +0.000 C 
ENDROOT
BRANCH  69  84
ATOM     84  C   UNL     1      19.078  30.802   1.974  0.00  0.00    +0.000 C 
ATOM     85  C   UNL     1      19.660  30.408   2.948  0.00  0.00    +0.000 C 
BRANCH  85  86
ATOM     86  C   UNL     1      20.401  29.909   4.193  0.00  0.00    +0.000 C 
ATOM     87  C   UNL     1      21.043  29.479   5.278  0.00  0.00    +0.000 C 
ENDBRANCH  85  86
ENDBRANCH  69  84
BRANCH  13  88
ATOM     88  C   UNL     1      15.371  29.839  -2.813  0.00  0.00    +0.000 C 
BRANCH  88  89
ATOM     89  O   UNL     1      14.514  30.127  -3.784  0.00  0.00    +0.000 OA
ATOM     90  H   UNL     1      13.690  30.482  -3.405  0.00  0.00    +0.000 HD
ENDBRANCH  88  89
ENDBRANCH  13  88
TORSDOF 4
ENDMDL
MODEL 3
REMARK VINA RESULT:      -9.4     23.730     29.354
REMARK  Name = Cyclosporin_A.pdbqt.pdb
REMARK  4 active torsions:
REMARK  status: ('A' for Active; 'I' for Inactive)
REMARK    1  A    between atoms: N_13  and  C_36
REMARK    2  A    between atoms: C_36  and  O_70
REMARK    3  A    between atoms: C_72  and  C_73
REMARK    4  A    between atoms: C_75  and  C_76
REMARK                            x       y       z     vdW  Elec       q    Type
REMARK                         _______ _______ _______ _____ _____    ______ ____
ROOT
ATOM      1  O   UNL     1      -7.227  42.094  12.242  0.00  0.00    +0.000 OA
ATOM      2  O   UNL     1     -10.880  38.745  10.919  0.00  0.00    +0.000 OA
ATOM      3  O   UNL     1     -14.783  40.839  12.738  0.00  0.00    +0.000 OA
ATOM      4  O   UNL     1      -7.686  44.551  16.456  0.00  0.00    +0.000 OA
ATOM      5  O   UNL     1     -12.715  41.282   8.127  0.00  0.00    +0.000 OA
ATOM      6  O   UNL     1     -14.681  52.349   9.005  0.00  0.00    +0.000 OA
ATOM      7  O   UNL     1      -5.873  47.311  11.963  0.00  0.00    +0.000 OA
ATOM      8  O   UNL     1     -12.386  51.924  13.344  0.00  0.00    +0.000 OA
ATOM      9  O   UNL     1     -16.483  48.365   6.916  0.00  0.00    +0.000 OA
ATOM     10  O   UNL     1      -8.490  50.624  13.312  0.00  0.00    +0.000 OA
ATOM     11  O   UNL     1     -13.535  45.239   6.545  0.00  0.00    +0.000 OA
ATOM     12  N   UNL     1     -10.143  40.282  11.839  0.00  0.00    +0.000 NA
ATOM     13  N   UNL     1      -9.144  42.642  13.588  0.00  0.00    +0.000 NA
ATOM     14  N   UNL     1     -13.347  39.844  11.795  0.00  0.00    +0.000 NA
ATOM     15  N   UNL     1     -14.643  41.898   9.742  0.00  0.00    +0.000 NA
ATOM     16  N   UNL     1      -8.273  45.516  14.294  0.00  0.00    +0.000 NA
ATOM     17  N   UNL     1     -15.692  50.478  10.017  0.00  0.00    +0.000 N 
ATOM     18  N   UNL     1     -13.014  50.513  11.585  0.00  0.00    +0.000 N 
ATOM     19  N   UNL     1     -10.255  50.338  12.477  0.00  0.00    +0.000 NA
ATOM     20  N   UNL     1      -8.144  47.308  11.828  0.00  0.00    +0.000 NA
ATOM     21  N   UNL     1     -13.673  44.602   8.941  0.00  0.00    +0.000 NA
ATOM     22  N   UNL     1     -14.721  47.940   8.513  0.00  0.00    +0.000 NA
ATOM     23  C   UNL     1      -9.053  41.053  11.563  0.00  0.00    +0.000 C 
ATOM     24  C   UNL     1     -12.217  40.462  12.148  0.00  0.00    +0.000 C 
ATOM     25  C   UNL     1      -8.447  43.051  14.708  0.00  0.00    +0.000 C 
ATOM     26  C   UNL     1      -8.007  40.634  10.761  0.00  0.00    +0.000 C 
ATOM     27  C   UNL     1     -12.449  40.441  13.610  0.00  0.00    +0.000 C 
ATOM     28  C   UNL     1      -8.593  41.949  12.505  0.00  0.00    +0.000 C 
ATOM     29  C   UNL     1     -11.347  39.883  11.287  0.00  0.00    +0.000 C 
ATOM     30  C   UNL     1     -14.493  40.724  10.289  0.00  0.00    +0.000 C 
ATOM     31  C   UNL     1     -14.157  40.889  11.600  0.00  0.00    +0.000 C 
ATOM     32  C   UNL     1      -8.410  44.456  15.216  0.00  0.00    +0.000 C 
ATOM     33  C   UNL     1      -8.396  39.278  10.529  0.00  0.00    +0.000 C 
ATOM     34  C   UNL     1      -6.875  41.137  11.310  0.00  0.00    +0.000 C 
ATOM     35  C   UNL     1      -9.671  39.234  11.071  0.00  0.00    +0.000 C 
ATOM     36  C   UNL     1     -13.933  39.766  13.088  0.00  0.00    +0.000 C 
ATOM     37  C   UNL     1      -7.041  46.046  13.834  0.00  0.00    +0.000 C 
ATOM     38  C   UNL     1     -13.435  51.417  10.644  0.00  0.00    +0.000 A 
ATOM     39  C   UNL     1     -13.455  41.936   9.148  0.00  0.00    +0.000 C 
ATOM     40  C   UNL     1     -16.154  49.809   8.856  0.00  0.00    +0.000 C 
ATOM     41  C   UNL     1     -11.269  50.257  13.372  0.00  0.00    +0.000 C 
ATOM     42  C   UNL     1     -15.788  41.361   8.963  0.00  0.00    +0.000 C 
ATOM     43  C   UNL     1     -12.777  52.584  10.148  0.00  0.00    +0.000 A 
ATOM     44  C   UNL     1     -17.693  50.730   8.595  0.00  0.00    +0.000 C 
ATOM     45  C   UNL     1     -13.290  43.373   8.784  0.00  0.00    +0.000 C 
ATOM     46  C   UNL     1     -11.226  51.573  14.100  0.00  0.00    +0.000 C 
ATOM     47  C   UNL     1      -5.917  45.632  14.611  0.00  0.00    +0.000 C 
ATOM     48  C   UNL     1     -14.621  51.327   9.923  0.00  0.00    +0.000 A 
ATOM     49  C   UNL     1      -6.996  46.793  12.703  0.00  0.00    +0.000 C 
ATOM     50  C   UNL     1     -12.307  50.823  12.648  0.00  0.00    +0.000 C 
ATOM     51  C   UNL     1     -15.758  48.745   8.079  0.00  0.00    +0.000 C 
ATOM     52  C   UNL     1      -8.844  48.402  12.506  0.00  0.00    +0.000 C 
ATOM     53  C   UNL     1     -11.421  53.133  10.503  0.00  0.00    +0.000 C 
ATOM     54  C   UNL     1     -13.563  53.111   9.155  0.00  0.00    +0.000 A 
ATOM     55  C   UNL     1      -9.360  49.554  13.156  0.00  0.00    +0.000 C 
ATOM     56  C   UNL     1     -14.258  46.910   7.883  0.00  0.00    +0.000 C 
ATOM     57  C   UNL     1     -12.632  42.515   7.944  0.00  0.00    +0.000 C 
ATOM     58  C   UNL     1     -16.883  51.013   9.666  0.00  0.00    +0.000 C 
ATOM     59  C   UNL     1      -5.588  44.934  15.528  0.00  0.00    +0.000 C 
ATOM     60  C   UNL     1     -13.767  45.477   7.950  0.00  0.00    +0.000 C 
ATOM     61  C   UNL     1      -9.531  51.613  13.031  0.00  0.00    +0.000 C 
ATOM     62  C   UNL     1      -6.933  47.618  11.404  0.00  0.00    +0.000 C 
ATOM     63  C   UNL     1     -13.974  46.395   6.662  0.00  0.00    +0.000 C 
ATOM     64  H   UNL     1      -8.899  45.397  13.498  0.00  0.00    +0.000 HD
ATOM     65  H   UNL     1     -13.068  49.533  11.321  0.00  0.00    +0.000 HD
ATOM     66  H   UNL     1     -14.155  44.830   9.807  0.00  0.00    +0.000 HD
ATOM     67  H   UNL     1     -14.607  48.002   9.520  0.00  0.00    +0.000 HD
ATOM     68  C   UNL     1      -7.460  42.364  15.213  0.00  0.00    +0.000 C 
ATOM     69  C   UNL     1      -6.333  42.630  16.040  0.00  0.00    +0.000 C 
ATOM     70  C   UNL     1      -6.331  44.064  16.391  0.00  0.00    +0.000 C 
ATOM     71  C   UNL     1     -12.271  39.395  14.904  0.00  0.00    +0.000 C 
ATOM     72  C   UNL     1     -11.912  39.720  16.145  0.00  0.00    +0.000 C 
ATOM     73  C   UNL     1     -13.492  39.245  14.241  0.00  0.00    +0.000 C 
ATOM     74  C   UNL     1     -15.675  40.119   9.661  0.00  0.00    +0.000 C 
ATOM     75  C   UNL     1     -16.106  40.032   8.345  0.00  0.00    +0.000 C 
ATOM     76  C   UNL     1     -17.535  39.562   7.996  0.00  0.00    +0.000 C 
ATOM     77  C   UNL     1     -15.753  41.140   7.599  0.00  0.00    +0.000 C 
ATOM     78  C   UNL     1     -10.509  52.359  15.296  0.00  0.00    +0.000 C 
ATOM     79  C   UNL     1     -10.870  53.332  16.129  0.00  0.00    +0.000 C 
ATOM     80  C   UNL     1      -9.602  52.246  14.241  0.00  0.00    +0.000 C 
ATOM     81  C   UNL     1     -18.250  50.230   7.490  0.00  0.00    +0.000 C 
ATOM     82  C   UNL     1     -19.548  50.735   6.954  0.00  0.00    +0.000 C 
ATOM     83  C   UNL     1     -17.546  49.169   6.870  0.00  0.00    +0.000 C 
ENDROOT
BRANCH  69  84
ATOM     84  C   UNL     1      -5.186  41.812  16.173  0.00  0.00    +0.000 C 
ATOM     85  C   UNL     1      -4.211  41.119  16.279  0.00  0.00    +0.000 C 
BRANCH  85  86
ATOM     86  C   UNL     1      -2.966  40.235  16.409  0.00  0.00    +0.000 C 
ATOM     87  C   UNL     1      -1.887  39.462  16.523  0.00  0.00    +0.000 C 
ENDBRANCH  85  86
ENDBRANCH  69  84
BRANCH  13  88
ATOM     88  C   UNL     1     -10.468  43.209  13.393  0.00  0.00    +0.000 C 
BRANCH  88  89
ATOM     89  O   UNL     1     -11.667  43.749  13.218  0.00  0.00    +0.000 OA
ATOM     90  H   UNL     1     -11.603  44.720  13.247  0.00  0.00    +0.000 HD
ENDBRANCH  88  89
ENDBRANCH  13  88
TORSDOF 4
ENDMDL
MODEL 4
REMARK VINA RESULT:      -9.4     18.943     23.753
REMARK  Name = Cyclosporin_A.pdbqt.pdb
REMARK  4 active torsions:
REMARK  status: ('A' for Active; 'I' for Inactive)
REMARK    1  A    between atoms: N_13  and  C_36
REMARK    2  A    between atoms: C_36  and  O_70
REMARK    3  A    between atoms: C_72  and  C_73
REMARK    4  A    between atoms: C_75  and  C_76
REMARK                            x       y       z     vdW  Elec       q    Type
REMARK                         _______ _______ _______ _____ _____    ______ ____
ROOT
ATOM      1  O   UNL     1      25.260  43.814  -8.571  0.00  0.00    +0.000 OA
ATOM      2  O   UNL     1      23.164  39.660  -6.412  0.00  0.00    +0.000 OA
ATOM      3  O   UNL     1      18.570  40.971  -6.107  0.00  0.00    +0.000 OA
ATOM      4  O   UNL     1      23.412  48.223  -7.497  0.00  0.00    +0.000 OA
ATOM      5  O   UNL     1      21.003  38.521  -9.822  0.00  0.00    +0.000 OA
ATOM      6  O   UNL     1      15.347  45.111 -17.010  0.00  0.00    +0.000 OA
ATOM      7  O   UNL     1      24.817  47.154 -12.786  0.00  0.00    +0.000 OA
ATOM      8  O   UNL     1      17.010  48.793 -14.192  0.00  0.00    +0.000 OA
ATOM      9  O   UNL     1      15.296  40.619 -15.194  0.00  0.00    +0.000 OA
ATOM     10  O   UNL     1      21.079  49.264 -13.891  0.00  0.00    +0.000 OA
ATOM     11  O   UNL     1      19.141  39.446 -13.630  0.00  0.00    +0.000 OA
ATOM     12  N   UNL     1      23.206  41.490  -7.043  0.00  0.00    +0.000 NA
ATOM     13  N   UNL     1      23.099  44.505  -7.770  0.00  0.00    +0.000 NA
ATOM     14  N   UNL     1      20.374  40.154  -6.236  0.00  0.00    +0.000 NA
ATOM     15  N   UNL     1      18.771  39.446  -8.890  0.00  0.00    +0.000 NA
ATOM     16  N   UNL     1      22.850  47.018  -9.541  0.00  0.00    +0.000 NA
ATOM     17  N   UNL     1      14.886  44.412 -14.810  0.00  0.00    +0.000 N 
ATOM     18  N   UNL     1      17.147  46.457 -14.227  0.00  0.00    +0.000 N 
ATOM     19  N   UNL     1      19.649  47.907 -13.952  0.00  0.00    +0.000 NA
ATOM     20  N   UNL     1      22.721  46.314 -12.507  0.00  0.00    +0.000 NA
ATOM     21  N   UNL     1      18.884  40.782 -11.554  0.00  0.00    +0.000 NA
ATOM     22  N   UNL     1      16.853  42.113 -14.109  0.00  0.00    +0.000 NA
ATOM     23  C   UNL     1      24.003  42.101  -7.966  0.00  0.00    +0.000 C 
ATOM     24  C   UNL     1      21.170  41.149  -6.636  0.00  0.00    +0.000 C 
ATOM     25  C   UNL     1      23.452  45.799  -7.438  0.00  0.00    +0.000 C 
ATOM     26  C   UNL     1      25.232  41.603  -8.360  0.00  0.00    +0.000 C 
ATOM     27  C   UNL     1      20.754  42.135  -5.613  0.00  0.00    +0.000 C 
ATOM     28  C   UNL     1      23.999  43.477  -8.070  0.00  0.00    +0.000 C 
ATOM     29  C   UNL     1      22.296  40.455  -6.924  0.00  0.00    +0.000 C 
ATOM     30  C   UNL     1      19.226  39.198  -7.693  0.00  0.00    +0.000 C 
ATOM     31  C   UNL     1      19.298  40.369  -6.998  0.00  0.00    +0.000 C 
ATOM     32  C   UNL     1      22.945  47.020  -8.133  0.00  0.00    +0.000 C 
ATOM     33  C   UNL     1      25.356  40.499  -7.461  0.00  0.00    +0.000 C 
ATOM     34  C   UNL     1      26.040  42.675  -8.546  0.00  0.00    +0.000 C 
ATOM     35  C   UNL     1      24.105  40.456  -6.863  0.00  0.00    +0.000 C 
ATOM     36  C   UNL     1      19.671  40.867  -5.227  0.00  0.00    +0.000 C 
ATOM     37  C   UNL     1      23.886  47.396 -10.432  0.00  0.00    +0.000 C 
ATOM     38  C   UNL     1      16.586  46.166 -15.444  0.00  0.00    +0.000 A 
ATOM     39  C   UNL     1      19.950  39.419  -9.504  0.00  0.00    +0.000 C 
ATOM     40  C   UNL     1      14.844  43.010 -15.016  0.00  0.00    +0.000 C 
ATOM     41  C   UNL     1      18.604  48.186 -13.136  0.00  0.00    +0.000 C 
ATOM     42  C   UNL     1      17.995  38.181  -8.830  0.00  0.00    +0.000 C 
ATOM     43  C   UNL     1      16.879  46.711 -16.732  0.00  0.00    +0.000 A 
ATOM     44  C   UNL     1      13.140  42.866 -15.614  0.00  0.00    +0.000 C 
ATOM     45  C   UNL     1      19.675  40.060 -10.822  0.00  0.00    +0.000 C 
ATOM     46  C   UNL     1      18.100  49.518 -13.621  0.00  0.00    +0.000 C 
ATOM     47  C   UNL     1      24.961  48.086  -9.796  0.00  0.00    +0.000 C 
ATOM     48  C   UNL     1      15.613  45.197 -15.665  0.00  0.00    +0.000 A 
ATOM     49  C   UNL     1      23.839  47.024 -11.736  0.00  0.00    +0.000 C 
ATOM     50  C   UNL     1      17.551  47.653 -13.862  0.00  0.00    +0.000 C 
ATOM     51  C   UNL     1      15.680  41.936 -14.818  0.00  0.00    +0.000 C 
ATOM     52  C   UNL     1      21.607  47.235 -12.745  0.00  0.00    +0.000 C 
ATOM     53  C   UNL     1      17.908  47.739 -17.116  0.00  0.00    +0.000 C 
ATOM     54  C   UNL     1      16.112  46.038 -17.648  0.00  0.00    +0.000 A 
ATOM     55  C   UNL     1      20.649  48.230 -13.072  0.00  0.00    +0.000 C 
ATOM     56  C   UNL     1      17.718  41.188 -13.848  0.00  0.00    +0.000 C 
ATOM     57  C   UNL     1      20.694  39.147 -10.858  0.00  0.00    +0.000 C 
ATOM     58  C   UNL     1      13.647  44.084 -15.241  0.00  0.00    +0.000 C 
ATOM     59  C   UNL     1      25.371  48.452  -8.731  0.00  0.00    +0.000 C 
ATOM     60  C   UNL     1      18.645  40.544 -12.835  0.00  0.00    +0.000 C 
ATOM     61  C   UNL     1      19.819  49.308 -14.632  0.00  0.00    +0.000 C 
ATOM     62  C   UNL     1      23.806  46.581 -13.210  0.00  0.00    +0.000 C 
ATOM     63  C   UNL     1      18.328  40.076 -14.328  0.00  0.00    +0.000 C 
ATOM     64  H   UNL     1      22.419  46.158  -9.882  0.00  0.00    +0.000 HD
ATOM     65  H   UNL     1      17.462  45.662 -13.677  0.00  0.00    +0.000 HD
ATOM     66  H   UNL     1      18.236  41.397 -11.069  0.00  0.00    +0.000 HD
ATOM     67  H   UNL     1      16.795  42.926 -13.504  0.00  0.00    +0.000 HD
ATOM     68  C   UNL     1      24.531  46.082  -6.759  0.00  0.00    +0.000 C 
ATOM     69  C   UNL     1      25.375  47.215  -6.588  0.00  0.00    +0.000 C 
ATOM     70  C   UNL     1      24.847  48.327  -7.403  0.00  0.00    +0.000 C 
ATOM     71  C   UNL     1      21.084  42.522  -4.019  0.00  0.00    +0.000 C 
ATOM     72  C   UNL     1      21.135  43.744  -3.492  0.00  0.00    +0.000 C 
ATOM     73  C   UNL     1      20.091  41.547  -4.153  0.00  0.00    +0.000 C 
ATOM     74  C   UNL     1      18.416  37.992  -7.477  0.00  0.00    +0.000 C 
ATOM     75  C   UNL     1      18.230  36.832  -8.218  0.00  0.00    +0.000 C 
ATOM     76  C   UNL     1      17.106  35.831  -7.875  0.00  0.00    +0.000 C 
ATOM     77  C   UNL     1      18.295  37.059  -9.579  0.00  0.00    +0.000 C 
ATOM     78  C   UNL     1      18.336  51.098 -13.518  0.00  0.00    +0.000 C 
ATOM     79  C   UNL     1      17.556  52.171 -13.618  0.00  0.00    +0.000 C 
ATOM     80  C   UNL     1      19.369  50.550 -14.281  0.00  0.00    +0.000 C 
ATOM     81  C   UNL     1      12.945  41.575 -15.892  0.00  0.00    +0.000 C 
ATOM     82  C   UNL     1      11.642  41.058 -16.407  0.00  0.00    +0.000 C 
ATOM     83  C   UNL     1      14.044  40.717 -15.641  0.00  0.00    +0.000 C 
ENDROOT
BRANCH  69  84
ATOM     84  C   UNL     1      26.697  47.199  -6.086  0.00  0.00    +0.000 C 
ATOM     85  C   UNL     1      27.822  47.180  -5.665  0.00  0.00    +0.000 C 
BRANCH  85  86
ATOM     86  C   UNL     1      29.258  47.152  -5.130  0.00  0.00    +0.000 C 
ATOM     87  C   UNL     1      30.504  47.129  -4.661  0.00  0.00    +0.000 C 
ENDBRANCH  85  86
ENDBRANCH  69  84
BRANCH  13  88
ATOM     88  C   UNL     1      21.704  44.268  -8.100  0.00  0.00    +0.000 C 
BRANCH  88  89
ATOM     89  O   UNL     1      20.427  44.076  -8.404  0.00  0.00    +0.000 OA
ATOM     90  H   UNL     1      20.155  43.177  -8.147  0.00  0.00    +0.000 HD
ENDBRANCH  88  89
ENDBRANCH  13  88
TORSDOF 4
ENDMDL
MODEL 5
REMARK VINA RESULT:      -9.3     32.193     37.632
REMARK  Name = Cyclosporin_A.pdbqt.pdb
REMARK  4 active torsions:
REMARK  status: ('A' for Active; 'I' for Inactive)
REMARK    1  A    between atoms: N_13  and  C_36
REMARK    2  A    between atoms: C_36  and  O_70
REMARK    3  A    between atoms: C_72  and  C_73
REMARK    4  A    between atoms: C_75  and  C_76
REMARK                            x       y       z     vdW  Elec       q    Type
REMARK                         _______ _______ _______ _____ _____    ______ ____
ROOT
ATOM      1  O   UNL     1       2.871  26.119  33.943  0.00  0.00    +0.000 OA
ATOM      2  O   UNL     1      -1.285  23.322  32.841  0.00  0.00    +0.000 OA
ATOM      3  O   UNL     1      -0.553  22.327  28.216  0.00  0.00    +0.000 OA
ATOM      4  O   UNL     1       4.770  29.003  30.467  0.00  0.00    +0.000 OA
ATOM      5  O   UNL     1       0.811  19.722  32.349  0.00  0.00    +0.000 OA
ATOM      6  O   UNL     1      10.736  18.076  27.262  0.00  0.00    +0.000 OA
ATOM      7  O   UNL     1       8.262  26.090  33.694  0.00  0.00    +0.000 OA
ATOM      8  O   UNL     1      10.674  22.961  26.622  0.00  0.00    +0.000 OA
ATOM      9  O   UNL     1       6.567  15.790  28.198  0.00  0.00    +0.000 OA
ATOM     10  O   UNL     1      10.565  25.314  29.987  0.00  0.00    +0.000 OA
ATOM     11  O   UNL     1       4.466  17.528  31.539  0.00  0.00    +0.000 OA
ATOM     12  N   UNL     1       0.326  24.321  32.446  0.00  0.00    +0.000 NA
ATOM     13  N   UNL     1       2.739  26.051  31.542  0.00  0.00    +0.000 NA
ATOM     14  N   UNL     1      -1.017  22.496  30.138  0.00  0.00    +0.000 NA
ATOM     15  N   UNL     1       0.720  19.858  29.765  0.00  0.00    +0.000 NA
ATOM     16  N   UNL     1       5.680  26.805  31.003  0.00  0.00    +0.000 NA
ATOM     17  N   UNL     1       8.583  18.526  26.420  0.00  0.00    +0.000 N 
ATOM     18  N   UNL     1       9.276  21.330  27.553  0.00  0.00    +0.000 N 
ATOM     19  N   UNL     1       9.843  23.657  29.198  0.00  0.00    +0.000 NA
ATOM     20  N   UNL     1       7.611  24.678  32.033  0.00  0.00    +0.000 NA
ATOM     21  N   UNL     1       3.641  19.464  30.222  0.00  0.00    +0.000 NA
ATOM     22  N   UNL     1       6.554  18.144  28.740  0.00  0.00    +0.000 NA
ATOM     23  C   UNL     1       1.399  24.636  33.227  0.00  0.00    +0.000 C 
ATOM     24  C   UNL     1      -0.125  23.362  30.628  0.00  0.00    +0.000 C 
ATOM     25  C   UNL     1       3.248  27.314  31.313  0.00  0.00    +0.000 C 
ATOM     26  C   UNL     1       1.361  24.632  34.610  0.00  0.00    +0.000 C 
ATOM     27  C   UNL     1      -0.322  24.418  29.609  0.00  0.00    +0.000 C 
ATOM     28  C   UNL     1       2.317  25.566  32.785  0.00  0.00    +0.000 C 
ATOM     29  C   UNL     1      -0.362  23.227  31.954  0.00  0.00    +0.000 C 
ATOM     30  C   UNL     1      -0.397  20.519  29.889  0.00  0.00    +0.000 C 
ATOM     31  C   UNL     1      -0.240  21.757  29.341  0.00  0.00    +0.000 C 
ATOM     32  C   UNL     1       4.561  27.592  30.657  0.00  0.00    +0.000 C 
ATOM     33  C   UNL     1      -0.028  24.372  34.823  0.00  0.00    +0.000 C 
ATOM     34  C   UNL     1       2.129  25.671  35.019  0.00  0.00    +0.000 C 
ATOM     35  C   UNL     1      -0.480  24.085  33.544  0.00  0.00    +0.000 C 
ATOM     36  C   UNL     1      -1.357  23.218  28.962  0.00  0.00    +0.000 C 
ATOM     37  C   UNL     1       6.577  27.079  32.066  0.00  0.00    +0.000 C 
ATOM     38  C   UNL     1      10.087  20.224  27.525  0.00  0.00    +0.000 A 
ATOM     39  C   UNL     1       1.145  20.053  31.010  0.00  0.00    +0.000 C 
ATOM     40  C   UNL     1       7.896  17.392  26.924  0.00  0.00    +0.000 C 
ATOM     41  C   UNL     1       9.405  23.810  27.925  0.00  0.00    +0.000 C 
ATOM     42  C   UNL     1      -0.067  18.629  29.489  0.00  0.00    +0.000 C 
ATOM     43  C   UNL     1      11.428  20.070  27.992  0.00  0.00    +0.000 A 
ATOM     44  C   UNL     1       8.349  16.196  25.641  0.00  0.00    +0.000 C 
ATOM     45  C   UNL     1       2.590  19.693  30.948  0.00  0.00    +0.000 C 
ATOM     46  C   UNL     1      10.619  24.279  27.170  0.00  0.00    +0.000 C 
ATOM     47  C   UNL     1       6.450  28.400  32.591  0.00  0.00    +0.000 C 
ATOM     48  C   UNL     1       9.710  18.969  27.059  0.00  0.00    +0.000 A 
ATOM     49  C   UNL     1       7.387  26.103  32.548  0.00  0.00    +0.000 C 
ATOM     50  C   UNL     1       9.698  22.564  27.392  0.00  0.00    +0.000 C 
ATOM     51  C   UNL     1       7.054  17.108  27.974  0.00  0.00    +0.000 C 
ATOM     52  C   UNL     1       8.402  24.705  30.800  0.00  0.00    +0.000 C 
ATOM     53  C   UNL     1      12.318  21.075  28.673  0.00  0.00    +0.000 C 
ATOM     54  C   UNL     1      11.776  18.755  27.819  0.00  0.00    +0.000 A 
ATOM     55  C   UNL     1       9.303  24.808  29.708  0.00  0.00    +0.000 C 
ATOM     56  C   UNL     1       5.752  18.013  29.746  0.00  0.00    +0.000 C 
ATOM     57  C   UNL     1       2.025  19.484  32.177  0.00  0.00    +0.000 C 
ATOM     58  C   UNL     1       8.774  17.497  25.562  0.00  0.00    +0.000 C 
ATOM     59  C   UNL     1       5.812  29.411  32.506  0.00  0.00    +0.000 C 
ATOM     60  C   UNL     1       4.521  18.508  30.481  0.00  0.00    +0.000 C 
ATOM     61  C   UNL     1      11.227  24.380  29.078  0.00  0.00    +0.000 C 
ATOM     62  C   UNL     1       8.289  24.994  33.120  0.00  0.00    +0.000 C 
ATOM     63  C   UNL     1       5.433  17.242  30.814  0.00  0.00    +0.000 C 
ATOM     64  H   UNL     1       5.445  25.812  31.017  0.00  0.00    +0.000 HD
ATOM     65  H   UNL     1       8.344  21.194  27.937  0.00  0.00    +0.000 HD
ATOM     66  H   UNL     1       3.655  19.864  29.287  0.00  0.00    +0.000 HD
ATOM     67  H   UNL     1       6.571  19.020  28.227  0.00  0.00    +0.000 HD
ATOM     68  C   UNL     1       2.840  28.367  31.968  0.00  0.00    +0.000 C 
ATOM     69  C   UNL     1       3.360  29.655  32.279  0.00  0.00    +0.000 C 
ATOM     70  C   UNL     1       4.703  29.781  31.678  0.00  0.00    +0.000 C 
ATOM     71  C   UNL     1      -1.364  25.686  29.285  0.00  0.00    +0.000 C 
ATOM     72  C   UNL     1      -1.042  26.863  28.751  0.00  0.00    +0.000 C 
ATOM     73  C   UNL     1      -1.811  24.464  28.776  0.00  0.00    +0.000 C 
ATOM     74  C   UNL     1      -1.271  19.398  29.515  0.00  0.00    +0.000 C 
ATOM     75  C   UNL     1      -1.381  18.092  29.972  0.00  0.00    +0.000 C 
ATOM     76  C   UNL     1      -2.217  17.042  29.211  0.00  0.00    +0.000 C 
ATOM     77  C   UNL     1      -0.166  17.566  30.368  0.00  0.00    +0.000 C 
ATOM     78  C   UNL     1      11.489  25.574  26.808  0.00  0.00    +0.000 C 
ATOM     79  C   UNL     1      12.250  25.935  25.779  0.00  0.00    +0.000 C 
ATOM     80  C   UNL     1      11.721  25.250  28.146  0.00  0.00    +0.000 C 
ATOM     81  C   UNL     1       7.792  15.035  25.994  0.00  0.00    +0.000 C 
ATOM     82  C   UNL     1       7.937  13.799  25.170  0.00  0.00    +0.000 C 
ATOM     83  C   UNL     1       7.029  15.054  27.187  0.00  0.00    +0.000 C 
ENDROOT
BRANCH  69  84
ATOM     84  C   UNL     1       2.902  30.512  33.307  0.00  0.00    +0.000 C 
ATOM     85  C   UNL     1       2.508  31.244  34.174  0.00  0.00    +0.000 C 
BRANCH  85  86
ATOM     86  C   UNL     1       2.006  32.182  35.277  0.00  0.00    +0.000 C 
ATOM     87  C   UNL     1       1.567  32.999  36.232  0.00  0.00    +0.000 C 
ENDBRANCH  85  86
ENDBRANCH  69  84
BRANCH  13  88
ATOM     88  C   UNL     1       2.910  25.070  30.483  0.00  0.00    +0.000 C 
BRANCH  88  89
ATOM     89  O   UNL     1       3.089  24.184  29.513  0.00  0.00    +0.000 OA
ATOM     90  H   UNL     1       3.707  23.490  29.805  0.00  0.00    +0.000 HD
ENDBRANCH  88  89
ENDBRANCH  13  88
TORSDOF 4
ENDMDL
MODEL 6
REMARK VINA RESULT:      -9.2     36.123     42.523
REMARK  Name = Cyclosporin_A.pdbqt.pdb
REMARK  4 active torsions:
REMARK  status: ('A' for Active; 'I' for Inactive)
REMARK    1  A    between atoms: N_13  and  C_36
REMARK    2  A    between atoms: C_36  and  O_70
REMARK    3  A    between atoms: C_72  and  C_73
REMARK    4  A    between atoms: C_75  and  C_76
REMARK                            x       y       z     vdW  Elec       q    Type
REMARK                         _______ _______ _______ _____ _____    ______ ____
ROOT
ATOM      1  O   UNL     1      -7.846  12.918   9.819  0.00  0.00    +0.000 OA
ATOM      2  O   UNL     1     -12.569  14.877   9.412  0.00  0.00    +0.000 OA
ATOM      3  O   UNL     1     -11.634  19.569   9.249  0.00  0.00    +0.000 OA
ATOM      4  O   UNL     1      -4.447  15.438  12.291  0.00  0.00    +0.000 OA
ATOM      5  O   UNL     1     -12.076  16.218   5.468  0.00  0.00    +0.000 OA
ATOM      6  O   UNL     1      -3.053  21.172   0.870  0.00  0.00    +0.000 OA
ATOM      7  O   UNL     1      -2.963  12.958   7.522  0.00  0.00    +0.000 OA
ATOM      8  O   UNL     1      -1.023  20.505   5.309  0.00  0.00    +0.000 OA
ATOM      9  O   UNL     1      -7.879  21.032   0.464  0.00  0.00    +0.000 OA
ATOM     10  O   UNL     1      -0.658  16.647   6.670  0.00  0.00    +0.000 OA
ATOM     11  O   UNL     1      -9.557  17.435   2.151  0.00  0.00    +0.000 OA
ATOM     12  N   UNL     1     -10.652  14.934   9.677  0.00  0.00    +0.000 NA
ATOM     13  N   UNL     1      -7.639  15.256  10.348  0.00  0.00    +0.000 NA
ATOM     14  N   UNL     1     -12.266  17.690   9.172  0.00  0.00    +0.000 NA
ATOM     15  N   UNL     1     -11.721  18.677   6.198  0.00  0.00    +0.000 NA
ATOM     16  N   UNL     1      -4.602  15.464   9.857  0.00  0.00    +0.000 NA
ATOM     17  N   UNL     1      -4.685  21.948   2.379  0.00  0.00    +0.000 N 
ATOM     18  N   UNL     1      -3.084  20.091   4.281  0.00  0.00    +0.000 N 
ATOM     19  N   UNL     1      -1.868  17.871   5.706  0.00  0.00    +0.000 NA
ATOM     20  N   UNL     1      -3.881  14.956   6.936  0.00  0.00    +0.000 NA
ATOM     21  N   UNL     1      -9.317  18.228   4.491  0.00  0.00    +0.000 NA
ATOM     22  N   UNL     1      -7.011  19.891   2.407  0.00  0.00    +0.000 NA
ATOM     23  C   UNL     1      -9.672  14.056   9.317  0.00  0.00    +0.000 C 
ATOM     24  C   UNL     1     -11.182  16.956   9.436  0.00  0.00    +0.000 C 
ATOM     25  C   UNL     1      -6.632  15.125  11.284  0.00  0.00    +0.000 C 
ATOM     26  C   UNL     1      -9.911  12.725   9.023  0.00  0.00    +0.000 C 
ATOM     27  C   UNL     1     -10.778  17.668  10.670  0.00  0.00    +0.000 C 
ATOM     28  C   UNL     1      -8.400  14.202   9.831  0.00  0.00    +0.000 C 
ATOM     29  C   UNL     1     -11.646  15.722   9.127  0.00  0.00    +0.000 C 
ATOM     30  C   UNL     1     -12.477  18.426   7.231  0.00  0.00    +0.000 C 
ATOM     31  C   UNL     1     -11.750  18.623   8.367  0.00  0.00    +0.000 C 
ATOM     32  C   UNL     1      -5.238  15.634  11.105  0.00  0.00    +0.000 C 
ATOM     33  C   UNL     1     -11.301  12.642   9.348  0.00  0.00    +0.000 C 
ATOM     34  C   UNL     1      -8.856  12.028   9.510  0.00  0.00    +0.000 C 
ATOM     35  C   UNL     1     -11.636  13.968   9.576  0.00  0.00    +0.000 C 
ATOM     36  C   UNL     1     -12.105  18.647  10.211  0.00  0.00    +0.000 C 
ATOM     37  C   UNL     1      -3.838  14.333   9.474  0.00  0.00    +0.000 C 
ATOM     38  C   UNL     1      -2.801  20.378   2.970  0.00  0.00    +0.000 A 
ATOM     39  C   UNL     1     -11.442  17.409   5.910  0.00  0.00    +0.000 C 
ATOM     40  C   UNL     1      -5.841  21.787   1.573  0.00  0.00    +0.000 C 
ATOM     41  C   UNL     1      -2.012  19.075   6.311  0.00  0.00    +0.000 C 
ATOM     42  C   UNL     1     -12.891  19.297   5.524  0.00  0.00    +0.000 C 
ATOM     43  C   UNL     1      -1.724  19.917   2.153  0.00  0.00    +0.000 A 
ATOM     44  C   UNL     1      -5.731  23.321   0.615  0.00  0.00    +0.000 C 
ATOM     45  C   UNL     1     -10.278  17.508   4.984  0.00  0.00    +0.000 C 
ATOM     46  C   UNL     1      -0.615  19.633   6.365  0.00  0.00    +0.000 C 
ATOM     47  C   UNL     1      -3.492  13.483  10.568  0.00  0.00    +0.000 C 
ATOM     48  C   UNL     1      -3.583  21.172   2.138  0.00  0.00    +0.000 A 
ATOM     49  C   UNL     1      -3.578  14.093   8.165  0.00  0.00    +0.000 C 
ATOM     50  C   UNL     1      -2.177  19.905   5.214  0.00  0.00    +0.000 C 
ATOM     51  C   UNL     1      -6.870  20.882   1.455  0.00  0.00    +0.000 C 
ATOM     52  C   UNL     1      -2.975  16.107   6.891  0.00  0.00    +0.000 C 
ATOM     53  C   UNL     1      -0.612  18.961   2.496  0.00  0.00    +0.000 C 
ATOM     54  C   UNL     1      -1.921  20.416   0.891  0.00  0.00    +0.000 A 
ATOM     55  C   UNL     1      -1.960  17.097   6.834  0.00  0.00    +0.000 C 
ATOM     56  C   UNL     1      -7.936  18.986   2.417  0.00  0.00    +0.000 C 
ATOM     57  C   UNL     1     -11.053  16.400   4.774  0.00  0.00    +0.000 C 
ATOM     58  C   UNL     1      -4.806  23.038   1.587  0.00  0.00    +0.000 C 
ATOM     59  C   UNL     1      -3.642  13.324  11.746  0.00  0.00    +0.000 C 
ATOM     60  C   UNL     1      -8.951  18.195   3.218  0.00  0.00    +0.000 C 
ATOM     61  C   UNL     1      -0.308  17.744   5.768  0.00  0.00    +0.000 C 
ATOM     62  C   UNL     1      -3.301  13.799   6.678  0.00  0.00    +0.000 C 
ATOM     63  C   UNL     1      -8.695  18.172   1.643  0.00  0.00    +0.000 C 
ATOM     64  H   UNL     1      -5.221  15.720   9.087  0.00  0.00    +0.000 HD
ATOM     65  H   UNL     1      -4.036  19.793   4.479  0.00  0.00    +0.000 HD
ATOM     66  H   UNL     1      -9.004  19.022   5.042  0.00  0.00    +0.000 HD
ATOM     67  H   UNL     1      -6.563  20.154   3.280  0.00  0.00    +0.000 HD
ATOM     68  C   UNL     1      -6.666  14.233  12.235  0.00  0.00    +0.000 C 
ATOM     69  C   UNL     1      -5.719  13.574  13.068  0.00  0.00    +0.000 C 
ATOM     70  C   UNL     1      -4.369  14.068  12.732  0.00  0.00    +0.000 C 
ATOM     71  C   UNL     1     -11.152  17.687  12.300  0.00  0.00    +0.000 C 
ATOM     72  C   UNL     1     -10.304  17.879  13.308  0.00  0.00    +0.000 C 
ATOM     73  C   UNL     1     -11.979  18.516  11.537  0.00  0.00    +0.000 C 
ATOM     74  C   UNL     1     -13.666  19.115   6.711  0.00  0.00    +0.000 C 
ATOM     75  C   UNL     1     -14.365  19.023   5.515  0.00  0.00    +0.000 C 
ATOM     76  C   UNL     1     -15.435  20.066   5.127  0.00  0.00    +0.000 C 
ATOM     77  C   UNL     1     -13.543  18.733   4.443  0.00  0.00    +0.000 C 
ATOM     78  C   UNL     1       0.749  19.607   7.201  0.00  0.00    +0.000 C 
ATOM     79  C   UNL     1       1.734  20.475   7.416  0.00  0.00    +0.000 C 
ATOM     80  C   UNL     1       0.630  18.393   6.522  0.00  0.00    +0.000 C 
ATOM     81  C   UNL     1      -6.758  23.308  -0.238  0.00  0.00    +0.000 C 
ATOM     82  C   UNL     1      -7.010  24.422  -1.199  0.00  0.00    +0.000 C 
ATOM     83  C   UNL     1      -7.614  22.182  -0.156  0.00  0.00    +0.000 C 
ENDROOT
BRANCH  69  84
ATOM     84  C   UNL     1      -5.934  12.375  13.788  0.00  0.00    +0.000 C 
ATOM     85  C   UNL     1      -6.117  11.353  14.392  0.00  0.00    +0.000 C 
BRANCH  85  86
ATOM     86  C   UNL     1      -6.353  10.047  15.158  0.00  0.00    +0.000 C 
ATOM     87  C   UNL     1      -6.553   8.913  15.827  0.00  0.00    +0.000 C 
ENDBRANCH  85  86
ENDBRANCH  69  84
BRANCH  13  88
ATOM     88  C   UNL     1      -7.729  16.529   9.651  0.00  0.00    +0.000 C 
BRANCH  88  89
ATOM     89  O   UNL     1      -7.787  17.687   9.007  0.00  0.00    +0.000 OA
ATOM     90  H   UNL     1      -7.819  18.421   9.646  0.00  0.00    +0.000 HD
ENDBRANCH  88  89
ENDBRANCH  13  88
TORSDOF 4
ENDMDL
MODEL 7
REMARK VINA RESULT:      -8.7     34.308     37.478
REMARK  Name = Cyclosporin_A.pdbqt.pdb
REMARK  4 active torsions:
REMARK  status: ('A' for Active; 'I' for Inactive)
REMARK    1  A    between atoms: N_13  and  C_36
REMARK    2  A    between atoms: C_36  and  O_70
REMARK    3  A    between atoms: C_72  and  C_73
REMARK    4  A    between atoms: C_75  and  C_76
REMARK                            x       y       z     vdW  Elec       q    Type
REMARK                         _______ _______ _______ _____ _____    ______ ____
ROOT
ATOM      1  O   UNL     1       2.686  20.681   4.201  0.00  0.00    +0.000 OA
ATOM      2  O   UNL     1       6.310  19.591   0.739  0.00  0.00    +0.000 OA
ATOM      3  O   UNL     1       3.711  17.597  -2.752  0.00  0.00    +0.000 OA
ATOM      4  O   UNL     1      -1.176  17.693   4.602  0.00  0.00    +0.000 OA
ATOM      5  O   UNL     1       5.026  22.446  -2.054  0.00  0.00    +0.000 OA
ATOM      6  O   UNL     1      -5.541  25.072  -4.977  0.00  0.00    +0.000 OA
ATOM      7  O   UNL     1      -2.049  23.196   4.821  0.00  0.00    +0.000 OA
ATOM      8  O   UNL     1      -6.800  21.738  -1.576  0.00  0.00    +0.000 OA
ATOM      9  O   UNL     1      -1.052  24.970  -6.799  0.00  0.00    +0.000 OA
ATOM     10  O   UNL     1      -5.609  22.430   2.293  0.00  0.00    +0.000 OA
ATOM     11  O   UNL     1       1.964  25.032  -3.716  0.00  0.00    +0.000 OA
ATOM     12  N   UNL     1       4.535  19.541   1.512  0.00  0.00    +0.000 NA
ATOM     13  N   UNL     1       1.683  19.128   2.662  0.00  0.00    +0.000 NA
ATOM     14  N   UNL     1       4.978  18.492  -1.515  0.00  0.00    +0.000 NA
ATOM     15  N   UNL     1       3.859  20.675  -3.539  0.00  0.00    +0.000 NA
ATOM     16  N   UNL     1      -1.250  19.787   3.353  0.00  0.00    +0.000 NA
ATOM     17  N   UNL     1      -4.184  23.209  -5.459  0.00  0.00    +0.000 N 
ATOM     18  N   UNL     1      -4.825  22.609  -2.483  0.00  0.00    +0.000 N 
ATOM     19  N   UNL     1      -5.018  22.556   0.416  0.00  0.00    +0.000 NA
ATOM     20  N   UNL     1      -1.980  22.655   2.612  0.00  0.00    +0.000 NA
ATOM     21  N   UNL     1       1.650  22.638  -3.136  0.00  0.00    +0.000 NA
ATOM     22  N   UNL     1      -1.272  23.913  -4.639  0.00  0.00    +0.000 NA
ATOM     23  C   UNL     1       3.918  20.380   2.393  0.00  0.00    +0.000 C 
ATOM     24  C   UNL     1       4.265  18.730  -0.411  0.00  0.00    +0.000 C 
ATOM     25  C   UNL     1       0.877  18.483   3.580  0.00  0.00    +0.000 C 
ATOM     26  C   UNL     1       4.602  21.244   3.228  0.00  0.00    +0.000 C 
ATOM     27  C   UNL     1       3.735  17.358  -0.240  0.00  0.00    +0.000 C 
ATOM     28  C   UNL     1       2.730  19.999   2.981  0.00  0.00    +0.000 C 
ATOM     29  C   UNL     1       5.120  19.537   0.259  0.00  0.00    +0.000 C 
ATOM     30  C   UNL     1       4.739  19.811  -3.114  0.00  0.00    +0.000 C 
ATOM     31  C   UNL     1       4.089  18.805  -2.462  0.00  0.00    +0.000 C 
ATOM     32  C   UNL     1      -0.616  18.548   3.589  0.00  0.00    +0.000 C 
ATOM     33  C   UNL     1       5.947  20.850   2.951  0.00  0.00    +0.000 C 
ATOM     34  C   UNL     1       3.921  21.267   4.400  0.00  0.00    +0.000 C 
ATOM     35  C   UNL     1       5.792  19.983   1.880  0.00  0.00    +0.000 C 
ATOM     36  C   UNL     1       4.567  17.147  -1.722  0.00  0.00    +0.000 C 
ATOM     37  C   UNL     1      -1.576  20.743   4.348  0.00  0.00    +0.000 C 
ATOM     38  C   UNL     1      -5.305  23.646  -3.241  0.00  0.00    +0.000 A 
ATOM     39  C   UNL     1       4.040  21.561  -2.565  0.00  0.00    +0.000 C 
ATOM     40  C   UNL     1      -3.123  23.864  -6.134  0.00  0.00    +0.000 C 
ATOM     41  C   UNL     1      -5.274  21.439  -0.307  0.00  0.00    +0.000 C 
ATOM     42  C   UNL     1       4.658  20.840  -4.780  0.00  0.00    +0.000 C 
ATOM     43  C   UNL     1      -6.203  24.696  -2.878  0.00  0.00    +0.000 A 
ATOM     44  C   UNL     1      -3.868  23.980  -7.782  0.00  0.00    +0.000 C 
ATOM     45  C   UNL     1       2.846  22.448  -2.670  0.00  0.00    +0.000 C 
ATOM     46  C   UNL     1      -6.768  21.277  -0.224  0.00  0.00    +0.000 C 
ATOM     47  C   UNL     1      -1.493  20.231   5.678  0.00  0.00    +0.000 C 
ATOM     48  C   UNL     1      -4.941  23.909  -4.558  0.00  0.00    +0.000 A 
ATOM     49  C   UNL     1      -1.841  22.028   4.003  0.00  0.00    +0.000 C 
ATOM     50  C   UNL     1      -5.518  21.982  -1.558  0.00  0.00    +0.000 C 
ATOM     51  C   UNL     1      -1.847  24.286  -5.839  0.00  0.00    +0.000 C 
ATOM     52  C   UNL     1      -3.245  22.244   1.997  0.00  0.00    +0.000 C 
ATOM     53  C   UNL     1      -6.854  24.972  -1.549  0.00  0.00    +0.000 C 
ATOM     54  C   UNL     1      -6.311  25.538  -3.955  0.00  0.00    +0.000 A 
ATOM     55  C   UNL     1      -4.553  21.931   1.544  0.00  0.00    +0.000 C 
ATOM     56  C   UNL     1      -0.084  24.236  -4.244  0.00  0.00    +0.000 C 
ATOM     57  C   UNL     1       3.952  23.076  -2.165  0.00  0.00    +0.000 C 
ATOM     58  C   UNL     1      -4.539  23.367  -6.755  0.00  0.00    +0.000 C 
ATOM     59  C   UNL     1      -1.195  19.263   6.318  0.00  0.00    +0.000 C 
ATOM     60  C   UNL     1       1.215  23.804  -3.592  0.00  0.00    +0.000 C 
ATOM     61  C   UNL     1      -6.412  22.732   1.109  0.00  0.00    +0.000 C 
ATOM     62  C   UNL     1      -2.115  23.494   3.622  0.00  0.00    +0.000 C 
ATOM     63  C   UNL     1       0.852  25.217  -4.239  0.00  0.00    +0.000 C 
ATOM     64  H   UNL     1      -0.836  20.269   2.555  0.00  0.00    +0.000 HD
ATOM     65  H   UNL     1      -3.817  22.475  -2.492  0.00  0.00    +0.000 HD
ATOM     66  H   UNL     1       1.116  21.813  -3.393  0.00  0.00    +0.000 HD
ATOM     67  H   UNL     1      -1.710  23.075  -4.268  0.00  0.00    +0.000 HD
ATOM     68  C   UNL     1       1.317  18.075   4.739  0.00  0.00    +0.000 C 
ATOM     69  C   UNL     1       0.751  17.765   6.007  0.00  0.00    +0.000 C 
ATOM     70  C   UNL     1      -0.710  17.969   5.937  0.00  0.00    +0.000 C 
ATOM     71  C   UNL     1       4.214  15.886   0.395  0.00  0.00    +0.000 C 
ATOM     72  C   UNL     1       3.443  15.006   1.032  0.00  0.00    +0.000 C 
ATOM     73  C   UNL     1       4.611  16.066  -0.933  0.00  0.00    +0.000 C 
ATOM     74  C   UNL     1       5.544  19.808  -4.343  0.00  0.00    +0.000 C 
ATOM     75  C   UNL     1       6.124  20.819  -5.097  0.00  0.00    +0.000 C 
ATOM     76  C   UNL     1       6.700  20.545  -6.502  0.00  0.00    +0.000 C 
ATOM     77  C   UNL     1       5.377  21.982  -5.085  0.00  0.00    +0.000 C 
ATOM     78  C   UNL     1      -7.951  20.708   0.691  0.00  0.00    +0.000 C 
ATOM     79  C   UNL     1      -9.164  20.213   0.455  0.00  0.00    +0.000 C 
ATOM     80  C   UNL     1      -7.454  21.866   1.290  0.00  0.00    +0.000 C 
ATOM     81  C   UNL     1      -2.984  24.619  -8.552  0.00  0.00    +0.000 C 
ATOM     82  C   UNL     1      -3.240  24.898  -9.995  0.00  0.00    +0.000 C 
ATOM     83  C   UNL     1      -1.772  24.991  -7.921  0.00  0.00    +0.000 C 
ENDROOT
BRANCH  69  84
ATOM     84  C   UNL     1       1.451  17.686   7.234  0.00  0.00    +0.000 C 
ATOM     85  C   UNL     1       2.051  17.623   8.273  0.00  0.00    +0.000 C 
BRANCH  85  86
ATOM     86  C   UNL     1       2.820  17.545   9.596  0.00  0.00    +0.000 C 
ATOM     87  C   UNL     1       3.492  17.480  10.744  0.00  0.00    +0.000 C 
ENDBRANCH  85  86
ENDBRANCH  69  84
BRANCH  13  88
ATOM     88  C   UNL     1       1.240  19.120   1.277  0.00  0.00    +0.000 C 
BRANCH  88  89
ATOM     89  O   UNL     1       0.813  19.116   0.022  0.00  0.00    +0.000 OA
ATOM     90  H   UNL     1       1.458  18.659  -0.548  0.00  0.00    +0.000 HD
ENDBRANCH  88  89
ENDBRANCH  13  88
TORSDOF 4
ENDMDL
MODEL 8
REMARK VINA RESULT:      -8.5     22.585     28.827
REMARK  Name = Cyclosporin_A.pdbqt.pdb
REMARK  4 active torsions:
REMARK  status: ('A' for Active; 'I' for Inactive)
REMARK    1  A    between atoms: N_13  and  C_36
REMARK    2  A    between atoms: C_36  and  O_70
REMARK    3  A    between atoms: C_72  and  C_73
REMARK    4  A    between atoms: C_75  and  C_76
REMARK                            x       y       z     vdW  Elec       q    Type
REMARK                         _______ _______ _______ _____ _____    ______ ____
ROOT
ATOM      1  O   UNL     1     -11.393  44.709  11.357  0.00  0.00    +0.000 OA
ATOM      2  O   UNL     1      -6.883  42.266  11.420  0.00  0.00    +0.000 OA
ATOM      3  O   UNL     1      -4.214  45.280  14.010  0.00  0.00    +0.000 OA
ATOM      4  O   UNL     1     -11.428  49.608  11.327  0.00  0.00    +0.000 OA
ATOM      5  O   UNL     1      -7.025  41.332  15.507  0.00  0.00    +0.000 OA
ATOM      6  O   UNL     1     -10.498  47.847  24.027  0.00  0.00    +0.000 OA
ATOM      7  O   UNL     1     -15.112  46.951  14.561  0.00  0.00    +0.000 OA
ATOM      8  O   UNL     1     -11.489  51.123  20.484  0.00  0.00    +0.000 OA
ATOM      9  O   UNL     1      -7.408  44.238  23.072  0.00  0.00    +0.000 OA
ATOM     10  O   UNL     1     -14.216  50.042  17.609  0.00  0.00    +0.000 OA
ATOM     11  O   UNL     1      -8.504  42.046  19.523  0.00  0.00    +0.000 OA
ATOM     12  N   UNL     1      -8.090  43.752  11.712  0.00  0.00    +0.000 NA
ATOM     13  N   UNL     1      -9.771  46.337  12.066  0.00  0.00    +0.000 NA
ATOM     14  N   UNL     1      -5.136  43.823  13.027  0.00  0.00    +0.000 NA
ATOM     15  N   UNL     1      -5.377  43.226  16.141  0.00  0.00    +0.000 NA
ATOM     16  N   UNL     1     -11.773  48.297  13.354  0.00  0.00    +0.000 NA
ATOM     17  N   UNL     1      -8.550  47.880  22.704  0.00  0.00    +0.000 N 
ATOM     18  N   UNL     1     -10.587  48.969  20.630  0.00  0.00    +0.000 N 
ATOM     19  N   UNL     1     -12.713  49.363  18.690  0.00  0.00    +0.000 NA
ATOM     20  N   UNL     1     -13.185  47.067  15.764  0.00  0.00    +0.000 NA
ATOM     21  N   UNL     1      -7.652  43.797  17.983  0.00  0.00    +0.000 NA
ATOM     22  N   UNL     1      -8.432  45.214  21.115  0.00  0.00    +0.000 NA
ATOM     23  C   UNL     1      -9.447  43.790  11.852  0.00  0.00    +0.000 C 
ATOM     24  C   UNL     1      -6.341  44.321  12.734  0.00  0.00    +0.000 C 
ATOM     25  C   UNL     1     -10.365  47.433  11.472  0.00  0.00    +0.000 C 
ATOM     26  C   UNL     1     -10.286  42.783  11.410  0.00  0.00    +0.000 C 
ATOM     27  C   UNL     1      -5.871  45.589  12.132  0.00  0.00    +0.000 C 
ATOM     28  C   UNL     1     -10.104  45.002  11.811  0.00  0.00    +0.000 C 
ATOM     29  C   UNL     1      -6.963  43.202  12.295  0.00  0.00    +0.000 C 
ATOM     30  C   UNL     1      -4.844  43.091  14.958  0.00  0.00    +0.000 C 
ATOM     31  C   UNL     1      -4.978  44.265  14.278  0.00  0.00    +0.000 C 
ATOM     32  C   UNL     1     -10.981  48.571  12.219  0.00  0.00    +0.000 C 
ATOM     33  C   UNL     1      -9.342  41.944  10.743  0.00  0.00    +0.000 C 
ATOM     34  C   UNL     1     -11.402  43.392  10.940  0.00  0.00    +0.000 C 
ATOM     35  C   UNL     1      -8.129  42.518  11.091  0.00  0.00    +0.000 C 
ATOM     36  C   UNL     1      -4.365  44.954  12.643  0.00  0.00    +0.000 C 
ATOM     37  C   UNL     1     -13.168  48.042  13.338  0.00  0.00    +0.000 C 
ATOM     38  C   UNL     1     -10.827  48.658  21.944  0.00  0.00    +0.000 A 
ATOM     39  C   UNL     1      -6.522  42.613  15.857  0.00  0.00    +0.000 C 
ATOM     40  C   UNL     1      -8.038  46.594  23.013  0.00  0.00    +0.000 C 
ATOM     41  C   UNL     1     -11.643  50.195  18.711  0.00  0.00    +0.000 C 
ATOM     42  C   UNL     1      -4.275  42.405  16.704  0.00  0.00    +0.000 C 
ATOM     43  C   UNL     1     -12.041  48.751  22.691  0.00  0.00    +0.000 A 
ATOM     44  C   UNL     1      -7.207  46.991  24.573  0.00  0.00    +0.000 C 
ATOM     45  C   UNL     1      -7.419  43.005  16.982  0.00  0.00    +0.000 C 
ATOM     46  C   UNL     1     -12.182  51.477  19.286  0.00  0.00    +0.000 C 
ATOM     47  C   UNL     1     -13.795  48.385  12.103  0.00  0.00    +0.000 C 
ATOM     48  C   UNL     1      -9.894  48.116  22.822  0.00  0.00    +0.000 A 
ATOM     49  C   UNL     1     -13.767  47.441  14.397  0.00  0.00    +0.000 C 
ATOM     50  C   UNL     1     -11.153  49.965  19.987  0.00  0.00    +0.000 C 
ATOM     51  C   UNL     1      -8.007  45.353  22.422  0.00  0.00    +0.000 C 
ATOM     52  C   UNL     1     -12.988  48.271  16.576  0.00  0.00    +0.000 C 
ATOM     53  C   UNL     1     -13.406  49.192  22.234  0.00  0.00    +0.000 C 
ATOM     54  C   UNL     1     -11.797  48.244  23.942  0.00  0.00    +0.000 A 
ATOM     55  C   UNL     1     -12.983  49.460  17.350  0.00  0.00    +0.000 C 
ATOM     56  C   UNL     1      -8.448  44.108  20.444  0.00  0.00    +0.000 C 
ATOM     57  C   UNL     1      -7.722  41.786  16.439  0.00  0.00    +0.000 C 
ATOM     58  C   UNL     1      -7.847  47.969  23.855  0.00  0.00    +0.000 C 
ATOM     59  C   UNL     1     -13.579  48.788  10.995  0.00  0.00    +0.000 C 
ATOM     60  C   UNL     1      -8.168  43.396  19.135  0.00  0.00    +0.000 C 
ATOM     61  C   UNL     1     -13.848  50.405  18.976  0.00  0.00    +0.000 C 
ATOM     62  C   UNL     1     -14.449  46.734  15.583  0.00  0.00    +0.000 C 
ATOM     63  C   UNL     1      -8.662  42.772  20.519  0.00  0.00    +0.000 C 
ATOM     64  H   UNL     1     -11.320  47.618  13.967  0.00  0.00    +0.000 HD
ATOM     65  H   UNL     1     -10.116  48.255  20.080  0.00  0.00    +0.000 HD
ATOM     66  H   UNL     1      -7.193  44.704  17.973  0.00  0.00    +0.000 HD
ATOM     67  H   UNL     1      -8.380  46.098  20.618  0.00  0.00    +0.000 HD
ATOM     68  C   UNL     1     -10.793  47.419  10.239  0.00  0.00    +0.000 C 
ATOM     69  C   UNL     1     -11.741  48.147   9.467  0.00  0.00    +0.000 C 
ATOM     70  C   UNL     1     -12.369  49.169  10.328  0.00  0.00    +0.000 C 
ATOM     71  C   UNL     1      -5.290  46.157  10.670  0.00  0.00    +0.000 C 
ATOM     72  C   UNL     1      -5.533  47.348  10.126  0.00  0.00    +0.000 C 
ATOM     73  C   UNL     1      -4.288  45.637  11.494  0.00  0.00    +0.000 C 
ATOM     74  C   UNL     1      -3.650  42.369  15.419  0.00  0.00    +0.000 C 
ATOM     75  C   UNL     1      -3.473  41.239  16.206  0.00  0.00    +0.000 C 
ATOM     76  C   UNL     1      -2.083  40.850  16.754  0.00  0.00    +0.000 C 
ATOM     77  C   UNL     1      -4.442  41.119  17.184  0.00  0.00    +0.000 C 
ATOM     78  C   UNL     1     -12.963  52.825  18.916  0.00  0.00    +0.000 C 
ATOM     79  C   UNL     1     -12.971  54.066  19.395  0.00  0.00    +0.000 C 
ATOM     80  C   UNL     1     -13.875  51.769  18.886  0.00  0.00    +0.000 C 
ATOM     81  C   UNL     1      -6.685  45.848  25.025  0.00  0.00    +0.000 C 
ATOM     82  C   UNL     1      -5.908  45.775  26.297  0.00  0.00    +0.000 C 
ATOM     83  C   UNL     1      -6.890  44.711  24.206  0.00  0.00    +0.000 C 
ENDROOT
BRANCH  69  84
ATOM     84  C   UNL     1     -12.309  47.732   8.239  0.00  0.00    +0.000 C 
ATOM     85  C   UNL     1     -12.787  47.387   7.193  0.00  0.00    +0.000 C 
BRANCH  85  86
ATOM     86  C   UNL     1     -13.396  46.951   5.856  0.00  0.00    +0.000 C 
ATOM     87  C   UNL     1     -13.931  46.573   4.696  0.00  0.00    +0.000 C 
ENDBRANCH  85  86
ENDBRANCH  69  84
BRANCH  13  88
ATOM     88  C   UNL     1      -8.940  46.590  13.232  0.00  0.00    +0.000 C 
BRANCH  88  89
ATOM     89  O   UNL     1      -8.200  46.837  14.305  0.00  0.00    +0.000 OA
ATOM     90  H   UNL     1      -7.496  47.472  14.084  0.00  0.00    +0.000 HD
ENDBRANCH  88  89
ENDBRANCH  13  88
TORSDOF 4
ENDMDL
MODEL 9
REMARK VINA RESULT:      -8.5     17.476     24.003
REMARK  Name = Cyclosporin_A.pdbqt.pdb
REMARK  4 active torsions:
REMARK  status: ('A' for Active; 'I' for Inactive)
REMARK    1  A    between atoms: N_13  and  C_36
REMARK    2  A    between atoms: C_36  and  O_70
REMARK    3  A    between atoms: C_72  and  C_73
REMARK    4  A    between atoms: C_75  and  C_76
REMARK                            x       y       z     vdW  Elec       q    Type
REMARK                         _______ _______ _______ _____ _____    ______ ____
ROOT
ATOM      1  O   UNL     1       7.636  58.305 -11.066  0.00  0.00    +0.000 OA
ATOM      2  O   UNL     1       2.529  58.594 -10.684  0.00  0.00    +0.000 OA
ATOM      3  O   UNL     1       1.971  59.264  -5.977  0.00  0.00    +0.000 OA
ATOM      4  O   UNL     1      10.173  56.309  -7.380  0.00  0.00    +0.000 OA
ATOM      5  O   UNL     1       2.461  62.672  -9.702  0.00  0.00    +0.000 OA
ATOM      6  O   UNL     1       9.373  68.291  -2.792  0.00  0.00    +0.000 OA
ATOM      7  O   UNL     1      12.195  60.905  -9.805  0.00  0.00    +0.000 OA
ATOM      8  O   UNL     1      11.649  63.948  -2.318  0.00  0.00    +0.000 OA
ATOM      9  O   UNL     1       4.813  68.372  -4.428  0.00  0.00    +0.000 OA
ATOM     10  O   UNL     1      13.226  62.251  -5.710  0.00  0.00    +0.000 OA
ATOM     11  O   UNL     1       4.377  66.245  -8.155  0.00  0.00    +0.000 OA
ATOM     12  N   UNL     1       4.344  58.460 -10.022  0.00  0.00    +0.000 NA
ATOM     13  N   UNL     1       7.131  58.017  -8.732  0.00  0.00    +0.000 NA
ATOM     14  N   UNL     1       1.945  59.121  -7.956  0.00  0.00    +0.000 NA
ATOM     15  N   UNL     1       2.066  62.204  -7.186  0.00  0.00    +0.000 NA
ATOM     16  N   UNL     1       9.940  58.720  -7.670  0.00  0.00    +0.000 NA
ATOM     17  N   UNL     1       7.629  66.762  -2.384  0.00  0.00    +0.000 N 
ATOM     18  N   UNL     1       9.783  64.797  -3.447  0.00  0.00    +0.000 N 
ATOM     19  N   UNL     1      11.668  63.247  -5.024  0.00  0.00    +0.000 NA
ATOM     20  N   UNL     1      10.689  61.619  -8.256  0.00  0.00    +0.000 NA
ATOM     21  N   UNL     1       4.436  64.011  -7.073  0.00  0.00    +0.000 NA
ATOM     22  N   UNL     1       6.051  66.388  -5.032  0.00  0.00    +0.000 NA
ATOM     23  C   UNL     1       5.534  58.796 -10.597  0.00  0.00    +0.000 C 
ATOM     24  C   UNL     1       3.210  58.858  -8.295  0.00  0.00    +0.000 C 
ATOM     25  C   UNL     1       8.159  57.139  -8.448  0.00  0.00    +0.000 C 
ATOM     26  C   UNL     1       5.706  58.945 -11.961  0.00  0.00    +0.000 C 
ATOM     27  C   UNL     1       3.415  57.726  -7.362  0.00  0.00    +0.000 C 
ATOM     28  C   UNL     1       6.715  58.381 -10.016  0.00  0.00    +0.000 C 
ATOM     29  C   UNL     1       3.139  59.018  -9.637  0.00  0.00    +0.000 C 
ATOM     30  C   UNL     1       1.456  61.106  -7.538  0.00  0.00    +0.000 C 
ATOM     31  C   UNL     1       2.124  60.043  -7.005  0.00  0.00    +0.000 C 
ATOM     32  C   UNL     1       9.322  57.455  -7.564  0.00  0.00    +0.000 C 
ATOM     33  C   UNL     1       4.421  58.526 -12.424  0.00  0.00    +0.000 C 
ATOM     34  C   UNL     1       6.940  58.463 -12.248  0.00  0.00    +0.000 C 
ATOM     35  C   UNL     1       3.701  58.405 -11.245  0.00  0.00    +0.000 C 
ATOM     36  C   UNL     1       1.837  58.191  -6.887  0.00  0.00    +0.000 C 
ATOM     37  C   UNL     1      11.002  59.041  -8.553  0.00  0.00    +0.000 C 
ATOM     38  C   UNL     1       9.923  66.145  -3.235  0.00  0.00    +0.000 A 
ATOM     39  C   UNL     1       2.711  62.387  -8.334  0.00  0.00    +0.000 C 
ATOM     40  C   UNL     1       6.554  67.473  -2.975  0.00  0.00    +0.000 C 
ATOM     41  C   UNL     1      11.180  62.753  -3.860  0.00  0.00    +0.000 C 
ATOM     42  C   UNL     1       0.741  62.858  -7.027  0.00  0.00    +0.000 C 
ATOM     43  C   UNL     1      11.063  66.982  -3.437  0.00  0.00    +0.000 A 
ATOM     44  C   UNL     1       6.157  68.578  -1.595  0.00  0.00    +0.000 C 
ATOM     45  C   UNL     1       3.759  63.391  -7.991  0.00  0.00    +0.000 C 
ATOM     46  C   UNL     1      12.339  62.842  -2.904  0.00  0.00    +0.000 C 
ATOM     47  C   UNL     1      11.627  57.895  -9.131  0.00  0.00    +0.000 C 
ATOM     48  C   UNL     1       8.909  66.997  -2.812  0.00  0.00    +0.000 A 
ATOM     49  C   UNL     1      11.282  60.335  -8.846  0.00  0.00    +0.000 C 
ATOM     50  C   UNL     1      10.733  63.911  -3.246  0.00  0.00    +0.000 C 
ATOM     51  C   UNL     1       5.850  67.437  -4.155  0.00  0.00    +0.000 C 
ATOM     52  C   UNL     1      11.195  61.831  -6.898  0.00  0.00    +0.000 C 
ATOM     53  C   UNL     1      12.425  66.621  -3.967  0.00  0.00    +0.000 C 
ATOM     54  C   UNL     1      10.682  68.271  -3.163  0.00  0.00    +0.000 A 
ATOM     55  C   UNL     1      11.854  62.048  -5.660  0.00  0.00    +0.000 C 
ATOM     56  C   UNL     1       5.450  66.233  -6.167  0.00  0.00    +0.000 C 
ATOM     57  C   UNL     1       3.356  63.445  -9.297  0.00  0.00    +0.000 C 
ATOM     58  C   UNL     1       7.154  67.645  -1.476  0.00  0.00    +0.000 C 
ATOM     59  C   UNL     1      11.571  56.700  -9.197  0.00  0.00    +0.000 C 
ATOM     60  C   UNL     1       4.753  65.296  -7.134  0.00  0.00    +0.000 C 
ATOM     61  C   UNL     1      13.193  63.274  -4.666  0.00  0.00    +0.000 C 
ATOM     62  C   UNL     1      11.588  61.801  -9.205  0.00  0.00    +0.000 C 
ATOM     63  C   UNL     1       4.954  66.875  -7.253  0.00  0.00    +0.000 C 
ATOM     64  H   UNL     1       9.248  59.469  -7.700  0.00  0.00    +0.000 HD
ATOM     65  H   UNL     1       8.976  64.511  -3.996  0.00  0.00    +0.000 HD
ATOM     66  H   UNL     1       4.507  63.560  -6.165  0.00  0.00    +0.000 HD
ATOM     67  H   UNL     1       6.424  65.575  -4.550  0.00  0.00    +0.000 HD
ATOM     68  C   UNL     1       8.431  56.107  -9.198  0.00  0.00    +0.000 C 
ATOM     69  C   UNL     1       9.561  55.277  -9.443  0.00  0.00    +0.000 C 
ATOM     70  C   UNL     1      10.683  55.745  -8.604  0.00  0.00    +0.000 C 
ATOM     71  C   UNL     1       3.105  56.085  -7.277  0.00  0.00    +0.000 C 
ATOM     72  C   UNL     1       3.885  55.156  -6.727  0.00  0.00    +0.000 C 
ATOM     73  C   UNL     1       2.039  56.869  -6.826  0.00  0.00    +0.000 C 
ATOM     74  C   UNL     1       0.097  61.612  -7.302  0.00  0.00    +0.000 C 
ATOM     75  C   UNL     1      -0.577  62.746  -7.733  0.00  0.00    +0.000 C 
ATOM     76  C   UNL     1      -1.927  63.163  -7.112  0.00  0.00    +0.000 C 
ATOM     77  C   UNL     1       0.260  63.836  -7.878  0.00  0.00    +0.000 C 
ATOM     78  C   UNL     1      13.671  62.096  -2.424  0.00  0.00    +0.000 C 
ATOM     79  C   UNL     1      14.348  62.029  -1.280  0.00  0.00    +0.000 C 
ATOM     80  C   UNL     1      13.909  62.648  -3.684  0.00  0.00    +0.000 C 
ATOM     81  C   UNL     1       5.157  69.358  -2.012  0.00  0.00    +0.000 C 
ATOM     82  C   UNL     1       4.544  70.403  -1.140  0.00  0.00    +0.000 C 
ATOM     83  C   UNL     1       4.692  69.114  -3.328  0.00  0.00    +0.000 C 
ENDROOT
BRANCH  69  84
ATOM     84  C   UNL     1       9.748  54.434 -10.563  0.00  0.00    +0.000 C 
ATOM     85  C   UNL     1       9.900  53.713 -11.512  0.00  0.00    +0.000 C 
BRANCH  85  86
ATOM     86  C   UNL     1      10.093  52.790 -12.720  0.00  0.00    +0.000 C 
ATOM     87  C   UNL     1      10.262  51.984 -13.766  0.00  0.00    +0.000 C 
ENDBRANCH  85  86
ENDBRANCH  69  84
BRANCH  13  88
ATOM     88  C   UNL     1       6.633  58.825  -7.631  0.00  0.00    +0.000 C 
BRANCH  88  89
ATOM     89  O   UNL     1       6.198  59.578  -6.629  0.00  0.00    +0.000 OA
ATOM     90  H   UNL     1       5.749  60.369  -6.977  0.00  0.00    +0.000 HD
ENDBRANCH  88  89
ENDBRANCH  13  88
TORSDOF 4
ENDMDL
